%nproc=4
%Mem=4GB
# td=(NStates=1) CAM-B3LYP/6-31G(d,p) 

TD

0 1
 8 -14.21948782398240 -1.89834821652165  0.30658091339134
 8  14.91038287508751  0.88994658125813 -0.08089749384938
 6 -11.97231009060906 -0.01467539263926  1.10965578557856
 6 -11.05753271577158  0.25364813581358 -0.08060434763476
 6 -12.15868134873487 -1.48401288568857  1.39689753105311
 6 -12.82394578807881 -2.07266833163316  0.15566971787179
 6 -11.57938322722272 -0.52245972427243 -1.31992748264826
 6  11.19934326492649  0.95908755125513  0.98530881058106
 6 -11.27717919111911  0.53973571237124  2.44336138683868
 6 -13.17003316571657  0.86638228512851  1.02382345914591
 6  12.60468764926493  1.48669809630963  0.62715010121012
 6 -12.38395938183819 -1.59051691949195 -1.16254902360236
 6  13.62968458935894  0.38992666526653  0.22379969886989
 6  10.78603807810781 -0.08462787298730 -0.07778419331933
 6 -9.63094185808581 -0.08075092329233  0.07676768436844
 6  13.18912689028903 -0.27595481488149 -0.96725231153115
 6  11.74606769556956 -0.66254129942994 -0.92417747654765
 6  10.27279416501650  2.24004331633163  1.00671338473847
 6  11.18595942844284  0.28451762716272  2.40743130443044
 6 -11.23000749824983  0.03909555105511 -2.66179843804380
 6 -8.56738283858386  0.80206518891889  0.16916329382938
 6  9.36103103240324 -0.49359713551355  0.06566665046505
 6  11.32832277777778 -1.70474344114411 -2.01079068376838
 6 -7.15517684058406  0.45828307010701  0.07369528022802
 6  8.78490494689469 -1.66390618811881 -0.00395553655366
 6 -6.78809023052305 -0.91896065296530  0.33517640624062
 6  7.43250173767377 -2.02838571057106 -0.06810787308731
 6 -6.20371014701470  1.51795537003700 -0.05410726732673
 6  7.02278547274727 -3.49382310451045  0.15973619181918
 6  6.43587085608561 -1.13076336503650 -0.03769611201120
 6 -4.81257523122312  1.37213075227523 -0.33092400580058
 6  5.02901374727473 -1.36875471837184 -0.05073285348535
 6 -4.03256462886289  2.51507453365337 -0.55878706770677
 6 -2.64329476757676  2.67081503910391 -0.57901064886489
 6  4.06795076057606 -0.48424893099310 -0.20334985138514
 6  2.62033908250825 -0.65401987348735 -0.15901085368537
 6 -1.93547209740974  3.95383996659666 -0.80541968936894
 6 -1.79772685818582  1.54696744114411 -0.43542955935594
 6  1.79014755975598  0.42555411691169 -0.26283484538454
 6  2.07479080018002 -2.07366015331533 -0.02174980708071
 6 -0.34737699659966  1.50370169146915 -0.36412977277728
 6  0.38255308610861  0.36522819061906 -0.16340960176018
 1 -11.01810855235524  1.47340912621262 -0.18806065126513
 1 -12.90858433153315 -1.64903491719172  2.28556645134513
 1 -11.22465013461346 -2.01657085208521  1.49792307490749
 1 -12.35492912651265 -3.28159726702670  0.11707656975698
 1 -10.37562296359636  0.01890356595660  2.58260688458846
 1 -11.18819898649865  1.52195527252725  2.31344606650665
 1 -11.97366495879588  0.50722414141414  3.36492066986699
 1 -13.52714391619162  0.71599760206021  0.10597706800680
 1 -13.75808157875788  0.57596920432043  1.86526052805281
 1 -12.80671935733573  1.98462208400840  0.96937742104210
 1  12.55027239393939  2.12948789828983 -0.22929508630863
 1  13.02588701580158  2.24665870477048  1.51971957315732
 1 -12.60238371697170 -1.83960075657566 -2.20082427312731
 1  13.67864744954496 -0.07536728252825  1.29464980088009
 1 -9.42659502520252 -1.17554241324132  0.26208376837684
 1  13.72333747784778 -1.21583462276228 -1.15961111711171
 1  13.33737015451545  0.41266984488449 -1.95495541934193
 1  9.17184388198820  2.12883293509351  1.22802805020502
 1  10.06974883648365  2.54731733413341  0.02443935943594
 1  10.61612528582858  3.05277024872487  1.58955510651065
 1  11.89588242954296 -0.61561881048105  2.35267168856886
 1  10.20853582418242 -0.17281982298230  2.54106723482348
 1  11.44691559065907  1.13568136493649  3.11343628662866
 1 -10.10718321632163 -0.06887697699770 -2.72492988868887
 1 -11.54835389168917  1.01422742124212 -3.04357142244224
 1 -11.71393923902390 -0.66096484778478 -3.56768452605260
 1 -14.61140441374137 -2.26621557415742 -0.48528673247325
 1  8.71764083208321  0.39582980818082  0.21701434763476
 1 -8.58844401330133  1.89132078487849  0.04081876147615
 1  11.56690242474247 -2.64895639163916 -1.55521837333733
 1  10.26419928632863 -1.65532163386339 -2.41976791079108
 1  11.91496078977898 -1.41015410551055 -2.81557750585059
 1  15.33816299659966  1.41779987978798  0.65882385128513
 1  9.40518029432943 -2.58915199689969 -0.27439388188819
 1 -5.82711717271727 -1.15130228092809  0.63889128592859
 1 -7.37067596569657 -1.47572954615462  1.05676792919292
 1 -7.00301653685369 -1.68433688188819 -0.40368858365837
 1 -6.52000428692869  2.55955475057506 -0.24857805950595
 1  6.55067861686169 -3.62095551815181  1.10413010871087
 1  6.54449179437944 -4.10472566036604 -0.46058564976498
 1  8.04462435983598 -3.99079526412641  0.22153912121212
 1  6.66790521742174 -0.02330957035704 -0.20019214111411
 1 -4.42331456305631  0.33058272347235 -0.38376443404340
 1  4.78962256575658 -2.39804905790579  0.12010434963496
 1 -4.61356740244024  3.32052003380338 -0.61738139363936
 1  4.27079715591559  0.55974331323132 -0.39913913131313
 1 -1.29561932013201  3.98331977867787 -1.65921419331933
 1 -1.44258709710971  4.19340649794979  0.06697473767377
 1 -2.74139362746275  4.60160257575758 -1.08098639233923
 1 -2.28762764316432  0.41671829732973 -0.11984671467147
 1  2.23427246934693  1.46229021822182 -0.30822783788379
 1  1.82344087178718 -2.45596199859986  1.06041441994199
 1  0.90604567586759 -2.21448073917392 -0.61168245334534
 1  2.76948969836984 -2.74411219841984 -0.49011325432543
 1  0.21177706260626  2.34373421312131 -0.64185117661766
 1 -0.06678957495750 -0.67063723352335 -0.21228188318832

