%nproc=4
%Mem=4GB
# td=(NStates=1) CAM-B3LYP/6-31G(d,p) 

TD

0 1
 8 -14.06907278247825 -2.04776315801580  0.47020727602760
 8  14.80995283208321  0.98395598219822 -0.07409681378138
 6 -11.71485434503450 -0.09442336743674  1.45822064206421
 6 -10.94172113461346  0.31432420342034  0.11833554635464
 6 -11.86817229782978 -1.71103558795880  1.32353019431943
 6 -12.69966335983598 -2.09818088288829  0.11305545644564
 6 -11.60553584248425 -0.17485496379638 -1.24074956485649
 6  11.14711804240424  0.97406904940494  1.11508178787879
 6 -10.87589906310631  0.35518725752575  2.62905995669567
 6 -13.08389455185519  0.60826647354735  1.50331140794079
 6  12.60680786128613  1.53014244074407  0.83158054425443
 6 -12.38868985488549 -1.28224609240924 -1.20704347304730
 6  13.55335695659566  0.53306097869787  0.34018133703370
 6  10.81835130943094 -0.16156556675668  0.01774535963596
 6 -9.54885364926493 -0.00638348654866  0.09419942754275
 6  12.96158413601360 -0.11811903130313 -0.97650323662366
 6  11.52779586838684 -0.53577862316232 -0.94880993979398
 6  10.17185407100710  2.20402971497150  1.08754146754675
 6  11.11061189368937  0.27995717111711  2.45008556985699
 6 -11.25533003050305  0.58377001850185 -2.50803306150615
 6 -8.65244134443445  0.82001698409841 -0.06122974547455
 6  9.30498542784278 -0.45050282608261 -0.02339225542554
 6  11.07663760926093 -1.38719168596860 -2.18378798349835
 6 -7.18781010391039  0.59683692549255 -0.13719580888089
 6  8.71677813421342 -1.59608940644064  0.05035989498950
 6 -6.68429985148515 -0.92283104000400  0.00388327692769
 6  7.33357184468447 -2.10082295429543  0.12763170087009
 6 -6.18103787978798  1.58036161066107 -0.45602745934593
 6  7.13913710791079 -3.52337605980598  0.65023524172417
 6  6.34038130713071 -1.16614690339034 -0.00831317371737
 6 -4.78752272597260  1.43622716191619 -0.57953886728673
 6  4.95795664156416 -1.55026286918692  0.08041026082608
 6 -3.95779715211521  2.65471849804980 -0.73021421042104
 6 -2.63892433053305  2.60490844844484 -0.84647739553955
 6  3.92256622212221 -0.71935244134413 -0.21568108450845
 6  2.53454050265026 -0.86683115461546 -0.20979593219322
 6 -2.01193974417442  3.86396097869787 -1.04027317471747
 6 -1.78217530303030  1.43784652905291 -0.59718573497350
 6  1.73253179817982  0.15526708820882 -0.52351091299130
 6  1.99228254935494 -2.31422420972097  0.11654402230223
 6 -0.35129738863886  1.41573289458946 -0.62135549534953
 6  0.32753758455846  0.26822849064907 -0.46418967976798
 1 -10.94881162266227  1.54216600190019  0.08222637743774
 1 -12.22551602470247 -1.97351736543654  2.46477437213721
 1 -10.83661133073307 -2.13558275327533  1.20494377697770
 1 -12.37611124472447 -3.14915402270227 -0.02283742164216
 1 -9.95749115041504 -0.09990831523152  2.70688931283128
 1 -10.60077024362436  1.41810488748875  2.44961968386839
 1 -11.37627521982198  0.28431185018502  3.53742792059206
 1 -13.58395959775978  0.44738074037404  0.64440091039104
 1 -13.77450322092209  0.09861146854685  2.32631663366337
 1 -13.01608029342934  1.76503012481248  1.71021150445045
 1  12.73717108380838  2.54829977947795  0.08964680788079
 1  12.94922935003500  1.88135217411741  1.85882348354836
 1 -12.84270774937494 -1.63597039353935 -2.08760295099510
 1  13.53453303810381 -0.15159490529053  1.21127146304630
 1 -9.32040440614061 -1.01197605660566  0.29365692569257
 1  13.56543168726873 -1.17835087438744 -1.21934709070907
 1  12.96073249074908  0.69099767766777 -1.76434635843584
 1  9.31250794839484  1.95808586038604  1.58443369076908
 1  9.97905976757676  2.52958556095610  0.01020793629363
 1  10.54579825312531  2.82862783448345  1.78154430543054
 1  11.81475431673167 -0.62233948254825  2.37323374477448
 1  10.12230720132013 -0.19869241024102  2.71371449954995
 1  11.30755165426543  0.87733553035304  3.28499344234423
 1 -10.11270376837684  0.39447935863586 -2.81983937963796
 1 -11.62237129342934  1.60220621912191 -2.45380244554455
 1 -11.79697754285429  0.05650689938994 -3.41087884548455
 1 -14.45775904920492 -2.17035598819882 -0.50658886268627
 1  8.59717878587859  0.31667189238924  0.26923957015702
 1 -8.85718088698870  1.89862151495150 -0.38120344074407
 1  11.40469620412041 -2.31984348034803 -1.76628948044804
 1  10.00018288468847 -1.40871697339734 -2.45398133213321
 1  11.89276857055706 -1.09896298639864 -2.93514946304630
 1  15.36664584488449  0.98288638843884  0.81416938583858
 1  9.36528630493049 -2.40152323402340 -0.33931037353735
 1 -5.53870833183318 -0.75309245994599 -0.01937454065407
 1 -6.79550844894489 -1.47388936213621  0.99258151055106
 1 -6.82385862106211 -1.63699214741474 -0.80782899769977
 1 -6.65071735823582  2.38647744284428 -0.53895709740974
 1  7.29487303630363 -3.79709313191319  1.84670436613661
 1  5.92373971917192 -3.88485367316732  0.07202761156116
 1  8.07674757215722 -4.04733091769177  0.05285225252525
 1  6.49712813971397 -0.23877111651165 -0.41023314521452
 1 -4.28377060866087  0.46786645184518 -0.72773883148315
 1  4.80576417991799 -2.52502175517552  0.25561790099010
 1 -4.51990803650365  3.73133111491149 -0.64646430193019
 1  4.25698577477748  0.26748408730873 -0.47222644004400
 1 -1.10422018021802  3.94558600530053 -1.72264053595360
 1 -1.48087092549255  4.17395455275528 -0.21442340214021
 1 -2.52358184628463  4.71285370087009 -1.40136843054305
 1 -2.21956083648365  0.42014864036404 -0.58211294129413
 1  2.22330137223722  1.11646563576358 -0.54835185028503
 1  2.02515104280428 -2.32392879527953  1.26794517301730
 1  0.88072314361436 -2.48546783788379 -0.28704999009901
 1  2.83867661706171 -3.02045983318332 -0.40375461846185
 1  0.21962784768477  2.42918275797580 -0.53601059255926
 1 -0.20442333833383 -0.75000517031703 -0.13830448544855

