%nproc=4
%Mem=4GB
# td=(NStates=1) CAM-B3LYP/6-31G(d,p) 

TD

0 1
 8 -14.14714058925892 -1.91937031873187  0.37154741004100
 8  14.65031686848685  1.02037962456246 -0.13405280938094
 6 -11.68617147674768 -0.06672059715972  1.33839865986599
 6 -10.90514747724773  0.41078384938494  0.05150886368637
 6 -12.00598607920792 -1.51336582098210  1.36936477777778
 6 -12.79619301280128 -2.02721378617862  0.11967611851185
 6 -11.57186247514751 -0.19482696099610 -1.22036752665267
 6  11.10613394399440  1.02106374887489  1.10689096879688
 6 -10.89552102530253  0.33691543034303  2.62984003470347
 6 -13.01392755515552  0.71961760866087  1.46837791459146
 6  12.47320450095009  1.66059548604860  0.79329671587159
 6 -12.24005499139914 -1.30677854565457 -1.09497226592659
 6  13.46345796669667  0.56116378897890  0.30875819471947
 6  10.57634710901090  0.07272786258626  0.00883446854685
 6 -9.51189995389539 -0.02815566376638  0.09538954655466
 6  12.89132711031103 -0.01478869826983 -0.98161374767477
 6  11.47749083788379 -0.43229827512751 -0.95477053585359
 6  10.10167705330533  2.22935224722472  1.41742445584559
 6  11.05470630313031  0.32668184358436  2.40078063936394
 6 -11.12343684118412  0.28576021752175 -2.55948820702070
 6 -8.53219932023202  0.82081706410641 -0.13842746524652
 6  9.23776870617062 -0.42305008080808  0.15381546534653
 6  11.10790073557356 -1.38796176297630 -2.05978558325833
 6 -7.07361868476848  0.52792003380338 -0.20046213551355
 6  8.82233869026903 -1.73576337383738 -0.02684782578258
 6 -6.64697611911191 -0.85238399529953  0.33658654725473
 6  7.43573206070607 -2.19327219921992  0.07820675837584
 6 -6.14595437143714  1.46314988948895 -0.45531738833883
 6  7.06459965416542 -3.75459918211821  0.16082630083008
 6  6.34353162216222 -1.41499178787879 -0.08226056845685
 6 -4.74015798949895  1.41734527372737 -0.55568648204820
 6  4.97350819671967 -1.66046388928893 -0.12061984218422
 6 -3.89788116051605  2.52780580678068 -0.87394858385839
 6 -2.47569800790079  2.68192615021502 -0.81790453825383
 6  3.94345831133113 -0.76959746584658 -0.29024854125413
 6  2.59789683828383 -0.95272974447445 -0.03666861946195
 6 -1.86815536573657  3.95870045264526 -0.99100824822482
 6 -1.70872795829583  1.55416816121612 -0.65870188658866
 6  1.72464100910091  0.20571213271327 -0.37651621352135
 6  2.07911123222322 -2.28624141144114  0.23823619151915
 6 -0.33595585448545  1.37265858715872 -0.65649900970097
 6  0.27679251005101  0.23038470627063 -0.30848410921092
 1 -10.84608134963496  1.43522530783078 -0.04074591979198
 1 -12.44263773687369 -1.54893490719072  2.45573346804680
 1 -11.17947561716172 -2.16230542554255  1.62020530313031
 1 -12.28105173877388 -3.04154326162616  0.23502836493649
 1 -9.93600900220022 -0.12004032843284  2.66542516641664
 1 -10.77707787438744  1.38460153715372  2.62418714061406
 1 -11.43005059735974  0.10262368136814  3.54305848364837
 1 -13.57586878867887  0.80023602590259  0.47984445474547
 1 -13.58173394399440  0.43460506790679  2.27624162616262
 1 -12.88155684108411  1.88690231203120  1.69559004230423
 1  12.39734710141014  2.32986793629363 -0.03586574337434
 1  12.81577600470047  2.29264330323032  1.65593319451945
 1 -12.58799227782778 -1.80115691219122 -2.05897008770877
 1  13.41831141594160 -0.32765251105110  0.97839817571757
 1 -9.25113747944794 -1.23682854185419  0.16142370237024
 1  13.57552269636964 -0.95433847314731 -1.24598975497550
 1  13.19058547604761  0.76251482938294 -1.72668259205921
 1  9.25262195979598  1.99251930373037  1.93275852325233
 1  9.76660852245224  2.74791739413941  0.39995691119112
 1  10.65456913021302  2.89677464916492  1.96887303830383
 1  11.74166700800080 -0.43765101370137  2.35512193359336
 1  10.13392836343634 -0.27699024002400  2.71865499359936
 1  11.22519341844184  0.93988178497850  3.35729067206721
 1 -10.12236473447345  0.51712162286229 -2.56031342704270
 1 -11.69616867316732  1.30624662316232 -2.90063712901290
 1 -11.49970781588159 -0.63841259255926 -3.25744350195020
 1 -14.80890416371637 -1.94865381798180 -0.45482368616862
 1  8.48532760076008  0.30804102930293  0.42527517371737
 1 -8.70495566446645  1.95522717551755 -0.33199852025203
 1  11.38092382688269 -2.46167766376638 -1.86511936343634
 1  10.14841770817082 -1.14009011071107 -2.38294422842284
 1  11.90204949864987 -1.00825391549155 -2.93093904200420
 1  15.22074125442544  1.20859895969597  0.68684665356536
 1  9.62288206450645 -2.32509559125913 -0.02416885938594
 1 -5.62469693069307 -1.04829197989799  0.08694609140914
 1 -6.87345624372437 -0.78802077527753  1.50140239263926
 1 -7.49938617381738 -1.84977342554255 -0.05255347014701
 1 -6.58130041654165  2.50234903000300 -0.49722292399240
 1  6.64065761476148 -3.91888531113111  1.13842353805381
 1  6.44984232943294 -4.15991117891789 -0.68226781798180
 1  8.08063796119612 -4.47704388898890  0.21381834913491
 1  6.71583000990099 -0.50671791119112 -0.29091121302130
 1 -4.31312354395440  0.34921458665867 -0.33087914551455
 1  4.70806440994099 -2.67138639163916  0.11352369156916
 1 -4.46922296799680  3.54780276207621 -0.92507216271627
 1  4.17631770797080  0.29172651155116 -0.56102531993199
 1 -1.35841559975998  3.77665911261126 -2.01664993689369
 1 -1.06790962936294  4.36412356965697 -0.10432239203920
 1 -2.73105259335934  4.75627804330433 -1.24047234093409
 1 -2.16656553695369  0.61037766326633 -0.52290702070207
 1  2.07880692279228  1.05310930013001 -0.45191220632063
 1  2.39939846754676 -2.76849325172517  1.12638101660166
 1  0.84190926222622 -2.60952024312431 -0.00923220832083
 1  2.45573832323232 -3.00209799699970 -0.63129737273727
 1  0.21537742264226  2.34008384808481 -0.77601459295930
 1 -0.17782067806781 -0.72569273907391 -0.18399905490549

