%nproc=4
%Mem=4GB
# td=(NStates=1) CAM-B3LYP/6-31G(d,p) 

TD

0 1
 8 -14.33296917211721 -1.70453883558356  0.53848410371037
 8  14.87790962776278  0.86719430603060  0.25075567146715
 6 -11.76881974157416  0.09035511041104  1.24689950995100
 6 -11.00140710321032  0.27947071807181 -0.06425271247125
 6 -12.24866034663466 -1.30071455585559  1.44172201350135
 6 -12.89880327382738 -1.92446351115112  0.34375852675268
 6 -11.66811210011001 -0.44963244154415 -1.17874336423642
 6  11.08498182878288  1.08582022452245  1.09442972267227
 6 -10.95308678187819  0.70245198399840  2.45473252395240
 6 -13.06234239663966  1.04984063096310  1.15447652445244
 6  12.54786196669667  1.57241666816682  0.86516390259026
 6 -12.46845783168317 -1.39177704550455 -1.00627339603960
 6  13.54414603550355  0.49920759335934  0.47765508440844
 6  10.71177065136514  0.08980957075708 -0.04928134303430
 6 -9.52531129502950 -0.10234308250825 -0.00899089148915
 6  13.10765874347435 -0.01368858825883 -0.86469205550555
 6  11.60735382418242 -0.45855090039004 -0.91120617941794
 6  10.19119600520052  2.35210452245225  0.99284199759976
 6  10.88175900840084  0.47410658605861  2.39366992829283
 6 -11.38541303880388 -0.00588894739474 -2.61773403160316
 6 -8.50223632393239  0.77077205960596 -0.28852247474747
 6  9.22858778807881 -0.36748452425243 -0.07816773297330
 6  11.11498144364436 -1.29001196799680 -2.01142074677468
 6 -7.10093141604160  0.39668691049105 -0.16370846014601
 6  8.82539899629963 -1.58156795429543 -0.10970611161116
 6 -6.66088751025103 -0.99823858075808  0.34021691029103
 6  7.52204069156916 -2.11356422842284 -0.07205826812681
 6 -6.27938771477148  1.50900447494749 -0.41113296989699
 6  7.33438663286329 -3.61866558875888  0.04815503370337
 6  6.38747601660166 -1.31168145684568 -0.15257760016002
 6 -4.84700867456746  1.37249078827883 -0.37924883828383
 6  5.00873171907191 -1.64924276717672 -0.22053983418342
 6 -3.91955332773277  2.37357038323832 -0.52603379237924
 6 -2.50355079317932  2.59239719731973 -0.46259900770077
 6  4.08823278877888 -0.69096960306031 -0.42077159355936
 6  2.70124717331733 -0.96206067756776 -0.43811876447645
 6 -1.92815136533653  3.86890147274727 -0.62461160856086
 6 -1.71579866536654  1.32371511591159 -0.41772778917892
 6  1.78201674667467  0.05996755825583 -0.52197075897590
 6  2.23276659775978 -2.36440922822282  0.06691905980598
 6 -0.32577483638364  1.31225254655466 -0.44149750955096
 6  0.43220805160516  0.09374104190419 -0.40605386618662
 1 -10.97299404090409  1.42394417971797 -0.32189403460346
 1 -12.83758723182318 -1.38697871157116  2.35152304700470
 1 -11.30602827242724 -2.02352154715471  1.46544982758276
 1 -12.83086672027203 -2.97018612591259  0.34895975807581
 1 -10.20181558285829  0.01303297889789  2.55208383228323
 1 -10.78467863446345  1.87819089608961  2.38779350125012
 1 -11.60209780208021  0.46351977097710  3.27521169896990
 1 -13.44230543234323  0.88409441174117  0.19240571087109
 1 -13.80307607820782  0.83155476287629  1.89043304530453
 1 -12.72981166656666  1.99334295609561  1.12226270957096
 1  12.56439380608061  2.37820276977698 -0.10037219401940
 1  12.91749617671767  2.02066610551055  1.69945754695470
 1 -12.98559203780378 -1.89630642714271 -1.83917810851085
 1  13.47065665046505 -0.34720446624662  1.48698903480348
 1 -9.24301666736674 -1.14173903290329  0.11918947894789
 1  13.36675181928193 -1.02065510481048 -1.17535269126913
 1  13.54201061856186  0.74877345524552 -1.54566449024902
 1  9.18473517111711  1.94881493329333  1.13462871027103
 1  10.24173603520352  2.83017561996200  0.09033594909491
 1  10.49063273657366  3.23743871557156  1.80309646064606
 1  11.46969981128113 -0.47123437203720  2.49006542794279
 1  9.86086105670567  0.04702216121612  2.22906603470347
 1  11.14621552065206  0.97537533433343  3.28398334133413
 1 -10.31153365136514  0.19489940064006 -2.87234463016302
 1 -11.74418347464747  0.90099609810981 -2.93755082038204
 1 -11.78022586768677 -0.42889164046405 -3.39754751235124
 1 -14.78316158945895 -2.26380533313331 -0.17435563936394
 1  8.53622269026903  0.51783200840084 -0.02852020582058
 1 -8.57042221112111  1.88986063886389 -0.40155547594759
 1  11.32579831433143 -2.43210470647065 -2.07815066656666
 1  10.04233710011001 -1.26638273997400 -2.42167810181018
 1  11.59811910561056 -0.77862095219522 -3.02930887898790
 1  15.08157733803380  1.28641674147415  1.05594356325633
 1  9.50389016531653 -2.35272835453545  0.17140069756976
 1 -5.45980044104410 -1.13450060076008  0.50638803560356
 1 -7.24372327042704 -1.38424039723972  1.21743399579958
 1 -6.86555279047905 -1.79892834103410 -0.50283849864987
 1 -6.76087837433743  2.45996479157916 -0.79605280698070
 1  6.63266681568157 -3.91490491309131  0.80962065776578
 1  7.01509885508551 -3.89142433023302 -0.90815040624062
 1  8.37785768316832 -4.15574175877588  0.30791775907591
 1  6.71912033893389 -0.30005724512451 -0.32007412931293
 1 -4.52300453205321  0.39939960516052 -0.01574763236324
 1  4.79665326882688 -2.70321957495750 -0.34862252305231
 1 -4.34976102180218  3.40964894669467 -0.57304696019602
 1  4.33679375557556  0.23835117401740 -0.83991320872087
 1 -1.29462922112211  3.85897734443444 -1.53237150905090
 1 -1.21474431283128  4.24859201650165  0.15680372057206
 1 -2.83570305840584  4.47488990449045 -0.57602589628963
 1 -2.21813069346935  0.34100072557256 -0.25367009700970
 1  2.37983702580258  0.91365535473547 -0.65534254935494
 1  2.63265179287929 -2.55265166756676  0.96948532703270
 1  1.02503757505751 -2.60683997509751 -0.00344162926293
 1  2.50055280468047 -3.29737752495250 -0.45513975697570
 1  0.29487537243724  2.27225706540654 -0.45674266576658
 1 -0.17677057305731 -0.70502067186719 -0.14662531753175

