%nproc=4
%Mem=4GB
# td=(NStates=1) CAM-B3LYP/6-31G(d,p) 

TD

0 1
 8 -14.20048592379238 -1.70366874857486  0.64385464076408
 8  14.83697553435344  0.84052163876388  0.18296889278928
 6 -11.68425128472847 -0.10106403150315  1.36356117611761
 6 -10.91870883338334  0.28054082508251  0.04964867766777
 6 -11.92408788938894 -1.56512099649965  1.39409725102510
 6 -12.91723511701170 -2.07383844864486  0.27123127402740
 6 -11.79496478537854 -0.35518299659966 -1.09201469136914
 6  11.19981331193119  1.01669331183118  1.12261254095410
 6 -10.88766023922392  0.22528426722672  2.59830688138814
 6 -12.88834499689969  0.78317396429643  1.45660673747375
 6  12.57785496599660  1.47200662716272  0.79306669286929
 6 -12.59629061496150 -1.37466533433343 -0.97233000170017
 6  13.54725634653465  0.36585425802580  0.40237755665567
 6  10.69647912221222  0.02200279007901  0.07799138423842
 6 -9.44760352425243 -0.20865371357136  0.03450345794579
 6  13.09158713631363 -0.28526574597460 -0.86316190249025
 6  11.53970705950595 -0.59410445574557 -0.90390544934493
 6  10.31963884948495  2.26344565656566  1.34249696309631
 6  11.21821265376538  0.22987216261626  2.44324488578858
 6 -11.42284678217822  0.21789343084308 -2.40035229342934
 6 -8.45064116441644  0.65952093449345 -0.15031865436544
 6  9.22386731603160 -0.34212198799880  0.10304038783878
 6  11.08348829432943 -1.42035500230023 -2.07988759345935
 6 -7.12706402930293  0.45999324112411 -0.25276736603660
 6  8.78021447784779 -1.55963576107611 -0.13726886788679
 6 -6.61802322382238 -0.93734249114912 -0.16612372377238
 6  7.35077356485649 -2.02659553155316  0.05870480818082
 6 -6.14878465446545  1.45709928442844 -0.58306016261626
 6  7.16381957615762 -3.56462018421842  0.19376959515952
 6  6.35650291929193 -1.13141343004300 -0.04638698109811
 6 -4.78837281098110  1.38705224442444 -0.52590350375037
 6  4.92605345124512 -1.56316415931593 -0.04582236243624
 6 -3.98304967736774  2.54637766396640 -0.72253344234423
 6 -2.63644408250825  2.66490444804480 -0.87689043684368
 6  4.02823678917892 -0.57543804990499 -0.15454497089709
 6  2.63511055965597 -0.75405987748775 -0.23704865746575
 6 -1.95169371957196  4.02281686428643 -0.98413756115612
 6 -1.83943102860286  1.52635537993799 -0.84535055145515
 6  1.73108165316532  0.37029859135914 -0.50292885478548
 6  2.10704402550255 -2.20102288958896  0.00278264616462
 6 -0.42750500940094  1.54994631593159 -0.79196255605561
 6  0.34023885468547  0.35935760356036 -0.54233749454946
 1 -11.01507824932493  1.39222100740074 -0.03923576877688
 1 -12.50811428452845 -1.91279129282928  2.32772066676668
 1 -10.97742541214121 -2.01696089108911  1.28780206280628
 1 -12.83489712331233 -3.07778688598860  0.02857771987199
 1 -10.00733613491349 -0.51154947934793  2.69025764966497
 1 -10.67199736633663  1.31138421542154  2.71415613751375
 1 -11.51931952425243  0.06767018601860  3.59499367716772
 1 -13.77947914971497  0.73975997829783  0.77040351065107
 1 -13.52840861146115  0.33930553795380  2.42962696469647
 1 -12.83953263866387  1.88605222702270  1.91488197149715
 1  12.46910427712771  2.10322527202720 -0.07554971177118
 1  13.20617504460446  2.08773281218122  1.60895849704971
 1 -13.22380585918592 -1.84893168966897 -1.89270346104610
 1  13.57925751055106 -0.27905765156516  1.47907824372437
 1 -9.18156052175217 -1.25698055705570  0.14259181918192
 1  13.37322246634663 -1.17743078237824 -0.95632078807881
 1  13.49624604210421  0.41363994189419 -1.61104102790279
 1  9.29452615021502  1.97393744554456  1.67287253465347
 1  10.21958381998200  2.56903950635063  0.36950386588659
 1  10.65195886918692  2.75415038673867  2.16025217621762
 1  11.70543338463846 -0.71057830643064  2.46410283168317
 1  10.16297126772677  0.07210466946695  2.94033716181618
 1  11.55857675677568  0.94121191799180  3.26809175217522
 1 -10.26207870587059  0.30572048274827 -2.88201559725973
 1 -11.81749080538054  1.24794079257926 -2.38690575587559
 1 -12.17634547964797 -0.37656640794079 -3.20338809640964
 1 -14.63454672797280 -2.12203115571557 -0.05376358015802
 1  8.50035910391039  0.45184540974097  0.11279392559256
 1 -8.85544071297130  1.81282293509351 -0.28659397979798
 1  11.50514624912491 -2.53432492849285 -1.99913276477648
 1  9.97554042044204 -1.80546664836484 -2.21676761076108
 1  11.44818411211121 -0.86896998709871 -3.09742569066907
 1  15.34099327962796  1.22972107190719  0.86145411431143
 1  9.54917469376938 -2.36829991169117 -0.03610005250525
 1 -5.52756721772177 -1.00024717541754 -0.46171877507751
 1 -6.66009490759076 -1.28107008020802  0.94058631103110
 1 -7.16858309350935 -1.61697014521452 -0.93174138893889
 1 -6.59584187068707  2.43651244634463 -0.39998320002000
 1  7.01408495749575 -3.62122554515452  1.36494619031903
 1  6.17262460766077 -4.00596578437844 -0.27520711191119
 1  7.90504040144014 -4.11370755535553  0.18280524782478
 1  6.62528095499550 -0.15285252465247 -0.25377749964997
 1 -4.12933516511651  0.53449311451145 -0.37812386998700
 1  4.79950355385539 -2.58984823782378  0.08737107630763
 1 -4.42279832553255  3.50500848264826 -0.84449410491049
 1  4.36009608580858  0.33839117801780 -0.14005322272227
 1 -1.51946170437044  4.17384883158316 -1.79305757765777
 1 -1.21172401080108  4.27676483378338 -0.42235419521952
 1 -2.85757524562456  4.70092250775078 -1.01818011171117
 1 -2.35397427782778  0.63359998549855 -0.65526025602560
 1  2.34136317841784  1.43222721192119 -0.47139415451545
 1  2.19816834453445 -2.62631903430343  1.11855023352335
 1  0.91348641994199 -2.24479377047705  0.04195291019102
 1  2.56081883128313 -2.79616740394039 -0.79091333433343
 1  0.08938482338234  2.43814365406541 -0.96975396689669
 1 -0.36848974497450 -0.47151732153215 -0.21500215521552

