%nproc=4
%Mem=4GB
# td=(NStates=1) CAM-B3LYP/6-31G(d,p) 

TD

0 1
 8 -14.12002787798780 -1.84866324802480  0.47685794109411
 8  14.84526636343634  0.94422200880088  0.33026362226223
 6 -11.78264112371237  0.05472154705471  1.38320314031403
 6 -11.08841580408041  0.38182095309531  0.12017573037304
 6 -11.91902738333833 -1.44768925332533  1.35178301960196
 6 -12.68515190869087 -2.06328739353935  0.19125327622762
 6 -11.71673696259626 -0.15125260356036 -1.21412690259026
 6  11.07841117171717  1.20077171967197  1.02633291299130
 6 -11.06414788798880  0.45577731653165  2.52039909060906
 6 -13.19890605300530  0.73374902180218  1.31741281808181
 6  12.60394757525752  1.63487291379138  0.73774116031603
 6 -12.42546353225323 -1.34908277607761 -1.12586535523552
 6  13.53139476037604  0.44530220282028  0.36700401930193
 6  10.66502597689769  0.12035262506251 -0.03073948884888
 6 -9.61010977487749  0.10136728852885  0.01932193979398
 6  13.05340331793179 -0.22023924332433 -0.81870745704570
 6  11.47244033283328 -0.57092213751375 -0.86276133493349
 6  10.20144703030303  2.36932624462446  0.82356506990699
 6  11.05927676017602  0.81587076247625  2.55850641194119
 6 -11.44174867236724  0.54550619211921 -2.44959721792179
 6 -8.57741384168417  0.97752273467347 -0.05952957545755
 6  9.27222215151515 -0.29094687048705  0.00098018181818
 6  11.10643058855885 -1.52387535433543 -1.96293589828983
 6 -7.18357968086809  0.51652889468947 -0.20812290159016
 6  8.78912536893689 -1.57895769326933 -0.05648078907891
 6 -6.89284070557056 -0.91952070897090 -0.04117122852285
 6  7.50264875237524 -2.10170304230423 -0.06988805110511
 6 -6.26908668466847  1.54888846334633 -0.44632648924892
 6  7.32553574777478 -3.54461818401840  0.13879409760976
 6  6.50909817881788 -1.26532682138214 -0.31457379977998
 6 -4.81907588128813  1.37953149234923 -0.47050796419642
 6  5.07579842574257 -1.67695553845385 -0.24245202540254
 6 -3.97117849024903  2.42218524472447 -0.63502469146915
 6 -2.53574401250125  2.41865982358236 -0.62940568836884
 6  4.02092605810581 -0.75099560566057 -0.33118263466347
 6  2.65933298189819 -1.08137260876088 -0.21568652125213
 6 -1.81173972417242  3.72530711331133 -0.77741688908891
 6 -1.77371445694569  1.27532027642764 -0.46705272167217
 6  1.77700624562456 -0.00597903640364 -0.31524008590859
 6  2.16247956905691 -2.52631541884188  0.03544591249125
 6 -0.33620587948795  1.16588791009101 -0.58379173897390
 6  0.32749758055806  0.01339300710071 -0.28103136393639
 1 -11.14135087658766  1.44068585388539  0.06666482128213
 1 -12.28611208430843 -1.80576058975898  2.41817971267127
 1 -10.82930059965997 -1.90851004600460  1.35866914951495
 1 -12.44506814041404 -3.12263137043704  0.22208707080708
 1 -9.85614101540154  0.14237591319132  2.40148877277728
 1 -10.77054722132213  1.45339841684168  2.79070379227923
 1 -11.31534912721272 -0.07911449244925  3.49222340014001
 1 -13.66062726452645  0.40186618891889  0.35358182848285
 1 -13.94186995759576  0.57616922432243  1.99508351035103
 1 -13.26436512191219  1.76536015781578  1.25143562686269
 1  12.73151051775177  2.19262421192119 -0.28055021182118
 1  12.72143657075707  2.51558559745975  1.50429803100310
 1 -12.78647212581258 -1.92577937443744 -1.94576876757676
 1  13.39136872167217 -0.25405515131513  1.19711004690469
 1 -9.37815018071807 -0.95781064006401 -0.09819225922592
 1  13.54302944704470 -1.13626666596660 -1.06740189618962
 1  13.32792921042104  0.57799637753775 -1.63748367216722
 1  9.20436713431343  2.19096914871487  1.33306855425543
 1  10.08823068466847  2.78795139753975 -0.25850893539354
 1  10.58004167746775  3.22243721542154  1.44215036603660
 1  11.75062790409041 -0.04808205680568  2.74915133653365
 1  10.06315128572857  0.43622108110811  2.86113924202420
 1  11.45990688978898  1.65551334813481  3.23379832283228
 1 -10.35228772677268 -0.03149323862386 -2.84711210691069
 1 -11.52202125842584  1.63266926542654 -2.25669273457346
 1 -12.33593143824382  0.18446969566957 -3.29890764836484
 1 -14.45823909720972 -2.10286923952395 -0.25273347714772
 1  8.52109117711771  0.44985521072107  0.18705135133513
 1 -8.78105327422742  2.09531118391839  0.06829150875087
 1  11.36234196869687 -2.70626212221222 -1.68487133863386
 1  10.07338020442044 -1.45040114181418 -2.07813374737474
 1  11.78231752545255 -1.19264235433543 -2.85356130423042
 1  15.09838901920192  1.08053615341534  1.36921489038904
 1  9.43713348964897 -2.42750583228323 -0.27864430693069
 1 -5.96715117611761 -1.28445559625963 -0.49963256645664
 1 -6.96781567966797 -1.26559853305331  1.18292054445445
 1 -7.77107334253425 -1.44748319651965 -0.67115533033303
 1 -6.59901218771877  2.56653544864486 -0.46770997269727
 1  7.06519006800680 -3.58632205480548  1.38436813251325
 1  6.53316066126613 -4.03423861166117 -0.51741133233323
 1  8.30622051945195 -3.95750193479348 -0.13741677437744
 1  6.83793222012201 -0.13430066946695 -0.58976109800980
 1 -4.30950318191819  0.52135180038004 -0.43568962656266
 1  4.80806440994099 -2.64980423342334  0.06583892309231
 1 -4.26575262096210  3.43469145094509 -0.46830648614861
 1  4.31668174437444  0.29192653155316 -0.56199541694169
 1 -1.14325408360836  3.95140658735874 -1.62435070697070
 1 -1.03076591499150  4.01709886718672  0.10431847204720
 1 -2.42103159125913  4.63299571507151 -0.78559685338534
 1 -2.15964484488449  0.14509113461346 -0.20789551955195
 1  2.19251829392939  0.97966195539554 -0.67455447054705
 1  2.87383591129113 -2.85270167256726  0.87274565306531
 1  1.18220329162916 -2.60836012711271  0.35606432133213
 1  2.53868661806181 -3.01520930813081 -0.99428367136714
 1  0.40358624352435  1.99300914061406 -0.66691368286829
 1 -0.38317121312131 -0.81896206600660 -0.01260191519152

