%nproc=4
%Mem=4GB
# td=(NStates=1) CAM-B3LYP/6-31G(d,p) 

TD

0 1
 8 -14.16045192039204 -1.87471585328533  0.62269252455246
 8  14.83681551835184  0.93266085268527  0.04747534343434
 6 -11.76820968056806  0.15239131403140  1.11507632763276
 6 -10.97627458995900  0.21012378337834 -0.18096438363836
 6 -11.95333081368137 -1.35010949534954  1.46286412771277
 6 -12.78895228872887 -2.05827689248925  0.34637878877888
 6 -11.55659094799480 -0.55167264556456 -1.29762525242524
 6  11.14645797639764  0.89835147764776  1.01720199989999
 6 -11.05656712991299  0.79968170697070  2.41084813551355
 6 -13.14474063646365  0.82404805170517  1.12726380318032
 6  12.51315849634964  1.51885131163116  0.75790317651765
 6 -12.39529051495150 -1.53506137393739 -1.09241200990099
 6  13.46528814971497  0.44914258685869  0.30834815371537
 6  10.66810628492849 -0.04438384858486 -0.06509292419242
 6 -9.60558932283228 -0.11313416161616  0.00479048664866
 6  12.99587756535654 -0.11080830023002 -1.00159574587459
 6  11.52074516331633 -0.45682072737274 -0.97423248204821
 6  10.14547143274327  2.08491780378038  1.13798651205121
 6  11.07318815131513  0.35013418881888  2.41762232353235
 6 -11.14402890039004 -0.01004936343634 -2.69922218041804
 6 -8.54160026032603  0.73008799119912 -0.19580320282028
 6  9.24384931423142 -0.50568834463446  0.12301238503850
 6  11.10846079157916 -1.29869283608361 -2.26635624032403
 6 -7.06957828072807  0.50561780358036 -0.18622071137114
 6  8.84520097649765 -1.75634543204320 -0.11025616661666
 6 -6.60064148564857 -0.94243300020002  0.00629351795180
 6  7.40285877337734 -2.18573144514451  0.02034097179718
 6 -6.16543631963196  1.48033160766077 -0.26149800640064
 6  7.14556775097510 -3.60838456065607  0.26909712791279
 6  6.37275454445445 -1.25288557725773 -0.25504784718472
 6 -4.83094706840684  1.35914945414541 -0.28112902630263
 6  4.97667851375137 -1.53022086498650 -0.09472725292529
 6 -3.95693706610661  2.53430645684568 -0.50129131813181
 6 -2.64165460356036  2.48360631823182 -0.55605835363536
 6  4.01863582908291 -0.59580008610861 -0.19199871627163
 6  2.67211426002600 -0.79264373587359 -0.14828978157816
 6 -1.92257080728073  3.94070865346535 -0.78823797119712
 6 -1.76285337083708  1.48713145754575 -0.45272128852885
 6  1.85518406340634  0.37085864736474 -0.19049761166117
 6  2.04726804790479 -2.13108589588959  0.02118448634863
 6 -0.34368662756276  1.54365568686869 -0.37488084788479
 6  0.43315814661466  0.35782745054505 -0.22249551035104
 1 -11.15565230673067  1.21191297659766 -0.48655050025003
 1 -12.76714018711871 -1.44442445614562  2.36589448414842
 1 -10.98303597319732 -1.95552474747475  1.71043432603260
 1 -12.61025465906591 -3.12790189748975  0.53051791389139
 1 -9.86852225352535  0.51351302690269  2.23105172907291
 1 -11.26109627622762  1.85165824282428  2.52367708960896
 1 -11.60968856115612  0.02564598359836  3.34454863266327
 1 -13.64039524132413  0.54173017531753  0.09843631393139
 1 -13.72237800840084  0.41435304270427  2.05205920792079
 1 -13.07448613401340  1.96958057985799  1.29433991729173
 1  12.67387475417542  2.46918186768677  0.03492133533353
 1  12.86007043414341  1.94795883478348  1.64460206140614
 1 -13.05138861746175 -2.01778857535754 -1.73673786448645
 1  13.53037262206221 -0.40414015981598  1.11923225912591
 1 -9.17357972367237 -1.14948980798080  0.26564412441244
 1  13.65217036113611 -0.93766680598060 -1.13011816781678
 1  13.25917233473347  0.51975055295530 -1.86980690449045
 1  9.21838853645365  1.80994104590459  1.66471171857186
 1  9.75346720832083  2.56624922732273  0.09014593009301
 1  10.69943361666166  2.95167013871387  1.80686683768377
 1  11.90568340964096 -0.38597584618462  2.68408482988299
 1  10.18923389398940 -0.06747928892889  2.80103323142314
 1  11.19468036713671  1.06112390919092  3.19121406440644
 1 -10.02787528552855 -0.21108119741974 -2.79208660436044
 1 -11.32873192949295  1.18586458495850 -2.86809387468747
 1 -11.65152299739974 -0.83316206750675 -3.31560931853185
 1 -14.75097837113711 -1.99561851445145 -0.07855605940594
 1  8.66446551455146  0.28084831003100  0.61300394659466
 1 -8.71995716461646  1.77848950175017 -0.44083940434043
 1  11.44077981248125 -2.28407990399040 -2.00039289078908
 1  9.87362022842284 -1.36945304700470 -2.41283721772177
 1  11.47168646234623 -0.95918900900090 -3.17998394649465
 1  15.19046822712271  1.24741284108411  0.84054202310231
 1  9.52753252955296 -2.58878195989599 -0.29205564806481
 1 -5.62406686768677 -1.01952910361036 -0.15208781198120
 1 -6.89217811591159 -1.63241521472147  0.97600985338534
 1 -7.11712794799480 -1.54223267146715 -0.81072928772877
 1 -6.74093638013801  2.40108890399040 -0.49353255495550
 1  6.72424597359736 -3.83843726632663  1.30519021472147
 1  6.29848719391939 -3.84272946074607 -0.52026161736174
 1  8.11957185458546 -4.27589377397740  0.07756472377238
 1  6.77038546544654 -0.36005324472447 -0.44670679257926
 1 -4.17496972857286  0.46074573977398 -0.29002506010601
 1  4.72872647614761 -2.55970522352235  0.18047038623862
 1 -4.65386143184318  3.40347832963296 -0.59437909340934
 1  4.68353843004300  0.31066840574057 -0.34105332273227
 1 -1.34805456365637  4.10105155185519 -1.68847711961196
 1 -1.27413025142514  4.27927508480848  0.17689572977298
 1 -2.68793828192819  4.72800521602160 -0.55959425312531
 1 -2.27277615801580  0.60244687018702 -0.44167889788979
 1  2.18456749884989  1.45218920812081 -0.40481749684968
 1  2.24417294499450 -2.58987538993899  1.07650602910291
 1  0.87413248454846 -2.04159345044504  0.04453316821682
 1  2.27553030243024 -2.91137892509251 -0.81120536353635
 1  0.07415330023002  2.58483832353235 -0.39123611511151
 1 -0.07024992099210 -0.53824399419942 -0.06324697969797

