%nproc=4
%Mem=4GB
# td=(NStates=1) CAM-B3LYP/6-31G(d,p) 

TD

0 1
 8 -14.05828170337034 -1.97424580628063  0.65271552685269
 8  14.79943177997800  1.12144973157316 -0.03238264236424
 6 -11.77356021562156  0.16712278717872  1.30632545254525
 6 -10.95238220072007  0.29499227022702  0.02047576037604
 6 -11.84644012461246 -1.36835131953195  1.57867570887089
 6 -12.59041243474347 -2.12159322412241  0.49176332723272
 6 -11.57525281418142 -0.38859633793379 -1.18064355425543
 6  11.19061239183918  0.92118376087609  1.23049332903290
 6 -11.02893436663666  0.72892463126313  2.46468351905190
 6 -13.22252841524152  0.74018966586659  1.12188326512651
 6  12.60555773627363  1.38402782928293  0.95279266546655
 6 -12.28359934583458 -1.60461832963296 -0.95305807450745
 6  13.52698431933193  0.43893156575658  0.30899821872187
 6  10.65105457975798 -0.07324673487349  0.13126671177118
 6 -9.49277804170417 -0.09399224742474  0.15825583318332
 6  12.96780475807581 -0.12030925032503 -0.96294188048805
 6  11.48573166196620 -0.43081812711271 -0.92548760756076
 6  10.16623350895090  2.10699001100110  1.43798651205121
 6  11.14104493699370  0.04903407880788  2.60314087538754
 6 -11.30603510101010 -0.12930128862886 -2.63516577477748
 6 -8.43581968226823  0.77642262466247 -0.18789241174117
 6  9.28378330763076 -0.43348112391239  0.17774785858586
 6  11.06995694119412 -1.43039600640064 -1.98436804150415
 6 -7.01648297119712  0.52787002880288 -0.29469155845585
 6  8.75308176457646 -1.68701849934993 -0.00989613061306
 6 -6.74548597009701 -0.88521727862786  0.04091698029803
 6  7.41253974147415 -2.06808968096810 -0.08179924222422
 6 -6.13962373837384  1.51036461096110 -0.39056091269127
 6  7.20520371457146 -3.67014073627363 -0.13314309610961
 6  6.35539280828083 -1.20973126182618 -0.13180552295230
 6 -4.74695866956696  1.46281982118212 -0.41895280868087
 6  4.94489533543354 -1.54797264016402 -0.28145592579258
 6 -3.98846021842184  2.59425245144514 -0.67764895389539
 6 -2.58055849394939  2.70793875147515 -0.76499924772477
 6  4.01868583408341 -0.53339384548455 -0.33666318271827
 6  2.62983003160316 -0.78561303280328 -0.34595954855486
 6 -1.97142569276928  4.00074465706571 -1.13006215361536
 6 -1.86406349184918  1.52821556595660 -0.52915893229323
 6  1.69781832683268  0.30963252475248 -0.34760332223222
 6  2.00304362546255 -2.18832161946195 -0.10144777687769
 6 -0.40169242814281  1.47235855715572 -0.55191855165517
 6  0.31635646644664  0.29405107290729 -0.35564882568257
 1 -10.96585332683268  1.49715150045005 -0.04699654485449
 1 -12.34203767686768 -1.67094710841084  2.44412230693069
 1 -10.98394606420642 -1.66730592559256  1.97937121972197
 1 -12.28294192779278 -3.17173628092809  0.61958682078208
 1 -10.06155155645565  0.32322399799980  2.65405402930293
 1 -10.83119328592859  1.77959103610361  2.26406112801280
 1 -11.51226881918192  0.56230964996500  3.36498067586759
 1 -13.92209341114111  0.57476347864787  0.14835130543054
 1 -13.89641541214121  0.67628923632363  1.98169217121712
 1 -13.23082176757676  1.73236685848585  1.04695517881788
 1  12.49250661736174  2.14368931843184  0.27033487668767
 1  13.03363779087909  1.94240827972797  1.84185178637864
 1 -12.83300677927793 -2.11868866536654 -1.77869205990599
 1  13.75954553935394 -0.38952869866987  1.01127146304631
 1 -9.18839120482048 -1.13663852285229  0.14932249224922
 1  13.61128627272727 -1.04408744804480 -1.52688784478448
 1  12.98200461796180  0.79704828272827 -1.59008893269327
 1  9.07074377197720  1.76824687648765  1.42302755015502
 1  9.99867172877288  2.87743034543454  0.50973788928893
 1  10.57877155045504  2.78342331403140  2.34912106310631
 1  11.82464530583058 -0.68940618921892  2.63554997639764
 1  10.11722669326933 -0.47432997399740  2.96180930903090
 1  11.51572247134713  0.72272006880688  3.39821476447645
 1 -10.07280977897790 -0.14648473777378 -2.88079547524752
 1 -11.74453350965097  0.88329432793279 -2.97550461576158
 1 -11.68472631773177 -0.59456820812081 -3.37240499809981
 1 -14.41621489478948 -2.42215116771677 -0.12209041284128
 1  8.53007207520752  0.30949117431743  0.45448809500950
 1 -8.85550071897190  1.83108476127613 -0.34317963836384
 1  11.39514524902490 -2.35017651365137 -1.88246109760976
 1  9.88230109650965 -1.52918902060206 -1.82240817481748
 1  11.47159645334533 -1.14738782888289 -2.86109205730573
 1  15.33419259955996  1.02536063586359  0.80957892679268
 1  9.38016779307931 -2.40712379407941  0.12711626912691
 1 -5.80482494349435 -0.99787693839384 -0.22330493369337
 1 -6.86270516861686 -1.26414838803880  1.04281653405341
 1 -7.33336957215722 -1.67349579777978 -0.49613782858286
 1 -6.65529781628163  2.64087288238824 -0.15645884758476
 1  6.95057860686069 -3.96729015161516  0.85302499819982
 1  6.36223356855686 -3.69132432023202 -0.92929252045204
 1  8.09613951135114 -4.26204238883888 -0.45613864656466
 1  6.45933436033603 -0.02285952535254  0.17087496559656
 1 -4.42893512511251  0.34905457065707 -0.22608866646665
 1  4.62543614711471 -2.56462571557156 -0.40961862266227
 1 -4.60288633433343  3.47814579637964 -0.87223687918792
 1  4.40443051925193  0.60206754565457 -0.42710192759276
 1 -1.37954771297130  3.74294574127413 -1.80133840574057
 1 -1.12430526892689  4.59689684698470 -0.37796975677568
 1 -2.95747523562356  4.66391880738074 -1.10183847754775
 1 -2.30236911731173  0.54988161366137 -0.30461519151915
 1  2.29558860096010  1.32790677987799 -0.61486850195020
 1  2.19634816251625 -2.46757315971597  0.94810318881888
 1  0.79376444774477 -2.17189648074807 -0.35205649074907
 1  2.42107485688569 -3.01328911611161 -0.70914515751575
 1  0.09396528142814  2.48009784948495 -0.89560655215522
 1 -0.45616851285128 -0.63155332513251 -0.12447310231023

