%nproc=4
%Mem=4GB
# td=(NStates=1) CAM-B3LYP/6-31G(d,p) 

TD

0 1
 8 -14.24949082428243 -1.94436281798180  0.58047830313031
 8  14.78620045684568  0.89556714331433  0.41138173407341
 6 -11.72604546414641  0.03460953585359  1.36165098509851
 6 -10.92637960046005  0.19286205720572  0.07164087688769
 6 -12.16629210981098 -1.44625911031103  1.45633347464746
 6 -12.84428782228223 -2.07609867466747  0.30579473037304
 6 -11.61845713461346 -0.34599207750775 -1.09373486338634
 6  11.13252658325833  1.04791643414341  1.17933821352135
 6 -10.90807228042804  0.45480721952195  2.53340039073907
 6 -12.91771793419342  0.94551019791979  1.55254633143314
 6  12.55146232673267  1.53002242874287  0.86364375057506
 6 -12.48269925582558 -1.38110597839784 -0.96110887958796
 6  13.43999562046205  0.46546421902190  0.47912523142314
 6  10.63480295459546  0.06934752455246  0.14723830893089
 6 -9.40637940184018 -0.01870471867187  0.12149215681568
 6  12.97783576117612 -0.28480569997000 -0.67496308260826
 6  11.48940202900290 -0.50872591789179 -0.79403446224622
 6  10.14379126472647  2.27809712171217  1.08784149754976
 6  10.95318615111511  0.22521169656966  2.43190375167517
 6 -11.39394389188919  0.26669831133113 -2.43256551475148
 6 -8.43390949124912  0.82897788018802 -0.18752237473747
 6  9.27197212651265 -0.37077485328533  0.05396548034803
 6  11.16642658815882 -1.28938190499050 -2.02220182488249
 6 -6.98564988788879  0.43567080888089 -0.16949903920392
 6  8.83794025042504 -1.69511930943094 -0.12149729072907
 6 -6.56981840334033 -1.03281203810381 -0.03073018441844
 6  7.48860734823482 -2.02417528952895 -0.17983904620462
 6 -6.17074685068507  1.54566814131413 -0.31763361996200
 6  7.17214040824082 -3.56317003920392  0.07897811601160
 6  6.34334160316032 -1.26042633133313 -0.29307164956496
 6 -4.77410138383838  1.37529106830683 -0.40999191259126
 6  5.02013285918592 -1.58631647454745 -0.18165594579458
 6 -3.97806917931793  2.41551457765777 -0.69090027902790
 6 -2.56517695579558  2.48460641824182 -0.84877762556256
 6  4.04157812331233 -0.57903840994099 -0.31742125852585
 6  2.66466351495150 -0.74272874437444 -0.33761871447145
 6 -1.92313086328633  3.90321490409041 -1.21396054345435
 6 -1.80531761726173  1.42530527492749 -0.66765278167817
 6  1.73595214021402  0.25100666216622 -0.61808036993699
 6  2.15506882798280 -2.17342012931293 -0.07852548464846
 6 -0.35583784268427  1.40993231453145 -0.76551991179118
 6  0.37371220202020  0.18611027882788 -0.46679994079408
 1 -11.12864960646065  1.41036282158216  0.00245840064006
 1 -12.73546701980198 -1.35419543324332  2.48501639633963
 1 -11.08493616321632 -1.87694688968897  1.87306058865887
 1 -12.75146878047805 -3.21858096539654  0.15936079817982
 1 -9.91768717001700 -0.00189851425142  2.45362398629863
 1 -10.87540770737074  1.64434751175118  2.66854157605761
 1 -11.42495008730873 -0.06728330933093  3.32510668846885
 1 -13.55381658345834  0.30889689198920  0.66654312461246
 1 -13.44863063366337  0.68443005040504  2.43978798079808
 1 -12.77055574097410  2.01142476427643  1.22338282158216
 1  12.43499086578658  2.29304425392539 -0.01034319111911
 1  12.89224365146515  2.12523656255626  1.60718832003200
 1 -12.94634811341134 -1.80858765526553 -1.94290848154815
 1  13.43379296409641 -0.30782052785279  1.31223155905591
 1 -9.17407977367737 -1.14129898889889  0.30552811281128
 1  13.40790593469347 -1.17456049534953 -0.94744990099010
 1  13.20811722922292  0.34424300220022 -1.51963188698870
 1  9.13847054465447  2.23729378117812  1.45567081448145
 1  10.09284114571457  2.39221182358236  0.00863777927793
 1  10.55542921622162  3.13633860556056  1.79358550955095
 1  11.61389423072307 -0.59642689128913  2.50749717111711
 1  10.02801777237724 -0.32688522952295  2.60675380348035
 1  11.16718761786179  0.83140093689369  3.37306224922492
 1 -10.28033053105310  0.20783069376938 -2.68106550225023
 1 -11.89692874917492  1.33323932243224 -2.65748281358136
 1 -11.75754359945994 -0.35103385468547 -3.25535329292929
 1 -14.58174144744475 -1.83198215081508 -0.52366056985699
 1  8.67123619161916  0.35728595379538  0.49782242844284
 1 -8.54070923982398  1.86513816661666 -0.35441076147615
 1  11.33085882038204 -2.44471596759676 -1.70090294179418
 1  10.03926679307931 -1.28370447214722 -2.26374230823082
 1  11.76263555725573 -0.97493058315832 -2.90443639173917
 1  14.91115029532953  1.39347744754475  1.11947991689169
 1  9.55419519581958 -2.48664174587459 -0.22086852935293
 1 -5.48830329132913 -1.11699885058506  0.15871326812681
 1 -7.03924282238224 -1.30653262646265  0.94596684908491
 1 -7.04438067326733 -1.58536698489849 -0.75633384818482
 1 -6.58718100460046  2.40776957205721 -0.28748194989499
 1  6.70918446744674 -3.98132155475548  1.01484117981798
 1  6.44230157535754 -3.99158434623462 -0.74750434163416
 1  8.03901379877988 -4.08419460406041 -0.17919095179518
 1  6.59889831673167 -0.23551079047905 -0.38303042494249
 1 -4.33516574817482  0.44300396559656 -0.33600965856586
 1  4.51031463496350 -2.49908916191619 -0.07142480328033
 1 -4.53190923662366  3.40539852165217 -0.71972162766277
 1  4.28067814401440  0.58371571047105 -0.39030824822482
 1 -1.29583934213421  3.96072751945194 -2.18546681858186
 1 -1.27677051545154  4.12096925422542 -0.35940790059006
 1 -2.61011049914992  4.80621303680368 -1.31054934863486
 1 -2.29949883028303  0.37587421292129 -0.56742147214721
 1  2.11360040214021  1.35656964616462 -0.62154917001700
 1  2.50609913761376 -2.56742314471447  0.97622600110011
 1  1.01554662596260 -2.20824011511151 -0.20125141024102
 1  2.48782153155316 -2.91985977317732 -0.83267751075108
 1  0.16604248914892  2.34297413711371 -1.09929692119212
 1 -0.41222411841184 -0.69601977177718 -0.28615927092709

