%nproc=4
%Mem=4GB
# td=(NStates=1) CAM-B3LYP/6-31G(d,p) 

TD

0 1
 8 -14.22320819601960 -1.78182656435644  0.64824507980798
 8  14.91669350615062  0.94706229282928  0.23714431033103
 6 -11.94555741534153  0.13637971287129  1.25080990099010
 6 -11.09793675617562  0.34913768476848 -0.06727301450145
 6 -12.14587006760676 -1.31013549794980  1.58132597389739
 6 -12.89816320982098 -2.03293435823582  0.44328847974797
 6 -11.69015430433043 -0.43957143544354 -1.20751624152415
 6  11.14187751835183  1.03647529002900  1.12583286298630
 6 -11.11266273947395  0.72227396619662  2.49816686738674
 6 -13.26870303270327  0.83840948784878  1.10849192599260
 6  12.62226940744074  1.46688611511151  0.92760014621462
 6 -12.38906989288929 -1.66609447724772 -0.94291706040604
 6  13.60778239913991  0.34882255485549  0.54648196709671
 6  10.69377885218522  0.06746733653365  0.02764634973497
 6 -9.65572433633363 -0.04246709490949  0.05841584918492
 6  13.08165614321432 -0.17866508590859 -0.81834742104210
 6  11.72434552335234 -0.53410845614561 -0.90877593639364
 6  10.25741262686269  2.20174948694870  1.17774048744875
 6  10.95026585908591  0.24930410581058  2.54832539383938
 6 -11.39159365686569  0.01632327382738 -2.63611586978698
 6 -8.65629172947295  0.82021700410041 -0.20638426092609
 6  9.38960388968897 -0.36420419621962  0.08931901570157
 6  11.33957390289029 -1.38454142094209 -2.12253185788579
 6 -7.17070839373937  0.49321656345635 -0.12255434473447
 6  8.83561001740174 -1.53783358085809 -0.23457859885989
 6 -6.78900032153215 -0.91054981188119  0.11437432603260
 6  7.52563105060506 -2.05928880088009 -0.38456951925193
 6 -6.24856463246325  1.41714528902890 -0.54808666526653
 6  7.22871606580658 -3.54637836003600 -0.10811059285929
 6  6.38809607860786 -1.19397968666867 -0.36949929232923
 6 -4.86683065676568  1.37745128432843 -0.31832274567457
 6  5.06824767066707 -1.51341918481848 -0.26474425462546
 6 -4.00808218061806  2.44933795999600 -0.54566575557556
 6 -2.63136357445745  2.49728768636864 -0.61476422422242
 6  4.08547251275128 -0.61116162226223 -0.39501901830183
 6  2.73173022162216 -0.80777524902490 -0.18903385598560
 6 -1.85849439963996  3.86146072867287 -0.94915406280628
 6 -1.73064014951495  1.37753049744974 -0.47697371377138
 6  1.84183272827283  0.27825938743874 -0.38598716061606
 6  2.18137145824582 -2.28534132143214  0.04165653355336
 6 -0.35703796269627  1.38085940724072 -0.47747110691069
 6  0.45487031783178  0.26871853965397 -0.27401066186619
 1 -11.05675241674167  1.35862764806481 -0.25535738093809
 1 -12.70977445054505 -1.66283629732973  2.51275917061706
 1 -11.06969463906391 -1.83084227922792  1.56127941054105
 1 -12.76549018261826 -3.13675278257826  0.57250211231123
 1 -10.12229763106311  0.32413408900890  2.65027365126513
 1 -11.13811397799780  1.90700377737774  2.36728145004501
 1 -11.64117170947095  0.36545996499650  3.37873205100510
 1 -13.83970517231723  0.48046404870487  0.34168063836384
 1 -13.88871464206421  0.72422402980298  2.15700970297030
 1 -13.16166485188519  1.96269989178918  1.05583606690669
 1  12.72666003270327  2.23312826232623  0.03377122032203
 1  13.03941836893689  2.01507554645465  1.84872247344734
 1 -12.62630610921092 -2.34731152765276 -1.80220441114111
 1  13.63152273707371 -0.36490623642364  1.37800813671367
 1 -9.57774013971397 -1.10768562756276  0.29529708970897
 1  13.68061320542054 -1.03158619791979 -1.16457161316132
 1  13.41123754125413  0.66608518641864 -1.43177310111011
 1  9.17137383498350  2.02348240004000  1.60436568396840
 1  10.31327318891889  2.72990559295930  0.20119703520352
 1  10.67295096839684  2.99135410711071  1.91814796579658
 1  11.65710855215522 -0.49217646624662  2.56044246564657
 1  10.06920189078908 -0.18111065206521  2.56329945804580
 1  11.12664356345635  1.07031482828283  3.33086802980298
 1 -10.14744724272427  0.12499240994099 -2.72324972067207
 1 -12.05357441374137  0.86673267176718 -2.88964602990299
 1 -11.72498034313431 -0.77842659395940 -3.46401415901590
 1 -14.74057733103310 -2.23230218281828 -0.05806401020102
 1  8.56625569356936  0.39100932613261  0.23218586478648
 1 -8.98149331823183  1.97754940774077 -0.37165248564856
 1  11.61340707520752 -2.45836733273327 -1.77850070157016
 1  10.24120698709871 -1.18003410511051 -1.99085501950195
 1  11.85775506920692 -1.09708279837984 -2.92541848994900
 1  15.29677885818582  1.33441154095410  1.08012598149815
 1  9.63567334363436 -2.49053213491349 -0.41541798429843
 1 -5.70029449044904 -1.16975412611261 -0.06039864306431
 1 -7.11226012411241 -1.07175914911491  0.98252050445045
 1 -7.45605184038404 -1.62875132333233 -0.49943815861586
 1 -6.73585587208721  2.28777757285729 -1.09254245594559
 1  6.93558710771077 -3.82750617321732  0.98888858455846
 1  6.59415676087609 -4.00960614841484 -0.76454604580458
 1  8.20417031443144 -4.04804098869887 -0.48390142284228
 1  6.54095252215222 -0.14868210761076 -0.69556167806781
 1 -4.27718995059506  0.46098576377638  0.06835077747775
 1  4.73581718521852 -2.62703195619562 -0.29196685748575
 1 -4.58422446814681  3.17683566536654 -0.96410606610661
 1  4.23635371157116  0.40199753865387 -0.41809102650265
 1 -1.18927868606861  3.76434788148815 -1.77992626452645
 1 -1.24598743714371  4.11122828012801 -0.13932589238924
 1 -2.50208969706971  4.70675309080908 -1.25020331403140
 1 -2.05182406280628  0.32113873937394 -0.02953768376838
 1  2.48933797589759  1.23333732293229 -0.52782979807981
 1  2.26766529422942 -2.51271767416742  1.14778315681568
 1  1.17172224352435 -2.28294758585859 -0.20090137523752
 1  2.57796054545455 -3.15990377757776 -0.54464870787079
 1  0.29640552545255  2.26236607630763 -0.72512950445044
 1  0.04464156815682 -0.80136030583058 -0.24467512251225

