%nproc=4
%Mem=4GB
# td=(NStates=1) CAM-B3LYP/6-31G(d,p) 

TD

0 1
 8 -14.14112998819882 -1.81486986868687  0.64914516981698
 8  14.83393523032303  0.69645723232323  0.01150174607461
 6 -11.70483334293429  0.08360443534353  1.16843166316632
 6 -11.10518748124812  0.29866263726373 -0.26488277547755
 6 -11.99011449204921 -1.45910039443944  1.43530137143714
 6 -12.83583697719772 -2.13307437223722  0.46799094999500
 6 -11.70523581248125 -0.52958043634363 -1.28370386028603
 6  11.29563289388939  0.92003364586459  1.07443772347235
 6 -10.90186165936594  0.66466820562056  2.32380943164316
 6 -13.10919708210821  0.87295294219422  1.13034411121112
 6  12.73098027852785  1.43558298479848  0.96312369856986
 6 -12.41845283118312 -1.58987685548555 -1.04992776147615
 6  13.53039466036604  0.36018369096910  0.34929224812481
 6  10.75321479577958  0.03007359715972 -0.06399281418142
 6 -9.57614637853785 -0.15514836303630 -0.13213320572057
 6  13.08672665026503 -0.08188540794079 -1.02137772407241
 6  11.58180126892689 -0.33669871517152 -1.10378543734373
 6  10.30986787238724  2.17150646264626  1.22817553095310
 6  11.13764459695970  0.09145832123212  2.35593615491549
 6 -11.37603210071007 -0.04904326282628 -2.61956421462146
 6 -8.60694679497950  0.81796677907791 -0.24227785028503
 6  9.27902283158316 -0.40142791859186 -0.05417533373337
 6  11.15945589108911 -1.18333129992999 -2.29413901860186
 6 -7.22032335523552  0.53466070787079 -0.20405249454945
 6  8.82316877327733 -1.63832362986299 -0.09974511551155
 6 -6.71447286878688 -0.93928268516852 -0.07420453185319
 6  7.44416290379038 -2.04316718871887  0.00018895659566
 6 -6.29981975797580  1.56187976247625 -0.38315017161716
 6  7.22684587878788 -3.53430715291529  0.07814803300330
 6  6.37925519451945 -1.11812210091009 -0.15719806220622
 6 -4.85711968566857  1.41527506670667 -0.50132104550455
 6  5.04090493639364 -1.47951579447945 -0.04367214741474
 6 -4.02304367676768  2.55484851105111 -0.59811100010001
 6 -2.61139157725773  2.52564052165217 -0.54388713651365
 6  4.00688465396540 -0.48826933303330 -0.03354287068707
 6  2.56283333193319 -0.77214168566857  0.07547259465947
 6 -1.84237278747875  3.91535611821182 -0.86401554895490
 6 -1.90345743124312  1.43249599399940 -0.40218623502350
 6  1.74893343834383  0.26135769726973 -0.23413197509751
 6  2.12891621272127 -2.12462524982498  0.45522789068907
 6 -0.49598185708571  1.45343666496650 -0.39043240304030
 6  0.33375820662066  0.33127479527953 -0.24509777057706
 1 -11.05123186468647  1.38033981928193 -0.58623046824683
 1 -12.37348082118212 -1.30470048374837  2.52473036773677
 1 -10.97044471407141 -1.92791198619862  1.48749203180318
 1 -12.73978761236124 -3.21092019931993  0.62793765586559
 1 -9.95809121042104 -0.07702602700270  2.47124574847485
 1 -10.54063423002300  1.64741781878188  2.19322404430443
 1 -11.34208180048005  0.42983640264026  3.41485566336634
 1 -13.79677087888789  0.87262326462646  0.25244171447145
 1 -13.80587635823582  0.60917252465246  2.02751675367537
 1 -12.70302898829883  1.90418404020402  1.17758824212421
 1  12.89592695939594  2.14786973647365  0.28169601280128
 1  13.01055548264826  1.69150318921892  2.00454805600560
 1 -12.75735921452145 -2.22062885938594 -1.88638282898290
 1  13.60564014881488 -0.59973971977198  1.05838617451745
 1 -9.17921028672867 -1.28787364636464 -0.27042948294829
 1  13.63674881898190 -1.07735077437744 -1.42209736573657
 1  13.17837425492549  0.68517709560956 -1.76400632443244
 1  9.11625832343234  1.96413646544654  1.50167541494149
 1  10.32665452705271  2.53590619301930  0.14219113461346
 1  10.81127480078008  2.93340831253125  1.95460161116112
 1  11.70159300060006 -0.77519476807681  2.29310573197320
 1  10.18131310191019 -0.28567110811081  2.30808393649365
 1  11.42857375647565  0.65259305610561  3.15778072107211
 1 -10.30849334733473  0.08544845554555 -2.83204059975998
 1 -11.95443449974998  0.94949094759476 -2.94808187348735
 1 -11.84062190729073 -0.84998374967497 -3.37129488708871
 1 -14.65576885018502 -2.24504345694569  0.04125592179218
 1  8.53317238523852  0.23759398459846  0.36249889608961
 1 -8.73195836473647  1.78264991779178 -0.37987330773077
 1  11.57997373187319 -2.30848234423442 -2.23381623312331
 1  10.04979784618462 -1.08752485418542 -2.45943187718772
 1  11.41522081578158 -0.81909499959996 -3.30576652475247
 1  15.23528270857086  1.04179227902790  0.81710967986799
 1  9.38279805610561 -2.66547962966297 -0.26843328582858
 1 -5.57190165116512 -0.88197534823482  0.15843324012401
 1 -7.14684358245825 -1.45774774797480  0.89998225062506
 1 -7.15810204540454 -1.64455290349035 -0.73518173297330
 1 -6.81524381088109  2.45756455155516 -0.38832203390339
 1  6.89378292729273 -3.66122954555455  1.23806350205021
 1  6.50248759395940 -3.85481066886689 -0.54682427362736
 1  7.96165606300630 -4.21902808740874  0.02546951425143
 1  6.78482690959096 -0.06014325372537 -0.44068619051905
 1 -4.37924015561556  0.52573223842384 -0.30830688828883
 1  4.75798940244024 -2.57898715171517  0.41356369556956
 1 -4.43470951665166  3.49369735153515 -0.56057571307131
 1  4.41453152935294  0.44363170207021 -0.41675089248925
 1 -1.54333409160916  3.94026547324733 -1.90106837873787
 1 -0.95172801120112  3.94548170547055 -0.28343030283028
 1 -2.51236072417242  4.86287870337034 -0.59438773247325
 1 -2.49400828122812  0.54755138063806 -0.35806053605361
 1  2.10774981708171  1.26051004020402 -0.37138415351535
 1  2.88976750445045 -2.87045344774477  1.19909828832883
 1  1.00315538683868 -2.15581487258726  1.13448216311631
 1  1.89537228662866 -2.84518230543054 -0.60695493849385
 1  0.13532941784178  2.38573841354135 -0.65141213271327
 1 -0.20040293629363 -0.68167833763376  0.05773511851185

