%nproc=4
%Mem=4GB
# td=(NStates=1) CAM-B3LYP/6-31G(d,p) 

TD

0 1
 8 -13.98431430663066 -2.09190757245725  0.58885914121412
 8  14.76886872367237  0.99839742634263  0.30597119301930
 6 -11.67869072867287  0.11938801370137  1.36397121712171
 6 -10.93662062456246  0.40727349834984  0.14699841264126
 6 -11.84209969056906 -1.50451493589359  1.54640248154815
 6 -12.58943233673367 -2.10241130593059  0.36386053695370
 6 -11.52027731663166 -0.28236571487149 -1.14612010191019
 6  11.05829916051605  1.02729437193719  1.16158643834383
 6 -11.01424289748975  0.55700743954395  2.56343339403940
 6 -13.15617177957796  0.71788743564356  1.34000507730773
 6  12.56045322582258  1.47893732023202  1.04542192839284
 6 -12.27015800170017 -1.41333920172017 -1.05070783948395
 6  13.45342696359636  0.39398707130713  0.46959427832783
 6  10.69358883318332 -0.03903331353135 -0.00471688658866
 6 -9.49604836873687  0.05422257405741  0.29848985658566
 6  13.08680665826583 -0.09153637303730 -0.88676426272627
 6  11.57551063986399 -0.49808485378538 -0.83174823362336
 6  10.15854273987399  2.38240755275528  1.09660237363736
 6  10.80576140864086  0.34354352975298  2.46564712601260
 6 -11.44538903640364  0.37188883038304 -2.45914817301730
 6 -8.46377247754775  0.84374935733573 -0.13286690919092
 6  9.17101203050305 -0.36165394119412 -0.00485040124012
 6  11.16677662316232 -1.35291825862586 -1.99707931263126
 6 -7.13910523342334  0.45966320812081 -0.19463155245525
 6  8.73192964936494 -1.66205600310031 -0.10681582258226
 6 -6.69405082658266 -0.92704146104610 -0.08021513291329
 6  7.33971245874587 -2.12493536553655 -0.09353041534153
 6 -6.17054683068307  1.46249982448245 -0.38325018161816
 6  7.22464565876588 -3.59857357955796  0.06939715791579
 6  6.32352962196220 -1.32841313001300 -0.15146748914891
 6 -4.81385535923592  1.49046258545855 -0.45233614701470
 6  4.90043088898890 -1.68831667456746 -0.19726750695070
 6 -3.95087646004600  2.49108213441344 -0.80488167716772
 6 -2.51919235733573  2.59456741434143 -0.89866261406141
 6  4.00157412291229 -0.66328683478348 -0.23481299769977
 6  2.60555760436044 -0.91232570407041 -0.27663261586159
 6 -1.92390094029403  3.86967154975498 -1.06024517191719
 6 -1.73089017451745  1.43396614101410 -0.66833284968497
 6  1.73832237723772  0.19764132563256 -0.38257681958196
 6  2.01844516561656 -2.33378616591659 -0.18007563966397
 6 -0.38319057795780  1.31725304660466 -0.71136449624963
 6  0.33602843364336  0.28050971877188 -0.54778803960396
 1 -10.85548228972897  1.47926971227123 -0.09678152335234
 1 -12.35605907900790 -1.92569258295830  2.42535042974297
 1 -10.83885155475548 -2.01546074107411  1.56226950955095
 1 -12.24840847444744 -3.21527063436344  0.18570343244324
 1 -10.11440684198420 -0.22246057045705  2.76332495639564
 1 -10.50773093969397  1.53533661066107  2.38679340124012
 1 -11.79263685598560  0.67863128212821  3.32154633243324
 1 -13.85385658745875  0.55685168746875  0.33376984728473
 1 -13.98382415301530  0.75155676307631  2.24018802080208
 1 -12.90760944634463  1.82851647344734  1.29740022332233
 1  12.61840920762076  2.28352330183018  0.29205704890489
 1  12.89582400950095  1.88269230813081  1.96688428962896
 1 -12.80794427302730 -1.92266906340634 -1.79929412011201
 1  13.67200678547855 -0.56369611541154  1.17495783168317
 1 -9.27099946564656 -0.93643850285028  0.62326988698870
 1  13.81408655275528 -0.89556259555956 -1.21540669666967
 1  13.08829524702470  0.82436101400140 -1.58627855165516
 1  9.08466516411641  2.23918397019702  1.41115636303630
 1  10.29639150075008  2.71113371577158  0.04099101460146
 1  10.60346401970197  3.08160313201320  1.57328347934793
 1  11.32999584088409 -0.65407265586559  2.41010743214321
 1  9.58980395099510  0.10179763876388  2.64844797289729
 1  11.16931783088309  0.82374017081708  3.33986892989299
 1 -10.41573407140714  0.91459136983698 -2.52537993369337
 1 -11.91684074037404  1.25990198869887 -2.49897696299630
 1 -11.58806665176518 -0.25617436873687 -3.26437419501950
 1 -14.61506477977798 -2.34127307990799 -0.14953315711571
 1  8.42893196119612  0.50351057625763  0.38948159435944
 1 -8.63246841574158  2.12258391119112 -0.53231855225522
 1  11.33115885038504 -2.61934343034303 -1.87512036353635
 1  10.05424829122912 -1.28549465116512 -2.05615154915492
 1  11.55540483418342 -1.00073316341634 -2.74398034613461
 1  14.92088126842684  1.40246834663466  1.16270423932393
 1  9.54013378967897 -2.37935101680168 -0.23962040454045
 1 -5.65582004300430 -1.17753490419042 -0.49335193839384
 1 -6.85198409650965 -1.06996897009701  1.19265151755175
 1 -7.50191642684269 -1.58653710191019 -0.58188640344034
 1 -6.63042532903290  2.48756755185519 -0.43324652635264
 1  6.81792534153415 -3.84636805940594  1.11101079677968
 1  6.42688003320332 -4.06005119291929 -0.47779737093709
 1  8.17697759515952 -4.11152733733373  0.17922488978898
 1  6.35944437133713 -0.37311455085509 -0.45679780168017
 1 -4.34962719431943  0.38656832203220 -0.31931798939894
 1  4.58390199369937 -2.51268052105211 -0.03742140294029
 1 -4.54602064776478  3.37072505430543 -1.11959161466147
 1  4.43216329252925  0.35090242914291 -0.23961317871787
 1 -1.44335409360936  3.81392283898390 -2.03021129302930
 1 -1.16558939733973  4.14582173947395 -0.31495345514551
 1 -2.59179866796680  4.68431084658466 -1.21189948364836
 1 -2.41149002940294  0.38384501000100 -0.48259298929893
 1  2.43137217931793  1.01539552875288 -0.52173918901890
 1  2.32166069376938 -2.75392179457946  0.82433081158116
 1  0.86374144544454 -2.11386067716772 -0.43784506960696
 1  2.54649739913991 -3.01741952915292 -0.81730597359736
 1  0.07023290819082  2.35091493119312 -1.06114310581058
 1  0.00781788578858 -0.80876104590459 -0.49216987198720

