%nproc=4
%Mem=4GB
# td=(NStates=1) CAM-B3LYP/6-31G(d,p) 

TD

0 1
 8 -14.12501837703770 -2.00294867656766  0.42082233753375
 8  14.83560539733973  0.85317290389039  0.18861945784578
 6 -11.81497435703570  0.11666774167417  1.20068488848885
 6 -10.96044300680068  0.28124089508951 -0.08593488068807
 6 -12.00557603820382 -1.47132161656166  1.40473831513151
 6 -12.65865925942594 -2.14375544034403  0.24332848374837
 6 -11.41173646254625 -0.51608908720872 -1.21525701560156
 6  11.13249658025802  0.90739238173817  1.01418169786979
 6 -11.02803427662766  0.63566530533053  2.39054610531053
 6 -13.13021918431843  0.81885753265327  1.07394847164716
 6  12.57541472197220  1.47826725322532  0.77302468866887
 6 -12.14017500340034 -1.65776364416442 -1.06747951665167
 6  13.54519614051405  0.42542021462146  0.37926524542454
 6  10.69403887818782 -0.10104951515151 -0.09595601050105
 6 -9.44484324822482 -0.10954380258026  0.08721872947295
 6  13.00131810941094 -0.16990420982098 -0.95451103740374
 6  11.59981307010701 -0.44235928122812 -0.99000405920592
 6  10.20459734533453  2.05970528252825  1.00356306970697
 6  11.14836566906691  0.21881105650565  2.47520808210821
 6 -11.07415191269127  0.07100874237424 -2.57945020322032
 6 -8.59549564986499  0.80199518191819 -0.04583820632063
 6  9.27105203450345 -0.43502127792779 -0.01767168336834
 6  11.16439638513851 -1.47714068086809 -2.09330893559356
 6 -7.06022734563456  0.51516875867587 -0.01393348264826
 6  8.81751820822082 -1.66962676017602 -0.12337747874787
 6 -6.63626504800480 -0.79381813871387  0.37920080868087
 6  7.34200268776878 -2.10425329732973 -0.04879594189419
 6 -6.22940271627163  1.45712928742874 -0.29434129072907
 6  7.01970516471647 -3.56064978717872  0.13133335153515
 6  6.39216648564856 -1.15306559525953 -0.15213755615562
 6 -4.71760573427343  1.41049458865887 -0.28892980638064
 6  4.98712955885589 -1.49603744664466 -0.13691147134713
 6 -4.07550892329233  2.53937696389639 -0.55210639963996
 6 -2.66474691279128  2.65645360296030 -0.61193394119412
 6  3.95535950145015 -0.67051755785579 -0.32692220862086
 6  2.51931898049805 -0.75411988348835 -0.16803175577558
 6 -1.95802435263526  4.03216779937994 -0.90163931133113
 6 -1.87347443294329  1.48672141654165 -0.39856587298730
 6  1.70637918291829  0.30784234573457 -0.37858642054205
 6  2.04081740284028 -2.01412419971997  0.28483085098510
 6 -0.52870512941294  1.57555887718772 -0.51333469326933
 6  0.29783461426143  0.43916558435844 -0.36932019281928
 1 -10.85040178167817  1.32835462076208 -0.39314115931593
 1 -12.53976744984498 -1.64649466316632  2.43664155885589
 1 -10.97054472407241 -1.77899709470947  1.50641392399240
 1 -12.44273790739074 -3.23705281258126  0.02990785288529
 1 -10.09835523682368  0.09101077667767  2.49407803170317
 1 -10.89717988458846  1.72537561456146  2.30038476037604
 1 -11.80912850515051  0.43836725572557  3.18536271407141
 1 -13.50097129892989  0.23297930023002  0.25689215951595
 1 -13.80813658425843  0.75314692209221  2.07261126312631
 1 -13.00907959335933  1.75821944374437  0.54582506580658
 1  12.63303066976698  2.48981393089309  0.07862570577058
 1  12.71403583068307  1.87142118101810  1.69386698789879
 1 -12.53233671227123 -2.18685548204820 -1.91464565526553
 1  13.60271985678568 -0.35804555035503  1.14332466836684
 1 -9.36941930763076 -1.06083094209421  0.33463102310231
 1  13.49210435453545 -1.10059309860986 -1.21161631763176
 1  13.21389780728073  0.41979055695570 -1.91174109790979
 1  9.07736443404340  1.95018507030703  1.26411165856586
 1  10.12499436103610  2.59910251265127  0.03632054755476
 1  10.68934260756076  2.87004197589759  1.78387453845385
 1  11.94929777107711 -0.65872312091209  2.36802322372237
 1  10.30360533113311 -0.37509005000500  2.47788091619162
 1  11.13192409150915  1.04725252205221  3.32316725972597
 1 -10.07293979197920  0.06089600030003 -2.70809820552055
 1 -11.44432348864886  1.10812681118112 -2.70705777107711
 1 -11.56753459855985 -0.38024677597760 -3.50379813741374
 1 -14.36014928822882 -2.12952190479048 -0.51545974977498
 1  8.54054312231223  0.17321754695470  0.55012765896590
 1 -8.91315648454846  1.80083173597360 -0.20032535293529
 1  11.39564529902990 -2.49977147314732 -1.94736758825883
 1  10.10290315671567 -1.43904000570057 -2.61233716771677
 1  11.69834912861286 -1.12440553065307 -2.93293924202420
 1  15.19805898619862  0.87974607440744  1.00124809370937
 1  9.56276605290529 -2.38219130083008 -0.11854829732973
 1 -5.50925538653865 -0.99143629432943  0.49725712251225
 1 -7.12552145024502 -0.94696666986699  1.28193044544454
 1 -7.20442667786779 -1.50152860106011 -0.25061327612761
 1 -6.61857414391439  2.63762255735574 -0.69692289398940
 1  6.76661021002100 -3.81559498209821  1.12849254495450
 1  6.24693203840384 -3.82452764056406 -0.60490008120812
 1  7.77899779717972 -4.13952013661366 -0.28079111181118
 1  6.55112353925393  0.01303406400640 -0.46791891379138
 1 -4.39643187478748  0.51998166336634  0.06808075047505
 1  4.70334393789379 -2.48366761976198 -0.07019468026803
 1 -4.50824687038704  3.39375735753575 -0.86380603610361
 1  4.11640171637164  0.48674601350135 -0.27799701710171
 1 -1.26720647884789  3.93666511321132 -1.90956922882288
 1 -1.34697753615362  4.42616977427743 -0.13910587038704
 1 -2.81901138923892  4.85437785328533 -1.03526181988199
 1 -2.41102998339834  0.63924054955496 -0.14319904990499
 1  2.04060310241024  1.31470545974597 -0.32919993509351
 1  2.49967849554956 -2.30729713211321  1.32148052655266
 1  1.04410948224822 -2.01183047414742  0.29230794569457
 1  2.31435418481848 -2.82653044024402 -0.28696293929393
 1 -0.08461257635764  2.53530337003700 -0.92885987748775
 1 -0.27085998199820 -0.56793696349635 -0.28504915991599

