%nproc=4
%Mem=4GB
# td=(NStates=1) CAM-B3LYP/6-31G(d,p) 

TD

0 1
 8 -13.98434430963096 -1.89318770047005  0.68154841014101
 8  14.63639547634763  1.28471605820582  0.21084168006801
 6 -11.71764462406241  0.16591266616662  1.33789860986099
 6 -10.98944590709071  0.45953872487249  0.03389710251025
 6 -11.88917439803980 -1.39244372877288  1.51667950925092
 6 -12.50341373487349 -2.07232829762976  0.35153930483048
 6 -11.55825111401140 -0.32778025632563 -1.14845033493349
 6  10.98654198479848  0.97555919841984  1.31413169286929
 6 -10.78310978417842  0.86355809460946  2.58406545724572
 6 -13.05988215061506  0.88972461936194  1.32345342214221
 6  12.32202938343834  1.67730715721572  0.94283166936694
 6 -12.27275826172617 -1.40185805360536 -0.91100386908691
 6  13.36593821472147  0.65225289788979  0.41158847774777
 6  10.59746922122212  0.03354394419442  0.14465805090509
 6 -9.52846161006101  0.05852300410041  0.11684169176918
 6  12.81324930253025  0.20280306090609 -0.85540112641264
 6  11.39017210601060 -0.38430347564756 -0.92089714851485
 6  9.99385627122712  2.00876018801880  1.35535824922492
 6  10.91025185768577  0.12207138253825  2.59426998829883
 6 -11.16644114161416  0.11654329582958 -2.56122838103810
 6 -8.44002010231023  0.87957293969397 -0.12402602510251
 6  9.24136906620662 -0.57596537233723  0.27644772857286
 6  11.00192013751375 -0.96779974677468 -2.34613421812181
 6 -7.05378670157016  0.49995723752375 -0.18844093339334
 6  8.79302575897590 -1.81039083658366 -0.12318745974597
 6 -6.76776819831983 -0.91713046994699  0.00352324092409
 6  7.49062755025503 -2.31758463046305 -0.11167222952295
 6 -6.23505328132813  1.50614418891889 -0.45713757035704
 6  7.29617281148115 -3.78383210541054  0.05574579277928
 6  6.41424869386939 -1.38448873757376 -0.26219856225623
 6 -4.86638061176118  1.53957749694969 -0.48376929032903
 6  5.11819266516652 -1.66570441334133 -0.23151093129313
 6 -3.95139651205120  2.55523855005501 -0.77461865086509
 6 -2.57928836693669  2.48398635623562 -0.76652940074007
 6  3.99512347784778 -0.74672517861786 -0.23093260966097
 6  2.71086813541354 -1.04691916341634 -0.22176712931293
 6 -1.82212076227623  3.76054063666367 -1.21191033843384
 6 -1.84136122162216  1.26486923132313 -0.58972498889889
 6  1.76505505050505  0.06896845834583 -0.57419598149815
 6  2.19282260336034 -2.42068485578558 -0.08586621872187
 6 -0.47130938983898  1.25531685298530 -0.71255461526153
 6  0.29206403720372  0.01644331213121 -0.56812007280728
 1 -10.99517625912591  1.57469925522552 -0.08357020222022
 1 -12.45691916501650 -1.46936695039504  2.46942483718372
 1 -10.95582325192519 -1.71013020802080  1.63815709830983
 1 -12.42705633923392 -3.12726183348335  0.50081494359436
 1 -9.98498389968997  0.19829150475047  2.79834845874587
 1 -10.36432659925993  1.95023810081008  2.42572729462946
 1 -11.35037262956296  0.86332975197520  3.40035421322132
 1 -13.62554375617562  0.81502750505051  0.35597206750675
 1 -14.01241701230123  0.51415302270227  2.08886288828883
 1 -12.87991667706771  1.89769339113911  1.36823730703070
 1  12.36321368806881  2.45623057255726  0.26771461466147
 1  12.69035346244624  2.10612465136514  1.96039364056406
 1 -12.68425190379038 -1.79265606210621 -1.72006619731973
 1  13.77376696149615 -0.38656840264026  1.02058239413941
 1 -9.19277164286429 -0.94713957295730  0.38556611661166
 1  13.50764590869087 -0.70168320762076 -1.33981913791379
 1  12.90756717421742  1.07620619851985 -1.58609853365336
 1  8.93962065966597  1.85094514631463  1.72607785518552
 1  10.03988585018502  2.52419502190219  0.44185110061006
 1  10.29087276057606  2.69690466216622  2.14126027702770
 1  11.82818565986599 -0.57083433203320  2.53842026342634
 1  9.95308027862786 -0.43690623162316  2.99092222032203
 1  11.19154005310531  0.82285008180818  3.43351829482948
 1 -10.04622712071207  0.19060897159716 -2.81381877757776
 1 -11.21781083738374  1.23404940344034 -2.62425949124912
 1 -11.64516236133613 -0.48092684398440 -3.31185894349435
 1 -14.36098937223722 -2.42515146774677 -0.01551975577558
 1  8.63052212021202  0.18001822702270  0.65203784998500
 1 -8.62258742764276  2.08218987178718 -0.34053937433743
 1  11.12455819031903 -2.21041253725373 -2.23166601810181
 1  9.86936980338034 -0.96436253795379 -2.37921385538554
 1  11.55610490419042 -0.56226931703170 -3.21843779187919
 1  15.12964214451445  1.58840694049405  0.96495446434643
 1  9.59491926822682 -2.58057113881388 -0.30540698319832
 1 -5.79336379737974 -1.26279343004300 -0.11904450765077
 1 -6.91475037313731 -1.51057303050305  0.98662091449145
 1 -7.33041927712771 -1.58413686188619 -0.77059527432743
 1 -6.84185647214721  2.58093688878888 -0.60483368506851
 1  7.38782233123312 -4.13172659525953  1.22427212291229
 1  6.42542988818882 -4.31302649044904 -0.32403199439944
 1  8.29827972537254 -4.21472765736574 -0.41443447614762
 1  6.81700012691269 -0.40984822422242 -0.58762088398840
 1 -4.55531776337634  0.62085175037504 -0.04717077467747
 1  4.79180278377838 -2.69969922292229  0.09373171237124
 1 -4.40925697139714  3.55345332713271 -0.83862351785178
 1  4.29138921512151  0.25620295919592 -0.33736295369537
 1 -1.07362712091209  3.54202564926493 -1.99308758065807
 1 -1.46019885828583  4.11962912021202 -0.22829478927893
 1 -2.64161364946495  4.65993840934093 -1.67225551925193
 1 -2.24398327872787  0.36519314481448 -0.70882561256126
 1  2.13828287038704  1.03658764796480 -0.71031804690469
 1  2.57878640634063 -2.65730213261326  0.87139551805181
 1  1.16741181248125 -2.49829912101210 -0.33336462156216
 1  2.77361011041104 -2.89115690289029 -0.77139138213821
 1  0.05107099199920  2.11047088678868 -0.98699569106911
 1 -0.35864876087609 -0.57366753655366 -0.40998165316532

