%nproc=4
%Mem=4GB
# td=(NStates=1) CAM-B3LYP/6-31G(d,p) 

TD

0 1
 8 -14.24882075727573 -1.85217359905991  0.79369962526253
 8  14.75254709150915  0.97587517411741  0.18994959085909
 6 -11.74085694529453  0.11377745264526  1.23252807280728
 6 -10.92419938243824  0.25355812681268 -0.13700998819882
 6 -11.95280076067607 -1.47702218661866  1.52029987128713
 6 -12.87905129862986 -2.07687875267527  0.43033718461846
 6 -11.63890917981798 -0.58833631193119 -1.30111560146015
 6  11.07094042464246  1.08476011851185  1.11546182588259
 6 -10.88865033823382  0.68289002780278  2.37660471117112
 6 -13.00002616501650  0.85693134003400  1.15122619941994
 6  12.46354353485349  1.54697412391239  0.79041642784278
 6 -12.50242122802280 -1.59036690449045 -0.97835060376038
 6  13.51218283918392  0.38876654925493  0.49424674357436
 6  10.66139561386139 -0.06274568476848  0.03176676177618
 6 -9.50033879777978 -0.15255810401040  0.00589059665967
 6  13.07004498209821 -0.25174239363936 -0.76996258255826
 6  11.54993808260826 -0.50179522482248 -0.88008306710671
 6  10.10532741834183  2.17924723672367  1.08676138953895
 6  10.96384721722172  0.48405758115812  2.64733529482948
 6 -11.47456195369537 -0.02993135163516 -2.66811907010701
 6 -8.57483358365837  0.78731371377138 -0.08512213471347
 6  9.21197612691269 -0.56124390019002  0.10668075187519
 6  11.26081602710271 -1.34128709550955 -1.99587919261926
 6 -7.04727605050505  0.51775901770177 -0.13739582888289
 6  8.75286174257426 -1.76489628712871 -0.22256739773977
 6 -6.69030045154515 -0.94808356525653 -0.05651276267627
 6  7.45237372487249 -2.27955082708271 -0.15862692499250
 6 -6.15262503850385  1.57654122862286 -0.24869672627263
 6  7.12498569276928 -3.68808253045305 -0.03437321912191
 6  6.36817408640864 -1.26247653635364 -0.26836917931793
 6 -4.77432140584058  1.46578011721172 -0.26190710411041
 6  5.01098194409441 -1.51494933783378 -0.10946872707271
 6 -3.92169354175418  2.54217724392439 -0.52287347634763
 6 -2.52854329242924  2.66340429802980 -0.56621936973697
 6  4.08107207270727 -0.62849335543554 -0.37322683908391
 6  2.67427447604760 -0.85428990049005 -0.44111906450645
 6 -1.92338088828883  3.98407298989899 -0.77678682608261
 6 -1.75349243474347  1.54789753415342 -0.43839985638564
 6  1.84837338233823  0.25405696719672 -0.59354791669167
 6  2.14253757485749 -2.18241102840284 -0.06124375647565
 6 -0.34004626352635  1.54264558585859 -0.59847320712071
 6  0.46043087388739  0.39802146994699 -0.46092935373537
 1 -11.01978872037204  1.07190897619762 -0.63017486268627
 1 -12.53467694079408 -1.43860387408741  2.65816371107111
 1 -11.04683235283528 -1.83402259725973  1.62368565116512
 1 -12.44406804040404 -2.96926603390339  0.55052991509151
 1 -9.91453685498550  0.12290396599660  2.57658628252825
 1 -11.02714288088809  1.99025210221022  2.32899762166217
 1 -11.44726231853185  0.35782920192019  3.20034421222122
 1 -13.69548074987499  0.54155015731573  0.33229970027003
 1 -13.52197796839684  0.47304891229123  1.91172517451745
 1 -12.78118680408041  1.80439406120612  1.29604008730873
 1  12.29078644534453  2.24010896039604 -0.11437359415942
 1  12.79372379947995  2.11424546344634  1.60435803700370
 1 -12.95657913651365 -2.22596939343934 -1.70606479717972
 1  13.45865545034503 -0.22132187798780  1.33965430133013
 1 -9.45382774847485 -1.06592145114511 -0.02917535753575
 1  13.66546169026903 -1.13425646494649 -0.91614677067707
 1  13.42278869636964  0.43693227112711 -1.64447437123712
 1  9.23945064266427  2.12215226702670  1.39850509790979
 1  9.89428128972897  2.62874547694770  0.07519443494349
 1  10.51490516381638  2.96640161186119  1.56438258925893
 1  12.14210705200520 -0.06315356395640  3.08230465186519
 1  10.14765973657366 -0.25896843784378  2.64553768186819
 1  10.71693259235924  1.46122391919192  3.16632157515752
 1 -10.38734123212321  0.04834474517452 -2.84444183988399
 1 -11.93268232453245  0.93558955745575 -2.68218528382838
 1 -11.99056690179018 -0.76809556085609 -3.38902666026603
 1 -14.79938321162116 -1.55201415401540 -0.22178038183818
 1  8.54331339933993  0.32546277147715  0.44464711091109
 1 -8.82849801870187  1.87555920872087 -0.11108642904290
 1  11.31630736523652 -2.38778027402740 -1.76310916241624
 1  10.23004587098710 -1.46424252595260 -2.16885281928193
 1  11.75263455715572 -1.06098918901890 -2.95590153825383
 1  15.27274645494549  1.31331943174317  0.91409937883788
 1  9.56731650795080 -2.60144322602260 -0.35958240074007
 1 -5.54552901390139 -1.06308345904590 -0.21725432863286
 1 -7.02614151225123 -1.24462643584358  0.92926517891789
 1 -7.33102933813381 -1.62976142434243 -0.71812002680268
 1 -6.55800808730873  2.55960475557556 -0.32204540624062
 1  6.94369791879188 -3.82871629422942  0.99492918861886
 1  6.15264260946095 -3.99492468026803 -0.63569316051605
 1  7.95858575597560 -4.42587877247725 -0.34779781248125
 1  6.80670909780978 -0.13404064346435 -0.43178530043004
 1 -4.23200543214321  0.51228089328933  0.04944888728873
 1  4.70995459895990 -2.66782603560356  0.08063040224022
 1 -4.46498254395440  3.37643562536254 -0.54700435593559
 1  4.42342241844184  0.37413475237524 -0.49599881728173
 1 -1.31400115831583  4.02960440714071 -1.73774204610461
 1 -0.95371821022102  4.25174233153315  0.12255029522952
 1 -2.41877136523652  4.85747816331633 -0.82780107380738
 1 -2.16130501090109  0.58071469696970 -0.41288601860186
 1  2.27985702780278  1.33686767596760 -0.60864787988799
 1  2.42175070277028 -2.32703910631063  0.95920429892989
 1  0.93744881618162 -2.39433872497250 -0.35761704680468
 1  2.60183293269327 -2.85838362556256 -0.52247649064906
 1  0.26265215011501  2.29350919061906 -0.92019901140114
 1 -0.22520541654165 -0.50374054385439 -0.38268892389239

