%nproc=4
%Mem=4GB
# td=(NStates=1) CAM-B3LYP/6-31G(d,p) 

TD

0 1
 8 -14.22982885808581 -1.79262764446445  0.71718197349735
 8  14.75988782558256  1.05922350895090  0.31697229312931
 6 -11.70621348094810 -0.02917684278428  1.42309712971297
 6 -10.88342530503050  0.20831360236024  0.04217793059306
 6 -11.99630511111111 -1.45067955235524  1.54055189648965
 6 -12.74571796529653 -1.97373843864386  0.31324547544754
 6 -11.58140342924292 -0.44155163346335 -1.13190868076808
 6  11.04987831843184  0.99684132663266  1.16324660436044
 6 -10.88701017421742  0.59193093189319  2.56255330603060
 6 -13.13778994139414  0.78736438333833  1.33808488528853
 6  12.54613179367937  1.55099452595260  1.00632801900190
 6 -12.43383436933693 -1.47379524732473 -1.01847461616162
 6  13.47314893579358  0.49283695629563  0.52579989888989
 6  10.61217069136914  0.02922351215122  0.00707429252925
 6 -9.50164892879288 -0.15396824502450  0.01587159475948
 6  12.98093607120712 -0.20550777017702 -0.79579516581658
 6  11.51883497229723 -0.53705875117512 -0.84909996879688
 6  10.04484136973697  2.21971128312831  1.04887760116012
 6  10.86369720222022  0.22631180658066  2.50046060736074
 6 -11.17750224772477  0.23951559305931 -2.49842210041004
 6 -8.42541864216422  0.77545252765277 -0.04936855935594
 6  9.24428935823582 -0.45851362716272  0.07414749854986
 6  11.36189613511351 -1.40294326112611 -1.99534913961396
 6 -7.00381170407041  0.49432667446745 -0.24155624492449
 6  8.82445890229023 -1.69998979647965 -0.12894803580358
 6 -6.62127354885489 -0.99815857275728 -0.05247235863586
 6  7.46027451495149 -2.15054792679268 -0.12366342864286
 6 -6.24696447244724  1.51793536803680 -0.38648050465047
 6  7.24623781798180 -3.66944066626663  0.05935615381538
 6  6.41652892189219 -1.27617790649065 -0.41103344574457
 6 -4.77580155385539  1.40694423362336 -0.52150306370637
 6  5.00849169506951 -1.61726956985699 -0.36328410861086
 6 -3.96772814521452  2.54940796699670 -0.71331252025203
 6 -2.60713115121512  2.61052901050105 -0.84598734653465
 6  4.03457742324232 -0.60506101220122 -0.43905342174217
 6  2.59714676327633 -0.81053552505251 -0.29895484808481
 6 -2.02811136133613  3.99963454605461 -1.13126227362736
 6 -1.78978606410641  1.54163690809081 -0.54704072047205
 6  1.68864740974097  0.19972153365337 -0.49836839873987
 6  2.10203352445245 -2.18420120742074  0.15051741964196
 6 -0.40624288318832  1.51177249854985 -0.57180053985399
 6  0.27545237603760  0.31439310711071 -0.50338359915992
 1 -10.94132087358736  1.25368715401540  0.11284943974397
 1 -12.46238971207121 -1.67462747644765  2.55929382408241
 1 -10.95772344194419 -1.96605580058006  1.36749003160316
 1 -12.57579121272127 -2.92882198949895  0.20413527562756
 1 -10.17039244054406 -0.20615894029403  2.86020464436444
 1 -10.48392855945595  1.66858993599360  2.59374409630963
 1 -11.48758635093509  0.46681010001000  3.35696987478748
 1 -13.63975517731773  0.33946994929493  0.60304677497750
 1 -13.72111788238824  0.64440604800480  2.27810181218122
 1 -12.88282696809681  1.88038165996600  1.23323380668067
 1  12.46318368506851  2.42211716121612  0.29216705990599
 1  12.75755018211821  2.04121816071607  1.89809741094109
 1 -12.96103958255826 -1.90941773827383 -1.88412260296030
 1  13.51995157995800 -0.28661840764076  1.35028536443644
 1 -9.33795616131613 -1.23228808780878 -0.25149758975898
 1  13.50226537063706 -0.96030907020702 -0.95783093909391
 1  13.21242766026603  0.51417999589959 -1.50875079887989
 1  9.06806350395039  1.97322737453745  1.36812205960596
 1  9.90018187978798  2.55649825222522  0.04639155465547
 1  10.61012468576858  2.95091006270627  1.63614976597660
 1  11.48934177547755 -0.81007825642564  2.51730815221522
 1  10.01303627422742 -0.23196573757376  2.68127125522552
 1  11.56005690479048  0.74527232403240  3.34601954495450
 1 -10.13503600160016  0.17330724142414 -2.51764916061606
 1 -11.70146920322032  1.33629962846285 -2.61383844914491
 1 -11.63574141924192 -0.19166791809181 -3.55211296889689
 1 -14.53313658695870 -2.44682363496350 -0.14256246004600
 1  8.59641870987099  0.23264348954895  0.55604825102510
 1 -8.73778894779478  1.85710736353635  0.02937761736174
 1  11.88809454395440 -2.40129162516252 -2.01466431793179
 1  10.14920778717872 -1.69648575027503 -2.07750368436844
 1  11.83553284698470 -0.94171726182618 -2.78127407550755
 1  15.04025320562056  0.75584368416842  1.51417938683868
 1  9.42678245454545 -2.52298538023802 -0.14596103860386
 1 -5.41336579757976 -1.25744289498950 -0.10677328052805
 1 -6.92176107420742 -1.31709368256826  1.00809306170617
 1 -6.98892512771277 -1.61531998019802 -0.77082529732973
 1 -6.67561984848485  2.58689748484849 -0.40779398109811
 1  6.77643119211921 -3.82337576017602  0.96611630733073
 1  6.31732907810781 -3.76133132093209 -0.74089368056806
 1  8.04269416681668 -4.30630681528153 -0.15385841854185
 1  6.50949937683768 -0.23108034743474 -0.58182030393039
 1 -4.13972620422042  0.46760642584258 -0.39247530513051
 1  4.46149975347535 -2.63007226022602 -0.39173683448345
 1 -4.44715076077608  3.43357133893389 -0.75145480098010
 1  4.31159123532353  0.56169350825083 -0.60327954535454
 1 -1.17924768296830  4.05582702940294 -1.97678595049505
 1 -1.56178901730173  4.22642980028003 -0.24532649244924
 1 -2.91094058215822  4.54322673817382 -1.43307160086009
 1 -2.29929881028103  0.55297192269227 -0.31430616061606
 1  2.08342738483848  1.21169515871587 -0.90498751385138
 1  2.93724225192519 -2.37457385978598  1.05149352785279
 1  0.99526459775978 -2.17305659675968  0.22456117101710
 1  2.26135888528853 -2.93887167436744 -0.75542978597860
 1  0.06934281918192  2.45162500220022 -0.57037402890289
 1 -0.12135503150315 -0.64400457025703 -0.16990764576458

