%nproc=4
%Mem=4GB
# td=(NStates=1) CAM-B3LYP/6-31G(d,p) 

TD

0 1
 8 -14.13320919611961 -2.05036341804180  0.66720697599760
 8  14.80998283508351  0.91725931253125  0.17802839873987
 6 -11.80606346594660  0.03977005190519  1.34230905090509
 6 -10.96488345084508  0.30747351835184  0.03182689548955
 6 -12.02285776637664 -1.47597208160816  1.49370721202120
 6 -12.76325971947195 -2.08940000480048  0.31285543644364
 6 -11.61640692959296 -0.44858233653365 -1.17213270317032
 6  11.15663899449945  0.97652929542954  1.18252853255326
 6 -11.04148562176218  0.58676041484148  2.60799785048505
 6 -13.08973513591359  0.87856350325032  1.35922699949995
 6  12.59705688618862  1.49180860736074  0.98810619681968
 6 -12.32388337423743 -1.53241110891089 -0.91469423812381
 6  13.53853547444744  0.40156782938294  0.43190050895090
 6  10.74165363966397 -0.02261167136714  0.14353793889389
 6 -9.49890865476548 -0.07649049724972  0.06314632223222
 6  12.95051302890289 -0.25812303170317 -0.79977556385639
 6  11.56457954675468 -0.55908095339534 -0.82506756555656
 6  10.29660654625463  2.27160647264726  1.35301801520152
 6  11.18909974247425  0.23202237763776  2.56971753305330
 6 -11.34735923342334  0.01965360686069 -2.51830408860886
 6 -8.46343244354435  0.89050403280328 -0.20326394889489
 6  9.29868479777978 -0.40156793259326  0.24238432223222
 6  11.26402634813481 -1.38579154595460 -1.96799640434043
 6 -7.08208953185319  0.63330057185719 -0.08944103340334
 6  8.82384884128413 -1.69391918941894 -0.10271541254125
 6 -6.66815823732373 -0.85115387228723  0.19236212481248
 6  7.38715720322032 -2.05360823282328 -0.10168123042304
 6 -6.26925670167017  1.59051262576258 -0.29825168176818
 6  7.17868106230623 -3.50637435963596 -0.05460524232423
 6  6.40888815781578 -1.07007729642964 -0.16952929532953
 6 -4.85275924962496  1.52134567376738 -0.44213512691269
 6  5.01018186408641 -1.51720956385639 -0.30394817501750
 6 -3.98159953235324  2.65572859905991 -0.63848503750375
 6 -2.57285772387239  2.53276123372337 -0.86756950475047
 6  3.96103006850685 -0.65583608970897 -0.41467098349835
 6  2.57484453305331 -0.82640711221122 -0.41762671527153
 6 -1.92856140634063  4.00169475207521 -1.02668181558156
 6 -1.83376046154615  1.34486723112311 -0.78694471087109
 6  1.66793533853385  0.29963152465246 -0.58651721362136
 6  2.10052337343734 -2.26917970527053 -0.11754938703870
 6 -0.48112037093709  1.32713403470347 -0.80727408720872
 6  0.30153498429843  0.14813648144814 -0.70566382718272
 1 -11.10805754725473  1.35492727802780 -0.08486033123312
 1 -12.63048652175217 -1.69371938563856  2.34427232193219
 1 -10.91910958055806 -1.92092128712871  1.53001628422842
 1 -12.51643527712771 -3.30698980628063  0.31516637873787
 1 -10.08891429272927  0.33696537213721  2.70198882278228
 1 -10.96147631423142  1.59727280428043  2.45543026492649
 1 -11.62229982228223  0.60619403840384  3.63992817061706
 1 -13.58217941974197  0.54037003930393  0.46537300760076
 1 -13.55054082468247  0.82146375377538  2.37316131813181
 1 -12.87241592699270  2.01723534533453  1.13127361066107
 1  12.49088645534553  2.12436738623862  0.01216906010601
 1  12.92571699879988  2.11716575547555  1.84413201440144
 1 -12.87284076267627 -1.71476827332733 -1.79609380008001
 1  13.44421400620062 -0.40377012281228  1.20505084098410
 1 -9.32118448414842 -1.22080693969397  0.34247180718072
 1  13.78254339843984 -0.94447748704870 -0.98250340634063
 1  13.04881129862986  0.44595317321732 -1.60093001680168
 1  9.28863556115611  2.00433048484849  1.41165641304130
 1  10.03141500310031  2.83195579797980  0.35024193969397
 1  10.52418609190919  2.97498246994699  2.14337048804880
 1  11.92333517481748 -0.54104135273527  2.55147156855686
 1  10.24111908250825 -0.19315185618562  2.78426155425542
 1  11.58513941304130  0.84390218701870  3.43575851885189
 1 -10.37713021102110  0.61788169886989 -2.38079547524752
 1 -12.28045710201020  0.83364936343634 -2.64113117841784
 1 -11.53832167726773 -0.94929368066807 -3.41779953755376
 1 -14.44628790209021 -2.27633658625863 -0.20344854865487
 1  8.57254632263226  0.41013123832383  0.61337398359836
 1 -8.76788195709571  1.93119477227723 -0.32845816621662
 1  11.23206894139414 -2.41239273527353 -1.85669852135213
 1  10.09165203160316 -1.12722882458246 -2.35107104110411
 1  11.83916321002100 -1.00224331443144 -2.79607555565557
 1  15.23640282058206  1.30272837263726  1.06911488038804
 1  9.47337711401140 -2.57653073477348 -0.50297674017402
 1 -5.58251271227123 -0.87086423712371  0.16731412821282
 1 -7.12056095419542 -1.25410738393839  0.83826607900790
 1 -6.90857709290929 -1.63092154035404 -0.71194940974097
 1 -6.77626991349135  2.65499429452945 -0.34907810951095
 1  6.79854340334033 -3.87899132173217  0.91945164086409
 1  6.52286963216322 -3.90245543334334 -0.96878646984698
 1  8.03918381578158 -4.03368955355536 -0.17097012971297
 1  6.58438686558656 -0.01212845224522 -0.15210733263326
 1 -4.41839407100710  0.46445611081108 -0.62520857845785
 1  4.77347095059506 -2.59401865486549  0.04767710691069
 1 -4.32835888158816  3.78119610141014 -0.69069872537254
 1  4.46975705190519  0.37458479737974 -0.88268748614861
 1 -1.46060581878188  3.88998044474447 -2.00616888878888
 1 -1.29563240164016  4.20112727002700 -0.25604756455646
 1 -2.79595908400840  4.78396081158116 -1.17359565326533
 1 -2.32680156055606  0.20393701920192 -0.80470520052005
 1  2.03139218131813  1.27066105530553 -0.61536855195520
 1  2.37052558025803 -2.56293269566957  0.90430880938094
 1  1.03723879517952 -2.46334562566257  0.05790450535054
 1  2.37699044844484 -2.95912369956996 -1.01114535753575
 1  0.13774965986599  2.21450128982898 -0.70519751125113
 1 -0.29931282728273 -0.81924209400940 -0.65425608060806

