%nproc=4
%Mem=4GB
# td=(NStates=1) CAM-B3LYP/6-31G(d,p) 

TD

0 1
 8 -14.19203507870787 -1.75642402410241  0.54110436573657
 8  14.77313915071507  0.89839742634263  0.44778537443744
 6 -11.79930278987899  0.04661073597360  1.31654647464746
 6 -10.95035199769977  0.36772954395440  0.05379909270927
 6 -11.99895537613761 -1.52240672507251  1.50224806610661
 6 -12.72197559105911 -2.11137220202020  0.35882003290329
 6 -11.58261355025503 -0.40200767906791 -1.06707219711971
 6  11.06275960656066  0.96921856435644  1.20478075777578
 6 -11.00921239443944  0.51661340014001  2.60235728642864
 6 -13.08651481388139  0.81204685158516  1.30810188698870
 6  12.43325050555056  1.51497092359236  0.82305969216922
 6 -12.23609459535954 -1.58973684148415 -0.94293706240624
 6  13.49613123402340  0.36391406400640  0.53946126502650
 6  10.60590006430643  0.08593918371837  0.00504408950895
 6 -9.50918968286829  0.05860301210121  0.13467347494749
 6  13.05734371197120 -0.20292751215122 -0.75154074037404
 6  11.58084117291729 -0.45627067236724 -0.85278033683368
 6  10.10567745334533  2.36344565656566  1.31825453885389
 6  10.91004183668367  0.19106828222822  2.53414397569757
 6 -11.20282477997800  0.09318095959596 -2.50782304050405
 6 -8.53835993629363  0.94732971537154  0.01815819331933
 6  9.31696662596260 -0.41065884168417  0.13197328112811
 6  11.23267321282128 -1.30407337413741 -1.93749335403540
 6 -7.09618094099410  0.49373661546155 -0.05748783808381
 6  8.83694015041504 -1.74325412291229 -0.12116725772577
 6 -6.74260568206821 -0.84566332323232  0.40415330393039
 6  7.46973546104610 -2.11307417941794 -0.12937399969997
 6 -6.32054183018302  1.43106668116812 -0.29593144974497
 6  7.27586078027803 -3.63190691289129 -0.13529331113111
 6  6.42966023502350 -1.18883917261726 -0.27174951735174
 6 -4.83407738143814  1.44371791099110 -0.35845675907591
 6  5.05893673957396 -1.50483832673267 -0.25964374457446
 6 -4.07213858625863  2.45687871407141 -0.77823901290129
 6 -2.68040847894789  2.53679163676368 -0.88449119691969
 6  4.06406037153715 -0.59581008710871 -0.49495901230123
 6  2.63995104370437 -0.84022849434943 -0.48669362196220
 6 -1.94788333853385  3.83210779337934 -1.16855600300030
 6 -1.74640172567257  1.42830557495750 -0.68364438083808
 6  1.75902444744474  0.17911947344734 -0.66861542344234
 6  2.14209753085309 -2.25955874317432 -0.18523615571557
 6 -0.30302256115612  1.46594791609161 -0.88497185698570
 6  0.38374320512051  0.25357702550255 -0.68850211101110
 1 -10.93165990749075  1.48809059435944 -0.12554439963996
 1 -12.57826129922992 -1.74486450015001  2.45380327502750
 1 -11.09819748934894 -2.06747594259426  1.62339562216222
 1 -12.50781441504150 -3.22005111241124  0.58164302640264
 1 -10.15254065536554  0.00699237483748  2.71664028792879
 1 -10.51976214281428  1.67345042204220  2.60519524142414
 1 -11.55680327262726  0.52107552655266  3.51676585438544
 1 -13.57357855965597  0.72748875117512  0.33763023332333
 1 -13.64824059465947  0.60459206660666  2.21650565256526
 1 -12.86814549994999  2.00681430323032  1.35832631593159
 1  12.56753412011201  2.27100204970497  0.11527937113711
 1  12.92012643974397  2.09943398229823  1.86593419461946
 1 -12.83439691829183 -1.98927572407241 -1.82114630533053
 1  13.47537712251225 -0.50472021782178  1.18130846674667
 1 -9.13637600330033 -0.92625748474847  0.22131969196920
 1  13.65992113621362 -1.17591063036304 -1.04280943694369
 1  13.13580999849985  0.40999957785779 -1.72795271907191
 1  8.97606430403040  2.02473252505250  1.49176442384238
 1  9.76790865246525  2.84232683508351  0.50062697819782
 1  10.64161783508351  3.08380335203520  2.07133328432843
 1  11.61719456075608 -0.65855310391039  2.64760118151815
 1  9.84811978257826 -0.05703824482448  2.47170029812981
 1  11.19639053815381  0.82370016681668  3.26949189218922
 1 -10.08330082808281  0.41087099779978 -2.48074547024703
 1 -11.81195025132513  1.00625662416242 -2.53497056235624
 1 -11.58450629572957 -0.51816056735674 -3.43858161576158
 1 -14.45949922322232 -1.80111906450645 -0.47041524532453
 1  8.48000706870687  0.09995022022202  0.30817346354636
 1 -8.68059322822282  1.94648630143014 -0.16700202060206
 1  11.35488122262226 -2.50112160816082 -1.58626147764777
 1  10.21895476187619 -1.33295939763976 -1.98510444444444
 1  11.93082237593759 -1.15455854595460 -2.82949889798980
 1  14.82818199849985  1.55578367816782  1.33854182308231
 1  9.48937871417142 -2.42354543624362 -0.16245268776878
 1 -5.62598705970597 -1.05581273197320  0.14542193899390
 1 -7.12863176127613 -1.04870684388439  1.55292754515452
 1 -7.26014224942494 -1.73971241944194 -0.19261747654765
 1 -6.67158944544454  2.35072386748675 -0.57955115681568
 1  7.01267481648165 -3.71048447104710  0.94196389208921
 1  6.68681602680268 -4.00807599539954 -0.86933652485249
 1  8.12471236863686 -4.20518670327033 -0.28207123982398
 1  6.64442286918692 -0.08412565196520 -0.38474059595960
 1 -4.49234146574658  0.55479514471447  0.08829277167717
 1  4.55571917541754 -2.45781503450345 -0.03154081488149
 1 -4.38581462716272  3.56173415521552 -1.20639029452945
 1  4.34415449164917  0.44430176907691 -0.81667088448845
 1 -1.45648540674067  3.78735018171817 -2.12878115001500
 1 -1.40749358775878  4.35746290359036 -0.40468242804280
 1 -2.76683617171717  4.66848926442644 -1.32876116981698
 1 -2.22632151255126  0.39024565006501 -0.61628635863586
 1  2.10232927502750  1.18745273447345 -0.61161817691769
 1  2.27693622132213 -2.41296769916992  0.94600297879788
 1  0.99099417071707 -2.25445473657366 -0.41130241534153
 1  2.73959670907091 -2.91201898909891 -0.85083932693269
 1  0.24369025392539  2.18145798549855 -0.91752874437444
 1 -0.26831972797280 -0.70374054385439 -0.40066072107211

