%nproc=4
%Mem=4GB
# td=(NStates=1) CAM-B3LYP/6-31G(d,p) 

TD

0 1
 8 -14.18907478267827 -1.95418380008001  0.53059331463146
 8  14.83224506130613  0.95563314991499  0.18542913881388
 6 -11.75119797939794 -0.00999492459246  1.44703952395240
 6 -11.06481344384438  0.38870164116412  0.12252596539654
 6 -12.02184766536654 -1.50839532393239  1.44668250955096
 6 -12.77864125762576 -2.08141920672067  0.31518566946695
 6 -11.55970125902590 -0.35326280458046 -1.15353084298430
 6  11.08582191279128  1.01916355885589  1.07426770647065
 6 -11.00985245844585  0.41371311011101  2.58394544524452
 6 -13.06189235163516  0.89989563646365  1.36878795559556
 6  12.58708588908891  1.56917634413441  0.86162354855486
 6 -12.35027601350135 -1.42318018581858 -0.99896266496650
 6  13.56831845274527  0.44014168676868  0.39578689758976
 6  10.70351982628263 -0.02960237043704  0.01206479157916
 6 -9.52570133403340 -0.00182303050305  0.02932293989399
 6  12.96051402900290 -0.07894511391139 -0.95651123742374
 6  11.51454454325432 -0.49774481978198 -0.89402446124612
 6  10.16344322992299  2.16000531253125  1.07314002740274
 6  11.14238507100710  0.25627480288029  2.50918147944794
 6 -11.41243574107411  0.25421706320632 -2.52954521272127
 6 -8.47114321462146  0.88286326872687 -0.22483610611061
 6  9.21752668196820 -0.36822459825983  0.04981506530653
 6  11.23523346884688 -1.20543351015102 -2.06664626932693
 6 -7.10208153105311  0.50324756655666 -0.35511760106011
 6  8.77145360176018 -1.68646844434443 -0.13327846884688
 6 -6.73122454395440 -0.91506026292629 -0.21453856525653
 6  7.44399288678868 -2.23224609660966 -0.04831589388939
 6 -6.08055783178318  1.50615418991899 -0.42460431703170
 6  7.18217141134113 -3.62348607080708  0.20344056225623
 6  6.46135340434043 -1.20402069076908 -0.26908925132513
 6 -4.74365833953395  1.36048958815882 -0.65247616101610
 6  5.10107095299530 -1.61070891379138 -0.08684646484648
 6 -3.99006037843784  2.52712573877388 -0.77156834583458
 6 -2.56041647974797  2.61439939753975 -0.69554230203020
 6  3.96488045354535 -0.66412691879188 -0.29277879427943
 6  2.62302935153515 -0.89591406290629 -0.09480443304330
 6 -1.89733828402840  3.95455003760376 -1.02439158655866
 6 -1.81386847234723  1.46479922432243 -0.56325234163416
 6  1.64786333133313  0.11593315481548 -0.23800236213621
 6  2.11248456955696 -2.24501728902890  0.28679104700470
 6 -0.41549380828083  1.41512283358336 -0.56345970577058
 6  0.28614344514451  0.19003067086709 -0.40831409220922
 1 -11.08935567706771  1.55688747404740 -0.02692453765377
 1 -12.63261673477348 -1.77531754545455  2.31905980068007
 1 -10.94449211881188 -2.00379957495750  1.75222850545055
 1 -12.67197083068307 -3.18025713301330  0.29077393949395
 1 -10.05510091139114 -0.25892421682168  2.50889951385138
 1 -10.73636380298030  1.38541161816182  2.65787050895089
 1 -11.64025161746174  0.10269368836884  3.44538871667167
 1 -13.75349655145514  0.72142814511451  0.62743921422142
 1 -13.77699346994700  0.50199180658066  2.12975697769777
 1 -12.87717640304030  1.93878750055006  1.49929041234123
 1  12.57035440214021  2.25629057855786 -0.00031218801880
 1  12.79136356345635  2.17965200410041  1.88831643284328
 1 -12.91220469906991 -1.60206700320032 -1.98245243594359
 1  13.60589017381738 -0.19276902270227  1.19057939383938
 1 -9.49337170287029 -1.12109696869687  0.07677523752375
 1  13.50429557365737 -0.89558259755976 -1.18954411041104
 1  13.11510792829283  0.68437701560156 -1.63120304410441
 1  9.17322402000200  1.99306935873587  1.51669691709171
 1  9.92826468806881  2.47507010941094  0.07188410391039
 1  10.71492516581658  3.13157812951295  1.37920407140714
 1  11.83047588888889 -0.74233148174817  2.41403782518252
 1  10.05250022062206  0.12202966196620  2.62483561166117
 1  11.40613151225122  0.89616741354135  3.22840778377838
 1 -10.26591908990899  0.30767067776778 -2.73252064776478
 1 -11.57310636693669  1.43464946344634 -2.56198326362636
 1 -11.97708555365536 -0.20695944724472 -3.29406716431643
 1 -14.68663193649365 -2.09118807140714 -0.18296650045005
 1  8.68950801880188  0.34471469666967  0.39817246344634
 1 -8.88689385828583  1.75498715151515 -0.32721804220422
 1  11.22245798029803 -2.25813730973097 -2.09105195669567
 1  10.13989685608561 -1.15572167386739 -2.44328026202620
 1  11.62555184888489 -0.67410050015002 -2.95871181928193
 1  15.06603578387839  1.33335143494349  1.14126209510951
 1  9.61583135943594 -2.42293537523752 -0.22706914941494
 1 -5.60215467646765 -0.85033218391839 -0.44537714091409
 1 -6.81266016411641 -1.33984595779578  0.65527778017802
 1 -7.38517475267527 -1.47395584378438 -0.90189840464046
 1 -6.66466875337534  2.50243903900390 -0.56598980068007
 1  6.99091264026403 -3.99052247484749  1.37359705540554
 1  6.20567791299130 -3.94790997879788 -0.14993458465847
 1  8.09442934033403 -4.29827601220122 -0.05649868256826
 1  6.83183161006101 -0.09688692809281 -0.62338446034603
 1 -4.04927715931593  0.56850651585158 -0.49175523312331
 1  4.88282188568857 -2.58625787878788  0.10912325152515
 1 -4.42978902460246  3.45539352115212 -0.84921457695770
 1  4.21228130433043  0.35092243114311 -0.39582880028003
 1 -1.06611636983698  3.90031147784778 -1.69023729562956
 1 -1.41010384878488  4.30073723102310  0.10092813301330
 1 -2.64692418051805  4.80157257275728 -1.47242553625363
 1 -2.18316719711971  0.47221384688469 -0.27175190519052
 1  2.13897293939394  1.12688667786779 -0.41639865496550
 1  2.48956748444845 -2.41758816121612  1.32609098759876
 1  0.99641471277128 -2.35545483658366  0.51370008490849
 1  2.31439418881888 -3.16943473067307 -0.38513275627563
 1  0.15493137803780  2.44573441314131 -0.67591458295830
 1 -0.21195409140914 -0.79049921972197 -0.33844449944995

