%nproc=4
%Mem=4GB
# td=(NStates=1) CAM-B3LYP/6-31G(d,p) 

TD

0 1
 8 -14.05530140534053 -2.10623900560056  0.52483273857386
 8  14.85609744654465  0.69434702130213 -0.19254865896590
 6 -11.67474033363336 -0.04906883198320  1.23700852085209
 6 -10.98209517201720  0.32438520952095 -0.06077236443644
 6 -11.95128060866087 -1.59845432983298  1.37228506980698
 6 -12.72540593409341 -2.24068513331333  0.15473962486249
 6 -11.48384367326733 -0.53283076137614 -1.22997848774877
 6  11.13750708130813  0.97382902540254  1.07720800050005
 6 -10.79938141134113  0.40391213001300  2.44825187588759
 6 -13.01191735413541  0.55843149004900  1.36789786658666
 6  12.58553573407341  1.43061248774877  0.75085247144714
 6 -12.34475546144614 -1.61537940574057 -1.09134190289029
 6  13.58203982488249  0.26008368096810  0.27916523542354
 6  10.70437991229123 -0.01180059025903  0.02095568066807
 6 -9.45992475637564 -0.00010285848585 -0.01281127352735
 6  12.93427140474047 -0.40971819121912 -1.00101568786879
 6  11.47709079787979 -0.59410445574557 -0.91041610041004
 6  10.31531841744174  2.19719903190319  1.13690640404040
 6  11.21816264876488  0.27008618401840  2.50803136443644
 6 -11.16562105960596  0.27885952745275 -2.50427268546855
 6 -8.51206730703070  0.86926190859086 -0.14434805730573
 6  9.23838876817682 -0.31181895769577  0.00431051485149
 6  10.97152709820982 -1.46886985378538 -2.09039864456446
 6 -7.03048437133713  0.60690793259326 -0.14183627292729
 6  8.67389384578458 -1.58993879137914 -0.14587972897290
 6 -6.72665408690869 -0.81726048294829 -0.10107721912191
 6  7.33729221672167 -2.09520239223922  0.00638957665767
 6 -6.29362913891389  1.70871444594459 -0.37099895649565
 6  7.07622081628163 -3.48541226342634  0.30289050725072
 6  6.28785605460546 -1.11365165386539 -0.03794613701370
 6 -4.84942891659166  1.50211375057506 -0.52871378477848
 6  4.96582742864286 -1.43805164806481  0.22700492029203
 6 -4.00542191459146  2.56748977517752 -0.69037022602260
 6 -2.60970140824082  2.63228118571857 -0.78210095789579
 6  3.92090605610561 -0.47521802790279 -0.12869238563856
 6  2.57346439503950 -0.72141661316132 -0.06673162576258
 6 -1.92503105330533  3.98734331693169 -0.91693084048405
 6 -1.82821990749075  1.51348409280928 -0.49095511191119
 6  1.67615616061606  0.38744030553055 -0.27129569146915
 6  2.09333265436544 -2.13043583088309  0.15515788368837
 6 -0.41555381428143  1.53367468876888 -0.43641700150015
 6  0.30149498029803  0.40572224002400 -0.20052331313131
 1 -11.23327006850685  1.34239602490249 -0.27650949614961
 1 -12.75787926102610 -1.68938895259526  2.30374826952695
 1 -11.09248691829183 -2.02800199519952  1.61937522012201
 1 -12.77809144274427 -3.26141524882488  0.24800966306631
 1 -9.61507690899090  0.18658033363336  2.31146977087709
 1 -10.88295846244625  1.46595967296730  2.41703642554255
 1 -11.21648924122412  0.02789620862086  3.52721689948995
 1 -13.68181938373837  0.35158116041604  0.70958742904290
 1 -13.39295506610661  0.46125773317332  2.40860486248625
 1 -12.87347603300330  1.77083070487049  1.38208869216922
 1  12.57969533623362  2.23106805630563  0.09108695189519
 1  12.97728215531553  1.85598963786379  1.62958055925593
 1 -12.65000847944794 -2.09964676117612 -2.00801499219922
 1  13.74730431523152 -0.32347209300930  1.13078341424142
 1 -9.43884625032503 -1.00940579957996 -0.08090053005301
 1  13.41519666376638 -1.44570761006101 -1.07785294129413
 1  13.22821923942394  0.32185076297630 -1.83569349314931
 1  9.33730042764276  1.79059911171117  1.25475072247225
 1  10.35104696629663  2.60020262266227  0.00122703820382
 1  10.69976364966497  2.91515648734874  2.03055920692069
 1  11.78370121142114 -0.67253450205020  2.54633105450545
 1  10.03674864546455  0.25456291529153  2.68826195429543
 1  11.64660555965597  1.15706350315032  3.25591053405341
 1 -10.13573607160716  0.57496740744074 -2.77731512721272
 1 -11.77108616491649  1.13666966546655 -2.56604366966697
 1 -11.82059990509051 -0.31220997229723 -3.40200795839584
 1 -14.49844311761176 -2.13221217381738 -0.28416662046205
 1  8.56494556255626  0.66791701690169  0.49455210141014
 1 -8.92827799669967  1.85467712051205 -0.44004932533253
 1  10.94401013551355 -2.61309280528053 -1.83018587008701
 1  9.88489135553555 -1.18536463816382 -2.48978491249125
 1  11.79592888658866 -1.21799488958896 -2.77299324742474
 1  15.28364754505450  1.10325842564256  0.68683665256526
 1  9.43540331663166 -2.23910699239924 -0.19120556305631
 1 -5.66291075207521 -1.17574472517252  0.17148454525453
 1 -7.27735663376338 -1.38706067926793  0.70273252565257
 1 -6.98227446264627 -1.32844129232923 -1.17129534433443
 1 -6.59336162266227  2.73041183628363 -0.72329553125313
 1  6.54487803680368 -3.57670109270927  1.37480717641764
 1  6.35129247444744 -3.81583677147715 -0.53428301950195
 1  8.06341623902390 -4.05028121272127  0.21695866316632
 1  6.66131455835584 -0.10323756315632 -0.20792291419142
 1 -4.55107733933393  0.38604827002700 -0.45109116671667
 1  4.62312591609161 -2.35352460546055  0.44297663686369
 1 -4.52182822852285  3.52557053885389 -0.73329298479848
 1  4.42860293649365  0.52908024692469 -0.41945116251625
 1 -0.85384514271427  4.21277272397240 -1.69587785968597
 1 -1.51569440784078  4.40169732703270  0.08052609280928
 1 -2.84745423352335  4.65732814831483 -1.07288558225823
 1 -2.22924180458046  0.59299592509251 -0.44871960196020
 1  2.15025406750675  1.47867185638564 -0.40263727882788
 1  2.38789731743174 -2.48066446884688  1.02179055755576
 1  1.04768984028403 -2.09508879998000  0.37059577447745
 1  2.46880963036304 -2.58462624982498 -0.70523476647665
 1  0.16106199109911  2.61712155185519 -0.38455544704470
 1 -0.15773866986699 -0.48113828362836 -0.17332798779878

