%nproc=4
%Mem=4GB
# td=(NStates=1) CAM-B3LYP/6-31G(d,p) 

TD

0 1
 8 -14.01003687888789 -2.18211659335934  0.56949720502050
 8  14.87160899769977  0.70448803540354  0.30264085998600
 6 -11.72481534113411 -0.06666059115912  1.52949776977698
 6 -10.99143610611061  0.31636440744074  0.11061477427743
 6 -11.96229170977098 -1.53195768016802  1.59805764706471
 6 -12.61620501400140 -2.22126319111911  0.34205835673567
 6 -11.59383467236724 -0.30711819011901 -1.15021051095110
 6  11.15298862946295  0.90445208770877  1.10893117281728
 6 -10.89534100730073  0.39411114991499  2.61566861756176
 6 -13.14951111351135  0.79054470137014  1.45855693249325
 6  12.54013119361936  1.42534196069607  0.87275466166617
 6 -12.20178116401640 -1.48070593839384 -0.90483325202520
 6  13.47512913381338  0.26934460706071  0.53943126202620
 6  10.68578805310531 -0.10760017021702 -0.00500691559156
 6 -9.57897666156616 -0.11682453065307  0.10765077267727
 6  13.09255723332333 -0.22760998039804 -0.81056664296430
 6  11.60969405820582 -0.50758580388039 -0.84012907170717
 6  10.22978986458646  2.17365667766777  1.09804251765177
 6  10.90867169966997  0.28301747714771  2.48578914021402
 6 -11.47842233973397  0.32917455895590 -2.45644790299030
 6 -8.53963006330633  0.74036901930193 -0.18843246574657
 6  9.33983891319132 -0.45611338713871  0.13403348714871
 6  11.23128307380738 -1.35975894269427 -2.03476308100810
 6 -7.11429275217522  0.44308154995500 -0.34532662196220
 6  8.74829128552855 -1.65694549204920 -0.09859500050005
 6 -6.64496591809181 -1.02973173007301 -0.10379749114911
 6  7.37323581108111 -2.07474034603460  0.00952989068907
 6 -6.23123289928993  1.54688826332633 -0.38222007860786
 6  7.05449864406441 -3.54099782198220  0.14881509970997
 6  6.36371364036404 -1.15033532223222 -0.02882522492249
 6 -4.85571954565457  1.53486702590259 -0.56199711311131
 6  4.90819166506651 -1.47705554845485 -0.05271305150515
 6 -4.05298667106711  2.67725075127513 -0.77158834783478
 6 -2.63808424652465  2.69910786838684 -0.95196794459446
 6  4.01203516901690 -0.48792929902990 -0.15915543194319
 6  2.52263931253125 -0.69968443994399 -0.28331328392839
 6 -1.97005555575558  4.02843742634263 -1.18059720712071
 6 -1.75480256575658  1.51517426182618 -0.83735975237524
 6  1.78750729572957  0.49519108060806 -0.37600616251625
 6  2.12739606070607 -2.19315210251025 -0.28186581868187
 6 -0.42139439833983  1.54188550985099 -0.72190555035504
 6  0.38062289308931  0.43101476927693 -0.58440170097010
 1 -11.13866060756076  1.30773255855586  0.05695385018502
 1 -12.56894036713671 -1.64834484818482  2.49429732443244
 1 -10.92509017861786 -2.13816301130113  1.66733001560156
 1 -12.32958659225923 -3.26537564486449  0.51906676877688
 1 -9.96977237853785 -0.15438376277628  2.75412403630363
 1 -10.63743390999100  1.46423950095010  2.45767048894889
 1 -11.24666225852585  0.49528294729473  3.61654583238324
 1 -13.97782898469847  0.66142214451445  0.71768823912391
 1 -13.68471424202420  0.27805941334133  2.32645664766477
 1 -12.99965865126513  1.93942756455646  1.58479896319632
 1  12.46704407110711  2.05772072157216 -0.06754891169117
 1  12.74003843094309  2.04590862976298  1.77083468466847
 1 -12.45651913051305 -1.89120591709171 -1.78943313401340
 1  13.52785237003700 -0.57422716851685  1.39042937883788
 1 -9.33886625232523 -0.94454931393139  0.48270583058306
 1  13.47058220232023 -1.26716975627563 -1.04487964396440
 1  13.47063348084808  0.50467904580458 -1.50087001080108
 1  9.13484018161816  1.89661971377138  1.34380962836284
 1  10.43329519111911  2.60065266766677  0.07170408590859
 1  10.53581725502550  2.77951292299230  1.77347349834984
 1  11.47928076937694 -0.57792504110411  2.42933935533553
 1  9.79675464606461  0.17396485548555  2.64026715481548
 1  11.54915581468147  1.05029282608261  3.26196113911391
 1 -10.37635013301330  0.65619553025303 -2.75281267696770
 1 -11.93532258855886  1.31581758025803 -2.59041610691069
 1 -11.91200904600460 -0.36494524582458 -3.37753551115112
 1 -14.53740701400140 -2.35104405700570 -0.20061826562656
 1  8.69914898289829  0.20810103530353  0.30125277147715
 1 -8.90025519441944  1.80439209200920 -0.45750107050705
 1  11.61398713321332 -2.23847534353435 -1.76959981148115
 1  10.12915578197820 -1.33318942064206 -2.16714264826483
 1  11.59102839653965 -1.01389447954795 -2.83787973607361
 1  15.40686986728673  1.05921402120212  1.16021399029903
 1  9.38388816511651 -2.68675175687569 -0.22358880138014
 1 -5.50519498049805 -1.20312746344634 -0.11265386858686
 1 -6.89981887998800 -1.40619259245925  0.90498275067507
 1 -7.03000923612361 -1.59818826702670 -1.03762197699770
 1 -6.74881716821682  2.54160295539554 -0.35158836053605
 1  7.24380792979298 -3.78785220782078  1.41939163486349
 1  5.93932127732773 -3.82355754355435 -0.23034262546255
 1  7.77272717011701 -4.18901508610861 -0.85361839453945
 1  6.53685211211121 -0.07531477087709 -0.29732185408541
 1 -4.41818405000500  0.51838150335033 -0.39531558915892
 1  4.49744334783478 -2.38366761976198  0.06885922512251
 1 -4.65345139083908  3.59992797459746 -0.84023367886789
 1  4.49479955615562  0.63644098299830 -0.24031324872487
 1 -1.45326508470847  4.10747219391939 -2.14265253715372
 1 -1.43000583898390  4.19962712001200 -0.25260722052205
 1 -2.70121961006101  4.85537795329533 -1.33344163786379
 1 -2.20929981038104  0.52009863536354 -0.85088981898190
 1  2.19918896099610  1.35807979717972 -0.60549756485649
 1  2.11761028872887 -2.59126552895290  0.84611298979898
 1  1.03362843414341 -2.15284457555756 -0.55304658975898
 1  2.57368011741174 -2.88852663986399 -0.87850209320932
 1  0.00376626152615  2.58616845654565 -0.93594058555856
 1 -0.05054795079508 -0.45074524432443 -0.55119577457746

