%nproc=4
%Mem=4GB
# td=(NStates=1) CAM-B3LYP/6-31G(d,p) 

TD

0 1
 8 -14.20261613681368 -1.93290167186719  0.23129338463846
 8  14.83726556335634  0.92677026362636  0.01667226312631
 6 -11.83160602020202  0.13926000090009  1.23428824882488
 6 -10.97068403090309  0.36583935493549 -0.04524081128113
 6 -12.20214569516952 -1.36987147154715  1.40134797609761
 6 -12.76496989048905 -2.07475854065407  0.20977512841284
 6 -11.56416170507051 -0.39635711401140 -1.26123161306131
 6  11.09381271187119  1.04222586508651  1.06527680738074
 6 -11.01167264046405  0.71200293909391  2.47786483718372
 6 -13.05071123352335  0.95000064696470  1.18172924972497
 6  12.53355053555356  1.48516794329433  0.70498788498850
 6 -12.19915090099010 -1.49120698849885 -1.11555432413241
 6  13.50120174107411  0.47451512411241  0.22029934883488
 6  10.67112658695870 -0.05214462466247  0.03089667476748
 6 -9.51672043594359 -0.12379522772277  0.05232524012401
 6  13.00944892249225 -0.05225244464446 -1.08626421272127
 6  11.47178026682668 -0.46981202650265 -0.96712177097710
 6  10.18033491909191  2.15817512951295  1.01695440884088
 6  11.15491632413241  0.26901607700770  2.44192475377538
 6 -11.12438693619362  0.09301094259426 -2.62368462666267
 6 -8.54235033533353  0.79124410681068 -0.20048367086709
 6  9.30478540784078 -0.46749452525253  0.06203628742874
 6  11.17236718221822 -1.30799376617662 -2.13026263096310
 6 -7.12802412531253  0.43866110791079  0.00106801750175
 6  8.82587904430443 -1.76456625412541 -0.07354249524952
 6 -6.76025744724472 -0.99674843174317  0.29680256885689
 6  7.40937942544254 -2.09247211921192 -0.01291235353535
 6 -6.15449522552255  1.43037661216122 -0.20985284188419
 6  7.03491668586859 -3.50662438463846  0.11462168036804
 6  6.42103937293729 -1.09272956165617 -0.01627396979698
 6 -4.72091606530653  1.34533807300730 -0.13628454185419
 6  5.10936178207821 -1.48299614251425  0.10484270407041
 6 -3.92477384978498  2.41455448164816 -0.43796498549855
 6 -2.57057749584958  2.55575353295330 -0.69194194199420
 6  4.04787875337534 -0.57909841594159 -0.12085160156016
 6  2.65250229882988 -0.85929040054005 -0.10681563416342
 6 -1.95236378657866  3.91248583118312 -0.76265541294129
 6 -1.82586967246725  1.37772051645165 -0.57817383378338
 6  1.75441398639864  0.21909347084708 -0.30420898279828
 6  2.05309863096310 -2.22850563786379  0.16103847174717
 6 -0.47680993989399  1.32218353965397 -0.61844520432043
 6  0.35312014281428  0.14626629442944 -0.41397465826583
 1 -11.09348609010901  1.38417020232023 -0.31302314751475
 1 -12.88163163626363 -1.46604661836184  2.17266516121612
 1 -11.33510117971797 -1.83197239223922  1.76015929852985
 1 -12.45608924252425 -3.08229733703370  0.44917978007801
 1 -10.09665506680668  0.20266194179418  2.43534215811581
 1 -10.75621578817882  1.77310038703870  2.37795251715171
 1 -11.50803839613961  0.52058547754775  3.47566174397440
 1 -13.74563576537654  0.72336833913391  0.33797026732673
 1 -13.97864363496350  0.81414302170217  1.91515551755176
 1 -12.83394207960796  1.93206682848285  1.02482296559656
 1  12.28743611031103  2.24788973847385 -0.12829498629863
 1  12.92286671377138  2.04230826972697  1.71096869806981
 1 -12.72769624822482 -2.01042783928393 -2.16165035573557
 1  13.52457204200420 -0.30795054085409  0.91968230413041
 1 -9.37357972367237 -1.10108496749675  0.44958251825182
 1  13.59239438353835 -0.95787882718272 -1.21379653565357
 1  13.29843626112611  0.64804338223822 -1.93873379717972
 1  9.07987468506851  1.74657470927093  1.42209745714572
 1  10.19618147974798  2.48944154655465  0.08249516501650
 1  10.44925859915991  2.97747271897190  1.71757790879088
 1  11.91866470777078 -0.42091934053405  2.25337175857586
 1  10.14532950355035 -0.13875641664166  2.49702283038304
 1  11.49478037713771  1.15310310711071  3.38326326932693
 1 -10.03633613161316  0.03961387208721 -2.63257065276528
 1 -11.23656271257126  1.25765176367637 -2.93837090239024
 1 -11.53345119021902 -0.57889664096410 -3.43808156575658
 1 -14.69994326762676 -1.75843479607961 -0.66440464426443
 1  8.72770183818382  0.46133635883588  0.26958960516052
 1 -8.77344251315132  1.80059171197120 -0.45229054945495
 1  11.62609834433444 -2.35823731973197 -2.13445629712971
 1  10.05303817021702 -1.33763986568657 -2.29527546154615
 1  11.75723501720172 -0.99921301140114 -3.03387933603360
 1  15.15576475677568  1.40260836063606  0.79557752665266
 1  9.54903467976798 -2.41045412711271 -0.41976841934193
 1 -5.73421788278828 -1.19972712341234  0.16377377417742
 1 -7.00243914201420 -1.01772374557456  1.49925217761776
 1 -7.22467870307031 -1.79375782398240 -0.40363857865787
 1 -6.55633792029203  2.39949874497450 -0.41556475817582
 1  7.06955050405040 -3.82215563816382  1.28356805250525
 1  5.98230557575758 -3.59339452725273 -0.47173676487649
 1  7.68292819021902 -4.29090527512751 -0.43230626332633
 1  6.89578800570057 -0.12953019241924 -0.30553267516752
 1 -4.21464369596960  0.18740840604060  0.00941488388839
 1  4.78198180168017 -2.38120737373737  0.39110144934493
 1 -4.54641068676868  3.33075105690569 -0.35975563106311
 1  4.41253132933293  0.44033137203720 -0.35496471387139
 1 -1.12221197939794  3.91791323802380 -1.55066333823382
 1 -1.46702954135413  4.25416257355736  0.02534057425743
 1 -2.63740322842284  4.71334374987499 -1.13468176187619
 1 -2.30552943334333  0.42316894239424 -0.47782251225122
 1  1.96394543664366  1.45448943814381 -0.11116813191319
 1  2.15783431113111 -2.34001040344034  1.40551893039304
 1  0.94077914921492 -2.27014630573057 -0.36855814091409
 1  2.81413416281628 -3.04601238843884 -0.19902414541454
 1  0.19460534543454  2.12253209290929 -0.77424441594159
 1 -0.21933482948295 -0.71283145294529 -0.43052370737074

