%nproc=4
%Mem=4GB
# td=(NStates=1) CAM-B3LYP/6-31G(d,p) 

TD

0 1
 8 -14.04113998919892 -2.16149453115312  0.36416667196720
 8  14.79847168396840  1.06778436503650  0.08488908480848
 6 -11.70130298989899 -0.11408533363336  1.32381720172017
 6 -10.95431239373938  0.45873864486449  0.08226193899390
 6 -12.01194667526753 -1.62049653405341  1.35198303960396
 6 -12.58435182868287 -2.07694875967597  0.03885803670367
 6 -11.67275256415641 -0.07668514681468 -1.17504299419942
 6  11.06326965756576  1.07792943544354  0.97333761346135
 6 -10.87075854905491  0.32615435423542  2.59199625032503
 6 -12.98656481888189  0.73148879577958  1.42903398019802
 6  12.46335351585159  1.67090651715172  0.60988837503750
 6 -12.33725471137114 -1.30685855365537 -1.07310007870787
 6  13.48244986588659  0.51426909950995  0.35600291919192
 6  10.63914338863886 -0.04863427362736 -0.02884929982998
 6 -9.51324008790879 -0.01301414961496  0.05637564516452
 6  12.95758373597360 -0.19748696809681 -0.92279786608661
 6  11.50811390019002 -0.46478152345235 -0.95252031083108
 6  10.06078296389639  2.26768608060806  1.13808652205221
 6  10.97183801630163  0.37100627602760  2.31524208550855
 6 -11.36801129862986  0.56063770527053 -2.47943020122012
 6 -8.56854295459546  0.92171715411541 -0.10757437993799
 6  9.24692962226223 -0.48988676447645  0.06042612641264
 6  11.13240318581858 -1.50490345714571 -2.06631623632363
 6 -7.11993331623162  0.56090333213321 -0.16680877017702
 6  8.85717217361736 -1.76154595209521 -0.00385552655266
 6 -6.72636405790579 -0.86508526542654 -0.04458156955696
 6  7.39149763726373 -2.20577344934493  0.01081001870187
 6 -6.18818859485949  1.52703627812781 -0.39728158475848
 6  7.13490668486849 -3.69722344454445  0.27588780698070
 6  6.34139140814081 -1.38008829752975 -0.13206554895490
 6 -4.71454542824282  1.37791133033303 -0.38402931633163
 6  4.94499534543454 -1.59618746164616  0.12028424822482
 6 -3.94283565596560  2.40898392459246 -0.70297148614861
 6 -2.49438987708771  2.55376333393339 -0.80491323912391
 6  3.97249121462146 -0.64822532863286 -0.12457197359736
 6  2.58045509410941 -0.88679315081508 -0.12914786738674
 6 -1.90130868106811  3.86158074067407 -1.11964111151115
 6 -1.73976106160616  1.50918366276628 -0.45674169056906
 6  1.81502004700470  0.20400196169617 -0.42158071997200
 6  2.12525584668467 -2.23071585888589  0.31789415731573
 6 -0.36213847274727  1.44361568286829 -0.55790915071507
 6  0.38939377017702  0.38354002180218 -0.31631489228923
 1 -11.22039878137814  1.38483026832683  0.35399355415542
 1 -12.54406787988799 -1.87724773847385  2.45015290999100
 1 -10.93238090769077 -1.95493468846885  1.33159644224422
 1 -12.30252388598860 -3.04020312761276 -0.00098523642364
 1 -10.01821722302230 -0.30130845524552  2.68784740864086
 1 -10.55785595219522  1.35456853385339  2.64345906780678
 1 -11.44930252255226 -0.04686126712671  3.60890506830683
 1 -13.76784798659866  0.57580358265827  0.41889836013601
 1 -13.39970574117412  0.55168677607761  2.41753575557556
 1 -12.68589727512751  1.72970659245925  1.52796327962796
 1  12.25881324802480  2.20350530003000 -0.38401055785579
 1  12.78262268936894  2.14633867276728  1.49337693889389
 1 -12.80966444504451 -1.61708850535053 -2.05271946264626
 1  13.48534811961196 -0.20003974977498  1.21046138203820
 1 -9.31118348404840 -0.97822268126813  0.23346090609061
 1  13.59192433653365 -0.98243128242824 -0.98477363336334
 1  13.24531094859486  0.36467504540454 -1.83708363216322
 1  8.96000269786979  2.04434448624862  1.33351859925993
 1  10.05894775637564  2.87513011541154  0.19469638513851
 1  10.52843651695169  3.06400137183718  1.84511066206621
 1  11.53693653495350 -0.55301254985499  2.38646506790679
 1  9.91861683228323 -0.00778331933193  2.33900702880288
 1  11.55992689178918  0.98455625242524  3.13944888788879
 1 -10.36938943694370  0.93079298999900 -2.66979437513751
 1 -11.99101815811581  1.63648964746475 -2.47581464676468
 1 -12.00290813591359 -0.03835258655866 -3.22165992359236
 1 -14.50135340864087 -2.39901885448545 -0.57627583138314
 1  8.33189225722572  0.07691791699170  0.38215086128613
 1 -8.61816698559856  1.96642829562956 -0.53791911231123
 1  11.49367510201020 -2.42718421442144 -1.55489834133413
 1  10.07675054145415 -1.53271937363736 -2.25696163016302
 1  11.84387368106811 -1.41380447054705 -2.92441838993899
 1  15.06320550085008  1.33896199599960  0.92701066996700
 1  9.58184796109611 -2.48648172987299 -0.08008445094509
 1 -5.65516997799780 -1.12835998669867 -0.64425702890289
 1 -6.74281317941794 -1.37203917711771  0.93294554695470
 1 -7.61676791199120 -1.53296174437444 -0.67030524532453
 1 -6.48346063256326  2.50827962306231 -0.39539274097410
 1  6.70665421442144 -3.95236865946595  1.28645834153415
 1  6.37878522372237 -4.08083327112711 -0.50413000420042
 1  8.04829472687269 -4.38306449104911 -0.14620765346535
 1  6.65498392529253 -0.35489272867287 -0.21286340824082
 1 -4.26363859545955  0.43802346754675 -0.23929998759876
 1  4.57463106660666 -2.52471172417242  0.46670901010101
 1 -4.59482552825282  3.17633561536154 -0.92064171967197
 1  4.16276635283528  0.37210454935494 -0.34031324872487
 1 -1.09323908210821  3.49835128182818 -1.85189346124612
 1 -1.47860069846985  4.27799495679568 -0.29953191299130
 1 -2.67880736883688  4.69821223672367 -1.38014630833083
 1 -2.35069394979498  0.58733535903590 -0.04280901090109
 1  2.37825686778678  1.07650163936394 -0.65484249934994
 1  1.92963149084909 -2.12162856525653  1.52846122462246
 1  1.03821889318932 -2.36052534363436 -0.31366265136514
 1  3.05170792019202 -3.04517230443044  0.03773953095310
 1  0.31357724262426  2.42123196289629 -0.61720871237124
 1 -0.14256715271527 -0.47838800860086 -0.07976863186319

