%nproc=4
%Mem=4GB
# td=(NStates=1) CAM-B3LYP/6-31G(d,p) 

TD

0 1
 8 -14.06021189638964 -2.07021540324032  0.35570582588259
 8  14.71063290009001  0.87682526912691 -0.13031243534353
 6 -11.78914177377738  0.05110118501850  1.25379019901990
 6 -11.01489845234524  0.31046381738174 -0.06524281148115
 6 -11.88783426402640 -1.42623710811081  1.30574841614161
 6 -12.56766015951595 -2.02946401120112  0.14838898979898
 6 -11.55429071797180 -0.36692417071707 -1.21992748264826
 6  11.12169550015001  1.04641628412841  0.98659893959396
 6 -11.01744321752175  0.58807054585459  2.43249029972997
 6 -13.12143830623062  0.74725037193719  1.08755983278328
 6  12.52154933543354  1.56152557905791  0.59876726292629
 6 -12.29980096599660 -1.41340920872087 -1.17336010471047
 6  13.39901152205221  0.44183185578558  0.13529084798480
 6  10.58952842714271 -0.04669407960796  0.02273585868587
 6 -9.56910567446745 -0.01930477867787  0.08255826342634
 6  12.87033501110111 -0.11615883528353 -1.14021960826083
 6  11.39141223002300 -0.46660170547055 -1.06684174297430
 6  10.13997088268827  2.26702601460146  1.01708442184218
 6  11.01575240774077  0.49627880328033  2.42512307360736
 6 -11.04440893839384  0.21696333783378 -2.63931618981898
 6 -8.52345844614462  0.80040502290229 -0.09414303680368
 6  9.20233516281628 -0.45163293909391  0.14956504030403
 6  10.93375332083208 -1.29221218801880 -2.15177478217822
 6 -7.11165248814882  0.43941118291829 -0.20725281458146
 6  8.74796125252525 -1.75708550605060 -0.07171231223122
 6 -6.70660208170817 -0.89063782068207  0.07236012461246
 6  7.36146463396340 -2.26077894989499  0.13216215391539
 6 -6.15527530353035  1.46949052355235 -0.34234609120912
 6  7.12140533473347 -3.68763248544854  0.24165438363836
 6  6.32585985498550 -1.40371065976598 -0.06343868626863
 6 -4.76381035473547  1.39853339253925 -0.38336925032503
 6  5.01454230013001 -1.62538038093809  0.07348956875688
 6 -3.90534190659066  2.54501752795280 -0.54430561956196
 6 -2.56850728882888  2.65196315391539 -0.56437918571857
 6  4.08409237473747 -0.59913041914191 -0.19818933533353
 6  2.64704175277528 -0.88304277577758 -0.01481643424342
 6 -1.87189573977398  4.01364594719472 -0.67155630303030
 6 -1.74501158665867  1.52784552895290 -0.27450346674667
 6  1.83195174017402  0.21058261976198 -0.19499806170617
 6  2.13821714281428 -2.15407819511951  0.27961032893289
 6 -0.34263652255226  1.42041336263626 -0.44164752455246
 6  0.47712254305431  0.27814948274827 -0.06217947874787
 1 -11.02826956845684  1.45033681898190 -0.23696554175418
 1 -12.44458793189319 -1.74580459415942  2.14155204990499
 1 -10.96844451405140 -1.92257145214522  1.59587286988699
 1 -12.22272590619062 -2.94601370867087  0.05591045314531
 1 -10.02864826612661  0.12417409300930  2.61431005490549
 1 -10.77914808140814  1.60592366936694  2.26922164406441
 1 -11.60206779907991  0.94016743574357  3.38709288708871
 1 -13.60449165096510  0.48053405570557  0.24489095939594
 1 -13.78954472507251  0.75149675707571  2.08164216621662
 1 -13.10963964936494  1.80409403120312  1.19107959125913
 1  12.40805817251725  2.14806975647565 -0.17543970077008
 1  12.95766019311931  2.07592163106311  1.46593419461946
 1 -12.53158663726373 -2.06091288778878 -2.20681487218722
 1  13.37145673047305 -0.18213795959596  0.96991732763276
 1 -9.33841620732073 -1.06145100410041  0.19342690269027
 1  13.62292743684368 -0.90495353465347 -1.26976213221322
 1  12.98568498599860  0.56562514041404 -1.91698162196220
 1  9.19073577117712  1.92465251705171  1.53622887028703
 1  10.04163602520252  2.68397099949995  0.01889880538054
 1  10.71019469276928  3.08684365606561  1.57550370137014
 1  11.80398323962396 -0.22129937853785  2.91651807320732
 1  9.98128309890989  0.08096555555556  2.76287941604160
 1  11.18890979007901  1.46237403420342  3.13691863486349
 1 -9.97035953395340  0.21651156185619 -2.72661005670567
 1 -11.41819087538754  1.24925092359236 -2.92882994829483
 1 -11.34481232633263 -0.35809456075608 -3.58040579817982
 1 -14.47015028832883 -2.47372632523252 -0.37902610641064
 1  8.46981604960496  0.17778800400040  0.50554320052005
 1 -8.83821899079908  1.93968562136214 -0.58397371777178
 1  11.37993372787279 -2.33319481548155 -2.03120597209721
 1  9.87505037143714 -1.20105620732073 -2.07236317031703
 1  11.19074836853685 -0.99366245634564 -3.27940388848885
 1  14.98915809610961  1.11899999979998  0.64003197209721
 1  9.46994677097710 -2.52368545024503 -0.31207765026503
 1 -5.67270173117312 -1.07823497419742 -0.19907251045104
 1 -7.00665956405641 -1.22115408860886  1.10115236763676
 1 -7.33596983218322 -1.49191763996400 -0.50630884568457
 1 -6.54514680118012  2.34581337643764 -0.46031923362336
 1  6.75120866986699 -3.79079250185019  1.38067776347635
 1  6.37552489768977 -4.24174936273627 -0.55168475967597
 1  7.96709660706071 -4.41859804440444  0.13488045534553
 1  6.52889131603160 -0.31563880328033 -0.27716983888389
 1 -4.40079231083108  0.43592325752575  0.02346628902890
 1  4.71457506100610 -2.56878613161316  0.18109044824482
 1 -4.37827387308731  3.49505748754875 -0.69879953545355
 1  4.49829990619062  0.35543288218822 -0.28659787718772
 1 -1.53900365856586  4.11141258795880 -1.90754902680268
 1 -1.16694953335334  4.08333549084909  0.12720076027603
 1 -2.47702719081908  4.91358377387739 -0.67705599929993
 1 -2.34648352875288  0.57012363786379  0.02666793679368
 1  2.25369441154115  1.15611960116012 -0.46092310741074
 1  2.46234476217622 -2.37875427782778  1.35659403790379
 1  0.97948301960196 -2.21654094519452  0.07160587548755
 1  2.73130587998800 -2.90716850405041 -0.29838408140814
 1  0.17798368326833  2.12476231593159 -0.90147713921392
 1  0.04987209120912 -0.63185335513551  0.30190953595360

