%nproc=4
%Mem=4GB
# td=(NStates=1) CAM-B3LYP/6-31G(d,p) 

TD

0 1
 8 -14.22656853205321 -2.02872125382538  0.37504776007601
 8  14.76831866866687  1.06984457105711  0.00481107700770
 6 -11.73064592419242  0.09812588748875  1.35188000800080
 6 -10.93195015751575  0.42483525452545  0.04404811761176
 6 -12.00494597519752 -1.40734521892189  1.39721756305631
 6 -12.78180157365737 -1.98218928372837  0.16179032993299
 6 -11.70176546544655 -0.13568104640464 -1.17729321922192
 6  11.09974330493049  1.10437207970797  0.97815809550955
 6 -10.87079855305531  0.46857859665967  2.50082713341334
 6 -13.01801796419642  0.92499814671467  1.40580165696570
 6  12.46096327682768  1.75103452995300  0.60324771097110
 6 -12.40278126402640 -1.25038290609061 -1.15065783448345
 6  13.43937555845585  0.57843551615162  0.39506682558256
 6  10.59758923322332  0.02056264606461 -0.01324773967397
 6 -9.56703546744675 -0.09755260346035 -0.10951094349435
 6  13.08200617821782 -0.26363358275828 -0.77193277957796
 6  11.58041112991299 -0.62396744204420 -0.81166622542254
 6  10.07406429202920  2.31814112611261  1.09077179057906
 6  11.13355418791879  0.53248242364236  2.40401096239624
 6 -11.48708320582058  0.57945958745875 -2.47092935113511
 6 -8.44115021532153  0.76592157455746 -0.20064368686869
 6  9.23617854715472 -0.38487626342634  0.14303438723872
 6  11.15949589508951 -1.52215518231823 -1.91971157585759
 6 -7.04989631253125  0.34068130993099 -0.21878396769677
 6  8.82869932633263 -1.72566236373637 -0.08581372237224
 6 -6.85768719021902 -1.07419617651765  0.03640652925293
 6  7.44089257675768 -2.18738161016102 -0.02537359965997
 6 -6.11301107710771  1.39315288978898 -0.38975083168317
 6  7.22021521572157 -3.66518024022402  0.10180039823982
 6  6.41719898889889 -1.19312960166017 -0.21363370577058
 6 -4.76038001170117  1.31438497769777 -0.22753366676668
 6  5.03589443534353 -1.53235107800780 -0.07543532373237
 6 -4.03768514091409  2.41795482168217 -0.64033522252225
 6 -2.57691812991299  2.47224518211821 -0.68747149494949
 6  4.03394736023602 -0.62305281138114 -0.29787930433043
 6  2.68861591019102 -0.92416688818882 -0.14199915251525
 6 -1.92733128332833  3.78555313791379 -0.81750089748975
 6 -1.76296338183818  1.34862760716072 -0.55295131153115
 6  1.81771031603160  0.12600416191619 -0.40917947984798
 6  2.21296461756176 -2.26378916621662  0.17404977287729
 6 -0.37932019091909  1.23595491679168 -0.59037239703970
 6  0.44271910271027  0.12322399019902 -0.26470973177318
 1 -10.85691243274327  1.50947273257326  0.00496865166517
 1 -12.53525699879988 -1.73122313601360  2.30800869556956
 1 -11.02104977457746 -2.00162935793579  1.67396067866787
 1 -12.44787842144214 -3.04179328662866 -0.22084722262226
 1 -10.06621202250225 -0.13556188058806  2.67833645754575
 1 -10.71474164076408  1.43627670467047  2.57864258615862
 1 -11.60848844114411  0.33255667466747  3.43521769956996
 1 -13.66476767856786  0.78232423472347  0.59755622592259
 1 -13.75843161376138  0.65439704710471  2.24514851685169
 1 -12.68740742614261  1.95159878167817  1.38805928922892
 1  12.46762412911291  2.08377332683268 -0.52606476327633
 1  12.85137956505650  2.30506454535454  1.44960256145615
 1 -13.03987746634663 -1.62539933643364 -2.04672886358636
 1  13.30332991779178  0.04144439863986  1.46564690059006
 1 -9.24990735643564 -1.38005286428643 -0.00347278727873
 1  13.64472961706171 -1.22131517081708 -0.94278943494349
 1  13.32056847434744  0.13514209210921 -1.85379530333033
 1  9.13584028162816  2.09348940074007  1.38754400180018
 1  9.82944480608061  2.85101770417042  0.03133004850485
 1  10.66989066236624  3.09361433313331  1.44269042004200
 1  11.60409325062506 -0.61487873647365  2.30455687708771
 1  9.93284825542554  0.18873633263326  2.63378650675068
 1  11.62786368546855  1.23938173497350  3.19156409940994
 1 -10.47718021602160  0.88082799349935 -2.58326572227223
 1 -11.86497555385539  1.68538453695370 -2.57751481678168
 1 -11.92404024912491 -0.17004575587559 -3.13207096469647
 1 -14.55966924022402 -2.03838279087909 -0.60952915671567
 1  8.56667573557356  0.36409663486349  0.39934258045805
 1 -8.68973414231423  1.90901255405541 -0.01636695709571
 1  11.73378911341134 -2.51654315031503 -1.86532938443844
 1  10.07729059545955 -1.49635573727373 -2.07048298229823
 1  11.73947324102410 -1.13218630873087 -2.88904485258526
 1  15.16617579787979  1.55399349914992  0.76454442334233
 1  9.65948572487249 -2.47389047074708  0.07685124262426
 1 -5.79025348634864 -1.33781093179318  0.27868526532653
 1 -7.39336823492349 -1.61969394259426  1.05795804820482
 1 -7.36770300550055 -1.62948139633963 -0.73844205900590
 1 -6.62936522302230  2.37103589868987 -0.65063826552655
 1  6.71304485348535 -3.81750517311731  1.05152484818482
 1  6.45796314151415 -4.00374556235624 -0.56292588378838
 1  8.06596649404941 -4.36746293089309 -0.14809784248425
 1  6.60299872677268 -0.00713795319532 -0.30034215611561
 1 -4.35481771337134  0.43435310051005  0.27428137053705
 1  4.82582618611861 -2.49008826182618  0.26718905810581
 1 -4.44912095779578  3.40717869966997 -0.80722037753775
 1  4.25727580378038  0.47873521242124 -0.37763698109811
 1 -1.24524428262826  3.77460890759076 -1.60721899379938
 1 -1.28782162056206  4.02343950125012  0.14005204540454
 1 -2.78661814991499  4.57967038253825 -0.97247554125413
 1 -2.07593647404740  0.27883450895089 -0.59240397039704
 1  2.20292933503350  1.13864785398540 -0.73018003310331
 1  2.91911043874387 -2.44331073347335  1.03644202270227
 1  1.08197326862686 -2.35052434353435  0.62540125502550
 1  2.34413716311631 -2.91966975417542 -0.68930317331733
 1  0.13449933483348  1.99707954765477 -0.81582857435744
 1 -0.08494139013901 -0.85166533633363 -0.17865852085209

