%nproc=4
%Mem=4GB
# td=(NStates=1) CAM-B3LYP/6-31G(d,p) 

TD

0 1
 8 -14.28574444964496 -1.91462984468447  0.48364862016202
 8  14.85853769056906  0.95654324092409  0.31460205610561
 6 -11.81304416401640  0.03132920782078  1.29975479547955
 6 -11.06701366386639  0.41287405840584  0.01048476127613
 6 -12.09232471307131 -1.51976646104610  1.42577041834183
 6 -12.87928132163216 -2.00350141494149  0.14617876877688
 6 -11.70235552445244 -0.19708718701870 -1.25749123902390
 6  11.14916824742474  1.09893153565357  1.04613489318932
 6 -11.03881535473547  0.58120985978598  2.55137218791879
 6 -13.18979514191419  0.84090973787379  1.30004108090809
 6  12.54854203470347  1.69737916441644  0.67799518571857
 6 -12.55825681158116 -1.35198306610661 -1.14684745344534
 6  13.48817043794379  0.52060973357336  0.37732505140514
 6  10.71649112341234 -0.03665307550755 -0.04778119301930
 6 -9.62252101600160 -0.00190303850385  0.03458346594659
 6  13.15076305390539 -0.08213543294329 -0.87771335763576
 6  11.65299838863886 -0.57000204550455 -0.93661872067207
 6  10.20116700230023  2.32619193119312  0.88102081548155
 6  11.00034086658666  0.56943611901190  2.40662122342234
 6 -11.35322982048205  0.39383102460246 -2.54530678887889
 6 -8.52068816911691  0.77460244264426 -0.22980660316032
 6  9.26976190549055 -0.48869664546455  0.02905298909891
 6  11.29852979847985 -1.57372033883388 -1.93482308700870
 6 -7.12568389128913  0.50155739753975 -0.15642773207321
 6  8.83729018541854 -1.74160395789579 -0.19978511951195
 6 -6.73576499799980 -0.92193094999500  0.20460334893489
 6  7.55162364986499 -2.17076994899490 -0.03792485478548
 6 -6.23986376237624  1.38685225972597 -0.41930378697870
 6  7.31815500970097 -3.61570529272927  0.16563678187819
 6  6.45125239423942 -1.26282657135714 -0.31525386778678
 6 -4.74760873457346  1.29573311251125 -0.39452036543654
 6  5.03937478337834 -1.54186202910291 -0.11622940314031
 6 -4.02491386378638  2.45282830903090 -0.60032122112211
 6 -2.52850328842884  2.44327228482848 -0.58531127892789
 6  4.04956892239224 -0.64141464756476 -0.35686520292029
 6  2.71850889948995 -0.87036150765076 -0.26246119871987
 6 -2.01576012621262  3.78674325692569 -0.68957810521052
 6 -1.82699978547855  1.35241798619862 -0.35703171957196
 6  1.76231477647765  0.20506206770677 -0.39484804670467
 6  2.28779210031003 -2.28233102040204  0.10652302020202
 6 -0.37887014591459  1.30059138043804 -0.39488284808481
 6  0.41594642544254  0.17280894869487 -0.31982524332433
 1 -10.97911465296530  1.61847363266327 -0.21663350855086
 1 -12.49264273737374 -1.56846686038604  2.37303519821982
 1 -11.17353502310231 -1.89808900390039  1.41713499609961
 1 -12.79032266586659 -3.00194930223022  0.05055991809181
 1 -9.88827422872287  0.28887056265627  2.44596322022202
 1 -11.09379954655465  1.68694177117712  2.51397611951195
 1 -11.39340693299330  0.33064648364836  3.47094127192719
 1 -13.71689289108911  0.23374937723772  0.43372984328433
 1 -13.79617538813881  0.83546515391539  2.25978998099810
 1 -13.01301998739874  1.82416603840384  0.93489397269727
 1  12.19944731143114  2.22861781128113 -0.13040519731973
 1  12.84529895699570  2.42228626752675  1.53789139033903
 1 -12.84388786738674 -1.88312510901090 -2.03495768646865
 1  13.40640022482248  0.03456371057106  1.45729606550655
 1 -9.51743410911091 -1.04240909990999  0.38909646964696
 1  13.79200434453445 -0.95942898219822 -1.13591874787479
 1  13.58742516001600  0.52037061496150 -1.63204312811281
 1  9.15347204480448  1.98275832763276  1.11467671507151
 1  10.17725958755876  2.56443904630463 -0.08987207170717
 1  10.33749742304230  3.17301227292729  1.30408655965597
 1  11.69738257955796 -0.35078232683268  2.45991241264126
 1  9.88594356495650  0.22463992299230  2.53021614971497
 1  11.25881678077808  1.32606040284028  3.21233617661766
 1 -10.19921241924193  0.08661857255726 -2.71614901060106
 1 -11.38757781408141  1.45791178967897 -2.71114818011801
 1 -11.93746159125913 -0.16510526182618 -3.50681843944394
 1 -14.69849312261226 -2.45341429402940 -0.24074227802780
 1  8.46674574257426  0.18889911511151  0.44337698389839
 1 -8.72852802170217  1.85781743454345 -0.43887920832083
 1  11.70570630513051 -2.57382887888789 -1.60783363486349
 1  10.32901576797680 -1.73489959165917 -2.24730066406641
 1  12.00336963066307 -1.50319340944094 -2.97898384648465
 1  15.02115129542954  1.39760786058606  1.05093306220622
 1  9.55314509080908 -2.41033411511151 -0.44681112361236
 1 -5.66060052105211 -0.97415456615661  0.24931232803280
 1 -7.26101499959996 -1.11777375057506  1.27798005040504
 1 -7.28742497769777 -1.46348479667967 -0.40931914671467
 1 -6.62742502900290  2.35346414151415 -0.80735393709371
 1  6.58121167016702 -3.85331875447545  0.93341303700370
 1  6.88956630183018 -4.11839702750275 -0.77268685988599
 1  8.17269716711671 -4.04811099569957  0.34678164546455
 1  6.58779720662066 -0.14269150855086 -0.59663178507851
 1 -4.21861409300930  0.35173483868387 -0.20391644924492
 1  4.74225782928293 -2.52308156115612  0.21119345854586
 1 -4.50151619731973  3.38686666846685 -0.56704636013601
 1  4.33157323352335  0.32431977087709 -0.76303552095210
 1 -1.25506526472647  3.82246369306931 -1.51052932483248
 1 -1.28277111551155  3.98847600490049  0.16572461266127
 1 -2.72375186328633  4.57014943044304 -0.78598689238924
 1 -2.15317419781978  0.35401202670267 -0.18556328632863
 1  2.17450649274928  1.20304429362936 -0.62595961106111
 1  2.68355688338834 -2.45683208560856  1.04375275377538
 1  1.08646371767177 -2.37052634373437  0.05444415931593
 1  2.73981673107311 -2.97869565676568 -0.53417766076608
 1 -0.01225534063406  2.21924176387639 -0.56688367986799
 1 -0.00044294029403 -0.77590776057606 -0.13675433043304

