%nproc=4
%Mem=4GB
# td=(NStates=1) CAM-B3LYP/6-31G(d,p) 

TD

0 1
 8 -14.18479435463546 -1.78981736343634  0.67849810511051
 8  14.75965780258026  1.14696228282828  0.14290488638864
 6 -11.65123798339834  0.17471354625463  1.28230305030503
 6 -10.91018798129813  0.34650742174217 -0.15404169136914
 6 -11.96306178677868 -1.28520300470047  1.40143798509851
 6 -12.80199359285929 -2.03972503730373  0.34923907480748
 6 -11.69404469336934 -0.39487696599660 -1.17273276317632
 6  11.13122645324532  1.02131377387739  1.14332461216122
 6 -10.81507298049805  0.68193993279328  2.32265931663166
 6 -13.03463962636264  1.05261090799080  1.20351142794279
 6  12.44609178967897  1.64505393189319  0.74384177037704
 6 -12.43306429232923 -1.49193706150615 -1.06706947564756
 6  13.52572419331933  0.59581725432543  0.26620393929393
 6  10.70691016531653 -0.01955136533653  0.04948853395340
 6 -9.49384814871487 -0.12363521172117 -0.11795178757876
 6  12.92897087468747 -0.07245446484648 -0.95817140344034
 6  11.56585967476748 -0.49790483578358 -0.90812587138714
 6  10.10198708430843  2.15943525552555  1.23391610501050
 6  11.14033486598660  0.29238841424142  2.40249081038104
 6 -11.35739023652365  0.06369801130113 -2.55626788498850
 6 -8.54553065336534  0.76952193459346 -0.20513413591359
 6  9.30864579387939 -0.43212098789879  0.16305638943894
 6  11.10907085258526 -1.31594456125613 -2.16735634033403
 6 -7.05432675557556  0.40883812561256 -0.28257034633463
 6  8.79994645104511 -1.70933073057306 -0.17219236023602
 6 -6.73476489798980 -0.95416417331733  0.14376726532653
 6  7.45284377187719 -2.11612448444845 -0.09462052435244
 6 -6.24624440044004  1.48261183568357 -0.54124598119812
 6  7.08642183638364 -3.54667839003900 -0.05390517231723
 6  6.36602387138714 -1.23429371807181  0.03523118071807
 6 -4.81496547024703  1.39672321152115 -0.30539145254525
 6  5.09708055395540 -1.60143798669867  0.03789600940094
 6 -3.97492886528653  2.45870889708971 -0.59247043604360
 6 -2.63324376247625  2.56281423902390 -0.56174892269227
 6  4.06116008150815 -0.77058756485649 -0.21819133553355
 6  2.60387743634363 -0.97763223472347 -0.26336128872887
 6 -1.83328187838784  3.81241582418242 -0.77795694309431
 6 -1.86369345484548  1.40226297069707 -0.44419043544354
 6  1.74808335333533  0.15245680718072 -0.33858242014201
 6  2.10953427452745 -2.36783957125713 -0.08100573267327
 6 -0.41348360726073  1.29353067436744 -0.36296965676568
 6  0.42243707450745  0.12319398719872 -0.43627688848885
 1 -10.74098083958396  1.36831861716172 -0.34509635483548
 1 -12.36415988908891 -1.43150316401640  2.23420131483148
 1 -11.00143781338134 -2.04581377637764  1.50552383498350
 1 -12.50980461406141 -3.04115322262226  0.54828969106911
 1 -9.86377177847785  0.12901457705771  2.36585520942094
 1 -10.82335250185019  1.63932700970097  2.29690441234123
 1 -11.33588118041804  0.49304272327233  3.25791996979698
 1 -13.50216141794179  0.79776577887789  0.29827629792979
 1 -13.56399216981698  1.07755936333633  2.15363936593659
 1 -12.97051573697370  2.15931955375538  1.30321080438044
 1  12.50926829352935  2.41621657115712  0.05295313851385
 1  12.96928135523552  2.29391343024302  1.63119072027203
 1 -12.69312279087909 -1.92108890539054 -1.92709690039004
 1  13.69221880668067 -0.16820656645665  1.14882521842184
 1 -9.08761112681268 -1.15918077707771  0.00547810781078
 1  13.74633977807781 -0.98011105040504 -0.96399155515552
 1  13.24079049654966  0.44172275017502 -1.85876580038004
 1  9.19502620022002  1.80077012881288  1.73575882328233
 1  9.66935879747975  2.54415701810181  0.28756567206721
 1  10.50770444374437  3.15862083378338  1.76276242724272
 1  11.92818565986599 -0.44857210581058  2.24543096449645
 1  10.17490246084608 -0.18031057205721  2.85503863196320
 1  11.60366126522652  0.89430722752275  3.22350729372937
 1 -10.27943044104411 -0.07597768706871 -2.84683207890789
 1 -11.74649370567057  1.04943094159416 -2.68749581488149
 1 -11.91118896399640 -0.60239899119912 -3.38372613021302
 1 -14.73866714001400 -2.53280223282328  0.10522231843184
 1  8.43900296829683  0.30343056825683  0.48308095429543
 1 -8.88599376827683  1.81353300610061 -0.23833915431543
 1  11.44090982548255 -2.37665916191619 -2.04490734223422
 1  9.97293015941594 -1.43034913661366 -2.13762969696970
 1  11.64005329902990 -1.18382147224722 -3.01148709680968
 1  14.81774095439544  1.56175427522752  0.98281625052505
 1  9.50250002630263 -2.35446852855286 -0.61460790329033
 1 -5.61398585958596 -0.85148229892989  0.55897329412941
 1 -7.18778767686769 -1.29479145234523  1.06127838023802
 1 -6.83911014621462 -1.70905935413541 -0.58374658945895
 1 -6.63190547704771  2.38986778187819 -0.76790999269927
 1  6.66398994799480 -3.96147957055706  0.96449614531453
 1  6.42053939913991 -3.95890107790779 -0.85365495669567
 1  7.86468636603660 -4.19163534813481  0.03981094839484
 1  6.58243667056706 -0.15105234463446  0.00422830093009
 1 -4.51136336793679  0.48933859905991 -0.38517457505751
 1  4.78719232273227 -2.81844109710971  0.03632597179718
 1 -4.43362940864086  3.47829581138114 -0.56427608310831
 1  4.37896797299730  0.35073241214121 -0.22848206560656
 1 -1.19620937913791  3.73896534323432 -1.62183045494549
 1 -1.27647048544855  3.89283644094409  0.14214225442544
 1 -2.43015250335033  4.61158357385739 -0.87788608230823
 1 -2.29806868726873  0.28687531303130 -0.50014474447445
 1  2.24033307540754  1.23572756195620 -0.27429444454445
 1  2.26143467116712 -2.44945134753475  1.05650402890289
 1  1.06355142644264 -2.32277156825683 -0.44644592969297
 1  2.68973172257226 -3.02429021622162 -0.54557880088009
 1  0.34217010191019  2.34197403710371 -0.13593058455846
 1 -0.15063795979598 -0.91201137093709 -0.52293294829483

