%nproc=4
%Mem=4GB
# td=(NStates=1) CAM-B3LYP/6-31G(d,p) 

TD

0 1
 8 -14.12006788198820 -1.78370675237524  0.46556681198120
 8  14.70015185198520  1.07776536313631  0.15471606750675
 6 -11.71812467206721  0.03308938383838  1.31497631763176
 6 -10.87557451995199  0.34326709770977  0.00084379717972
 6 -11.98385386598660 -1.38216270067007  1.46133397469747
 6 -12.67691108460846 -2.04171523632363  0.36450060096010
 6 -11.58601389028903 -0.39172665096510 -1.22556804670467
 6  11.02019535013501  0.97061870437044  1.11730200990099
 6 -11.00227170037004  0.54583632243224  2.47051410211021
 6 -13.06994315671567  0.76751239813981  1.20309138593859
 6  12.39823700420042  1.72138156465647  0.83999138533853
 6 -12.36910789668967 -1.55043291109111 -1.02295506420642
 6  13.46805842674267  0.61581925452545  0.41994931383138
 6  10.67589706400640 -0.08172758295830  0.04029761486149
 6 -9.44142290619062 -0.06306915511551  0.01907191479148
 6  13.04212218981898 -0.04097131653165 -0.79307489378938
 6  11.60087317611761 -0.45044008930893 -0.86790184898490
 6  9.93449033463346  2.04724403640364  1.10454316771677
 6  10.97369820232023  0.27611678707871  2.58679924122412
 6 -11.32745724322432  0.23405504700470 -2.51763402160216
 6 -8.42076817711771  0.83519850225023 -0.07460108260826
 6  9.28019294859486 -0.52803057885789  0.17214729852985
 6  11.27618756425642 -1.41166413321332 -1.99116872157216
 6 -7.06074739763976  0.56318356015602  0.06875478617862
 6  8.74532098849885 -1.85303510101010 -0.01462660366037
 6 -6.70276169766977 -0.91842059895990  0.28195108370837
 6  7.41106959445945 -2.21863473547355 -0.12639370167017
 6 -6.08065784178418  1.48190176467647 -0.14403626022602
 6  7.25172836703670 -3.69811353355336  0.15628584678468
 6  6.42303957295730 -1.28970925962596 -0.29744208660866
 6 -4.72951692539254  1.49411295049505 -0.26543745714571
 6  5.00290113601360 -1.48942678557856 -0.23843162336234
 6 -3.99850122252225  2.57900092629263 -0.76026721572157
 6 -2.52105254335434  2.56181413901390 -0.92603535133513
 6  3.98796276177618 -0.60086059215922 -0.39047856425643
 6  2.59710675927593 -0.96334080558056 -0.35269022162216
 6 -1.87149569976998  3.94841942454245 -0.98830797819782
 6 -1.78851593709371  1.35408815321532 -0.71147716411641
 6  1.76986553155316  0.17833939543954 -0.54457301920192
 6  2.10523384448445 -2.38711149844985 -0.22579021112111
 6 -0.40637289618962  1.44515583688369 -0.57440079987999
 6  0.29566439723972  0.28884055185519 -0.41620488128813
 1 -10.90941768326833  1.49243102840284  0.02657081188119
 1 -12.60631410451045 -1.68873888758876  2.35683357805781
 1 -10.94688235783578 -1.88008720372037  1.49722300490049
 1 -12.65990962456246 -3.12903201050105  0.61541640374037
 1 -10.24578998029803 -0.11505983038304  2.83892251615161
 1 -10.58930909750975  1.67015009200920  2.26249097099710
 1 -11.70934852715271  0.72490590959096  3.31112529032903
 1 -13.51984318611861  0.57882388468847  0.25114158445845
 1 -13.94388015861586  0.33978558595860  2.09754375637564
 1 -12.86189487488749  1.74168779057906  1.44823530683068
 1  12.37369473617362  2.49418436793679 -0.02492464926493
 1  12.96502092919292  2.26005004390439  1.56850445164516
 1 -12.72630610921092 -2.05643243974397 -1.72862705340534
 1  13.59153873867387 -0.13762350815081  1.21534187008701
 1 -9.41803416911691 -1.09631449044904 -0.05450789078908
 1  13.57765290939094 -0.79724276357636 -1.13358851485148
 1  13.21207762526253  0.80326890479048 -1.68652857665767
 1  8.98460515811581  1.79872992479248  1.66821206860686
 1  9.57782964456446  2.43319592199220  0.03390030553055
 1  10.34539821312131  2.92290726242624  1.65689184018402
 1  11.64602744404440 -0.59133638223822  2.37004342574257
 1  9.87933290389039  0.12602006100610  2.85179830793079
 1  11.39871077017702  0.98045584238424  3.34070901390139
 1 -10.34640713871387  0.10956086678668 -2.71748914461446
 1 -11.83631268756876  1.20377637613761 -2.50744781008101
 1 -11.86932477757776 -0.42312106340634 -3.17851560916092
 1 -14.66664993829383 -1.86291524412441 -0.34829303310331
 1  8.49835890389039  0.02807303250325  0.43638628482848
 1 -8.55869103800380  1.89944159695970 -0.00812613301330
 1  11.68910464496450 -2.57703919991999 -1.86877972947295
 1  10.20313317971797 -1.54060016171617 -2.22861879587959
 1  11.92279157285729 -1.16634972507251 -2.88036398449845
 1  14.71828100840084  2.02734083388339  0.81660962986299
 1  9.53830360666067 -2.74731781348135 -0.14933137563756
 1 -5.74137859885989 -1.08599575027503  0.62197959475948
 1 -7.53196209430943 -1.47440941414141  1.08765101750175
 1 -6.88332456765677 -1.56338478667867 -0.49621783658366
 1 -6.61223350985098  2.44469326442644 -0.31937513921392
 1  7.37284083308331 -3.97589101170117  1.27487718341834
 1  6.09554689988999 -3.81799698749875 -0.33129272047205
 1  8.07395729312931 -4.08847503210321 -0.59871290399040
 1  6.71464989188919 -0.22211945134513 -0.55610773267327
 1 -4.28487071867187  0.64347401260126  0.13409735213521
 1  4.63230683418342 -2.44333358635864 -0.06118377917792
 1 -4.55318136383638  3.50275825762576 -1.10922057755776
 1  4.11803187938794  0.54789212811281 -0.32720193759376
 1 -1.19299905810581  3.98926037273727 -1.91396966886689
 1 -1.27369020742074  4.13970112741274 -0.14576653645365
 1 -2.57628711681168  4.68231064656466 -1.20431872557256
 1 -2.31522040244024  0.56006263176318 -0.61132586258626
 1  2.20708975107511  1.09928391759176 -0.57786480158016
 1  1.97471599929993 -2.75208161056106  0.83046142464246
 1  0.97669274057406 -2.42131142224222 -0.48576986208621
 1  2.84513726312631 -2.90905869306931 -0.69168341134113
 1  0.08174405930593  2.27409724942494 -0.58232522402240
 1 -0.31909480548055 -0.56164633443344  0.02282162716272

