%nproc=4
%Mem=4GB
# td=(NStates=1) CAM-B3LYP/6-31G(d,p) 

TD

0 1
 8 -14.23529940514051 -1.93768214991499  0.33280353565357
 8  14.73375521232123  0.82784037063706  0.15067566346635
 6 -11.78158101770177 -0.09332325742574  1.37717253725373
 6 -11.01396835933593  0.30841361236124  0.09739345214521
 6 -12.00279576017602 -1.60801528592859  1.32822066336634
 6 -12.83486688018802 -2.03528459325933  0.10630478137814
 6 -11.57811310021002 -0.29147662596260 -1.16764225412541
 6  11.06464979557956  1.09055069756976  0.91513179287929
 6 -10.92617409060906  0.27938967776778  2.57148419911991
 6 -13.03280944334433  0.77025267216722  1.35324640144014
 6  12.45690287078708  1.62213163966397  0.65289267546755
 6 -12.42877386328633 -1.40312818061806 -1.17309007770777
 6  13.46124774567457  0.32708038063806  0.41855917481748
 6  10.65988546284628 -0.02295170537054 -0.03617003190319
 6 -9.46306507040704 -0.04412726092609  0.00440044764476
 6  12.96454443204320 -0.25128234763476 -0.88811439773977
 6  11.50403349214921 -0.65983102840284 -0.87623268206821
 6  10.28026491209121  2.42571188318832  0.89028174157416
 6  10.95785661816182  0.64370354575458  2.35867642894289
 6 -11.28430292779278  0.38263990549055 -2.45776803500350
 6 -8.50811691199120  0.88989397179718 -0.18894251675168
 6  9.24492942224222 -0.33607138293829 -0.04253416961696
 6  11.26546649214921 -1.58064103090309 -1.99168877357736
 6 -7.09210053295330  0.56726396819682 -0.21400348964896
 6  8.77130358675868 -1.64889468696870  0.08678353735374
 6 -6.66461788328833 -0.89254801170117  0.10722361096110
 6  7.38614710221022 -2.03382625462546 -0.01653271557156
 6 -6.19582935893589  1.62278585308531 -0.27705956255626
 6  7.24491768596860 -3.57003072527253  0.13522374057406
 6  6.38240550955095 -1.28346863556356 -0.19005134753475
 6 -4.78633260696070  1.49209274847485 -0.19982089548955
 6  4.93935478137814 -1.54587243014301 -0.13328110831083
 6 -3.91531290369037  2.52587561376138 -0.51188237723772
 6 -2.44086452455246  2.58259621722172 -0.69842259005901
 6  3.98592255775578 -0.62687319341934 -0.08779829622962
 6  2.62349939853985 -0.83066753825383 -0.02228718131813
 6 -1.88058660886089  3.91496607920792 -1.05491463886389
 6 -1.69463654915492  1.47651039543954 -0.53230924732473
 6  1.67043558855886  0.19157071857186 -0.27851641354135
 6  2.09184250535053 -2.35719850715072  0.20360272817282
 6 -0.30915317421742  1.44587590889089 -0.56878023782378
 6  0.33478830963096  0.27504917271727 -0.34448770957096
 1 -11.10275701720172  1.42598438373837 -0.05231707690769
 1 -12.73996746984698 -2.01033104680468  2.01718961366137
 1 -11.10518818841884 -2.29474866986699  1.52151543414341
 1 -12.82901653525353 -3.26824593189319  0.06422128422842
 1 -9.92471787308731 -0.50374869926993  2.49028765266527
 1 -10.68100826742674  1.31802487948795  2.57983270517052
 1 -11.49492708500850  0.15275869486949  3.56568074587459
 1 -13.49865106690669  0.83820982328233  0.32898936923692
 1 -13.83079885048505  0.14256586398640  2.04100810281028
 1 -12.64096278167817  1.86353997579758  1.60581106440644
 1  12.84368173487349  2.21145609510951 -0.23401555835584
 1  12.82328675577558  2.10396443534353  1.50453805500550
 1 -12.85466894549455 -1.84765156165617 -2.07619180988099
 1  13.46814639943995 -0.36358610441044  1.21163149904990
 1 -9.21578394409441 -1.10943580258026 -0.07633007300730
 1  13.53522866696670 -1.23185622492249 -1.06326148214821
 1  13.22063848134814  0.29697827572757 -1.81682160596060
 1  9.31095779337934  2.18370842264226  1.21541678907891
 1  10.21944380598060  2.91141374377438 -0.11729481398140
 1  10.63347702100210  3.15245021672167  1.48230438143814
 1  11.52682552385239 -0.28166541514151  2.50712713411341
 1  9.94269924052405  0.24340179917992  2.68837196529653
 1  11.10648154725472  1.29191698849885  3.26859180218022
 1 -10.15312781078108  0.37794770547055 -2.52182957865787
 1 -11.65556461276128  1.49802580108011 -2.44841190649065
 1 -11.64890273537354 -0.22484123542354 -3.33349110671067
 1 -14.84277755105511 -2.17776672927293 -0.44459266306631
 1  8.47447651565157  0.44323454865487  0.26478912511251
 1 -8.63816898579858  1.90697235003500 -0.21581690209021
 1  11.54691042554255 -2.58489998599860 -1.77806065756576
 1  10.26897976437644 -1.64232033373337 -2.51349728372837
 1  11.94984427812781 -1.27990108020802 -2.81262721082108
 1  15.13874305460546  0.98840694049405  1.03246121502150
 1  9.48556833313331 -2.37689077077708 -0.05629207170717
 1 -5.55065952695270 -1.14884203490349  0.04651204800480
 1 -7.02278117621762 -1.23434540774077  1.03840609300930
 1 -7.03716995219522 -1.49477792599260 -0.80876909170917
 1 -6.68889117561756  2.61759055415542 -0.40033323502350
 1  6.67146069506951 -3.81833525612561  1.01653134883488
 1  6.68842618781878 -4.00064525232523 -0.92760235143514
 1  8.26579647704770 -4.19169535413541  0.10168713601360
 1  6.61096952385239 -0.23217045644565 -0.37160928282828
 1 -4.45181741334133  0.57138680388039 -0.23096915451545
 1  4.78371197469747 -2.45606485948595  0.04336667586759
 1 -4.10723676937694  3.54681266306631 -0.74957461296130
 1  4.21501157735774  0.34179151805181 -0.37569678707871
 1 -1.17320707890789  3.89050049674968 -1.99094736663666
 1 -1.19175201360136  4.35926308360836 -0.14899685948595
 1 -2.50784027212721  4.63398581408141 -1.19683797749775
 1 -2.13744262466247  0.51789841534153 -0.09302403240324
 1  2.33102214431443  1.17540152935294 -0.63001001610161
 1  2.39084761246125 -2.80107651005101  1.21310968946895
 1  0.94684975627563 -2.50700999209921 -0.15688697379738
 1  2.58529127852785 -3.06943473067307 -0.44405864886489
 1  0.38398428332833  2.27333717341734 -0.83746073757376
 1 -0.19071196719672 -0.69028919871987 -0.40066072107211

