%nproc=4
%Mem=4GB
# td=(NStates=1) CAM-B3LYP/6-31G(d,p) 

TD

0 1
 8 -14.11597747294729 -2.06817519921992  0.45578583388339
 8  14.75148698549855  0.87317490409041  0.35472606850685
 6 -11.87268012761276 -0.01098502360236  1.34801962196220
 6 -11.01587855035504  0.33946671767177  0.13269698249825
 6 -12.00368584918492 -1.46349083348335  1.46876471777178
 6 -12.67960135363536 -2.13455452025203  0.34405855675568
 6 -11.61262655155516 -0.40454793309331 -1.06440193009301
 6  11.08620195079508  1.05328697119712  1.05894617431743
 6 -11.05077655085509  0.49397113591359  2.61565861656166
 6 -13.24509067146715  0.67973362026203  1.17441851865186
 6  12.53675085558556  1.53064249074907  0.88195558175818
 6 -12.28885987188719 -1.53534140194019 -0.92811558025803
 6  13.42561418231823  0.38796646924692  0.50995831473147
 6  10.71922139643964 -0.05116452665267  0.05269885498550
 6 -9.56330509440944 -0.04354720292029  0.17828783638364
 6  13.09221719931993 -0.29681690109011 -0.71775736203620
 6  11.67904099289929 -0.65802084738474 -0.80526558535854
 6  10.02864975057506  2.13770308230823  1.03320603400340
 6  11.02666349884988  0.44604377977798  2.52556311761176
 6 -11.29903440094009  0.29631127262726 -2.41729398759876
 6 -8.59002510281028  0.83563854625463 -0.19919354185419
 6  9.34270920022002 -0.49284706050605  0.08472855665567
 6  11.36145609110911 -1.54447741454145 -1.90537014171417
 6 -7.17591891479148  0.57277451925193 -0.17271936123612
 6  8.78387484388439 -1.66340613811381 -0.05371051205121
 6 -6.74025544704470 -0.80130888778878  0.36996988558856
 6  7.44957344484448 -2.15864873687369 -0.09839090139014
 6 -6.20957073307331  1.50890446494649 -0.33755561216122
 6  7.27493068726873 -3.59737345954595  0.10643086128613
 6  6.37822509150915 -1.29324961366137 -0.44019636203620
 6 -4.80436441014102  1.39346288548855 -0.36359727312731
 6  5.02688353425343 -1.60751859475948 -0.33489126932693
 6 -4.00095146754675  2.53027605380538 -0.63650483948395
 6 -2.63161359945995  2.60685864346435 -0.77087983578358
 6  4.04671863736374 -0.62205271137114 -0.67417693409341
 6  2.68907595619562 -0.72943741524152 -0.46051100370037
 6 -2.06142469266927  4.01486606920692 -1.02224137153715
 6 -1.78056514201420  1.52769551395140 -0.60701671807181
 6  1.85366391139114  0.44251581308131 -0.59610817271727
 6  2.10821414251425 -2.05387817511751 -0.18966659875988
 6 -0.43077533643364  1.50294161546155 -0.67256061586159
 6  0.41272610341034  0.44848651645165 -0.52052531333133
 1 -10.93539028052805  1.47766955225523 -0.15859770497050
 1 -12.68067154025402 -1.64879489318932  2.32910080478048
 1 -10.98728639823982 -2.00313950895090  1.85807909050905
 1 -12.41478511211121 -3.18776788408841  0.35909077117712
 1 -10.00522592389239  0.11217289288929  2.76462508640864
 1 -11.02983314991499  1.67549062606261  2.51138586048605
 1 -11.58567615991599  0.25980939993999  3.41712589038904
 1 -13.72609381118112  0.54941094339434  0.15951242154215
 1 -14.01077684828483  0.43807541494149  1.88604260626063
 1 -13.15102378777878  1.81530515231523  1.26810729402940
 1  12.65906327302730  2.15269021852185  0.02347019021902
 1  13.00706513361336  1.96965100400040  1.78121572277228
 1 -12.82542602120212 -1.83336013251325 -1.87030122082208
 1  13.44997458225823 -0.32797254305431  1.42161249714971
 1 -9.21568393409341 -1.04175903490349  0.40767832783278
 1  13.79200434453445 -1.18929196849685 -0.79282443844384
 1  13.36308272577258  0.36597517541754 -1.51761168496850
 1  9.09431612921292  1.86322637443744  1.67238248564856
 1  9.74564642624262  2.26121872427243 -0.00093317781778
 1  10.55449912321232  2.89635460716072  1.57274342534253
 1  12.11609445074508 -0.11879912851285  2.60498692009201
 1  10.10841581218122 -0.01410395139514  2.81336446454645
 1  11.05514641374137  1.45915371217122  3.39161410441044
 1 -10.17490998899890  0.24943485418542 -2.75760315601560
 1 -11.37336639293929  1.39554555305530 -2.18017508280828
 1 -11.96215406050605  0.07432868156816 -3.20220797839784
 1 -14.49843311661166 -2.59592854545455 -0.32836103990399
 1  8.64786385438544  0.36564678987899  0.38312095829583
 1 -9.03169833873387  1.85309696249625 -0.39854517491749
 1  11.73775951045105 -2.66984848084808 -1.70017286878688
 1  10.33265613201320 -1.56272237393739 -2.00949688368837
 1  11.79641893559356 -1.06944003410341 -2.67341328942894
 1  15.23572275257526  1.26577467726773  1.15827379627963
 1  9.45803557985799 -2.58877195889589 -0.37365380788079
 1 -5.62936739773977 -0.88866601730173  0.60418781558156
 1 -7.26635553365337 -1.19778175137514  1.22948520092009
 1 -7.05596183138314 -1.39527797599760 -0.57137535233523
 1 -6.49991227772777  2.47085588068807 -0.63984718641864
 1  6.30011356035603 -3.68768219081908  0.99651934763476
 1  6.87019436463646 -4.08352354015402 -0.66182577377738
 1  8.36081597899790 -4.01737792239224  0.54856182348235
 1  6.65879430633063 -0.35247248664866 -0.29017113901390
 1 -4.36366859845985  0.57679734493449 -0.35720177777778
 1  4.76286989048905 -2.58177743074307 -0.08533619441944
 1 -4.64110015571557  3.32979096089609 -0.76504616011601
 1  4.57498757495750  0.37601494039404 -0.94636385378538
 1 -1.86407616581658  4.03713516021602 -2.16396466836684
 1 -0.89295213361336  4.05537269456946 -0.54561652145214
 1 -2.80058954705471  4.76644906040604 -0.79176747044704
 1 -2.38474735513551  0.64671129662966 -0.23227795779578
 1  2.34468351045105  1.43067705690569 -0.84975199029903
 1  2.61175970367037 -2.53382978537854  0.71186956545654
 1  0.98331340264026 -2.05579487058706  0.03413212811281
 1  2.26169891929193 -2.83630141734173 -1.04893913691369
 1  0.17743362826283  2.30717055675568 -0.97909490099010
 1 -0.18461135713571 -0.59328949874987 -0.08187884288429

