%nproc=4
%Mem=4GB
# td=(NStates=1) CAM-B3LYP/6-31G(d,p) 

TD

0 1
 8 -14.02131800700070 -2.13599198089809  0.41552180748075
 8  14.69803163996400  0.95708329492949  0.09529012491249
 6 -11.73255611521152  0.04940101500150  1.29603442344234
 6 -10.93682064456446  0.28578134913491 -0.00839712691269
 6 -11.96374185478548 -1.46901138553855  1.52501034233423
 6 -12.54590798429843 -2.29703076787679  0.35567971887189
 6 -11.53495878477848 -0.46772425072507 -1.16208169806981
 6  10.97398072867287  0.94879652215222  1.16734701440144
 6 -11.00538201140114  0.60999273807381  2.47223427412741
 6 -13.09524568696870  0.78992463936394  1.15208628542854
 6  12.43570075057506  1.53956338283828  0.80834822102210
 6 -12.22451343724373 -1.60619848764876 -0.98838160686069
 6  13.41639326022602  0.45828350095010  0.44911223012301
 6  10.56054552885289 -0.01726113631363 -0.08356477137714
 6 -9.49708847274728 -0.00458330653065  0.13285329292929
 6  12.90737871547155 -0.17946516591659 -0.81880746704670
 6  11.49720280908091 -0.47076212151215 -0.96720177897790
 6  10.01063794939494  2.16906621862186  1.06923963736374
 6  10.94872570507051  0.23684285968597  2.48583914521452
 6 -11.26602109960996  0.12034367586759 -2.55945820402040
 6 -8.47759385968597  0.97027200960096 -0.16272989548955
 6  9.18392332163216 -0.49398717451745 -0.01006092229223
 6  11.01803174867487 -1.29192215901590 -2.17659726442644
 6 -7.10897222012201  0.63435067686769 -0.17347943724372
 6  8.73075953235324 -1.78057785528553 -0.14315945694569
 6 -6.66419784128413 -0.66822557945795  0.17950083868387
 6  7.41187967546755 -2.22387525952595 -0.06495755805581
 6 -6.17880765676568  1.56713028752875 -0.46214807140714
 6  7.12451564576458 -3.78287200940094 -0.09432921472147
 6  6.36608387738774 -1.30533082178218 -0.03847619001900
 6 -4.72261623532353  1.58699223842384 -0.51155206860686
 6  4.94661550745074 -1.62512035493549 -0.08522630283028
 6 -3.94883625602560  2.64773779998000 -0.55787697669767
 6 -2.51253169126913  2.62226018361836 -0.67635038283828
 6  4.04543850935094 -0.57350785688569 -0.22497201360136
 6  2.69376642524252 -0.83069754125413 -0.05200015261526
 6 -1.85900445064506  4.00443502610261 -1.00968011541154
 6 -1.68829591509151  1.46569931433143 -0.60317633403340
 6  1.82209075407541  0.32290385188519 -0.17005556745675
 6  2.11100442154215 -2.21487427472747  0.14261662956296
 6 -0.36764902380238  1.46874819611961 -0.66311967176718
 6  0.34293912471247  0.32105377317732 -0.29951321212121
 1 -11.03297003850385  1.27846963226323 -0.23318516371637
 1 -12.45035850895090 -1.66272628632863  2.49424731943194
 1 -10.84804247384738 -1.66128532353235  1.61233451605161
 1 -12.11597523112311 -3.28637774507451  0.39515437753775
 1 -10.05781118241824  0.13542521812181  2.73911253515352
 1 -11.06675684228423  1.67112018901890  2.19034375627563
 1 -11.57697528982898  0.66864028302830  3.38313249104910
 1 -13.57719892169217  0.57739374167417  0.15623209350935
 1 -13.81776754735474  0.51510311771177  1.88904290629063
 1 -13.01590027542754  1.83597721952195  1.29506999029903
 1  12.52230959765977  2.42078702820282  0.12389023222322
 1  12.66575100220022  2.34374841374137  1.66685428662866
 1 -12.42100557915792 -2.16971376787679 -1.80561475217522
 1  13.42481206600660 -0.31273101890189  1.16907724362436
 1 -8.93410577627763 -1.16382124112411  0.21720928092809
 1  13.49480462456246 -1.01885492479248 -0.88502365836584
 1  13.21308772627263  0.36482506040604 -1.77741766556656
 1  8.95716241384138  1.95127517931793  1.52621786918692
 1  9.80491235283528  2.42980558295830  0.23473038853885
 1  10.35663933723372  3.20806577827783  1.49732588358836
 1  11.93260610191019 -0.44465171377138  2.66116253765377
 1  10.00246521712171 -0.24181672267227  2.53688681678168
 1  11.03347424652465  0.93752154895490  3.28965390839084
 1 -10.41000349834984  0.48742865356536 -2.71703909960996
 1 -12.06681573787379  1.01284728322832 -2.71137820312031
 1 -11.54484232933293 -0.65170392169217 -3.42902065966597
 1 -14.23556682998300 -2.48242719531953 -0.41378958275828
 1  8.60805987398740  0.24384460966097  0.22665531173117
 1 -8.88486365526553  1.90484213701370 -0.44207952835284
 1  11.35134086858686 -2.25137663366337 -1.90385323682368
 1  9.99495236163616 -1.18450455215522 -2.27388332233223
 1  11.54492378607861 -0.86264935503550 -2.97851379947995
 1  15.51932111241124  0.82546064586459  1.05689365826583
 1  9.43569334563456 -2.49976305800580 -0.30071651415142
 1 -5.55244970597060 -0.58354550525053  0.21455885268527
 1 -7.04716361446145 -0.79652162536254  1.22997524992499
 1 -7.04403063826383 -1.54965341354135 -0.35474368916892
 1 -6.42285457195720  2.64945374047405 -0.58567176887689
 1  6.76407995699570 -4.16949037163716  0.86462615831583
 1  6.56102344754475 -4.28663385118512 -0.81083067426743
 1  7.90968086548655 -4.33100928552855 -0.22980601330133
 1  6.54176260316032 -0.21143838323832  0.35849372747275
 1 -4.24861709330933  0.48152781798180 -0.36961301890189
 1  4.76352995649565 -2.61897115011501 -0.03053071387139
 1 -4.32203824952495  3.60946892869287 -0.52978263376338
 1  4.39701977817782  0.46574391329133 -0.26703592099210
 1 -1.11582134033403  4.07526897359736 -1.89811808370837
 1 -1.22719555795580  4.53207036433643 -0.20277223702370
 1 -2.65294478257826  4.74936735223522 -1.47255554925493
 1 -2.15380426082608  0.48299492499250 -0.50138486848685
 1  2.31802084418442  1.36515050425043 -0.41373838893889
 1  2.24494302200220 -2.65579198159816  1.21184956345635
 1  1.08666373767377 -2.25952524362436 -0.07612889798980
 1  2.67968071747175 -2.83599138633863 -0.52279652265227
 1  0.35598148304830  2.34817465716572 -0.70010700220022
 1 -0.16581947794780 -0.60597076687669 -0.18508916391639

