%nproc=4
%Mem=4GB
# td=(NStates=1) CAM-B3LYP/6-31G(d,p) 

TD

0 1
 8 -14.13504938013801 -1.90759914161416  0.68768902420242
 8  14.94591642844284  0.66372395899590  0.55395599149915
 6 -11.82787564716472  0.14233030793079  1.29760458045805
 6 -11.02999996249625  0.32425519651965  0.05414912771277
 6 -12.00928640924092 -1.40189467386739  1.52323016431643
 6 -12.71350474397440 -2.13730479527953  0.40261441234123
 6 -11.70124541344134 -0.46807428572857 -1.11776726662666
 6  11.19034236483648  0.96472811531153  1.24335461516152
 6 -11.05956742994299  0.76028776757676  2.51661871257126
 6 -13.22053821622162  0.92151779867987  1.20541161796180
 6  12.65290247074707  1.46155558205821  0.98283566976698
 6 -12.34498548444845 -1.59402727052705 -0.90937370607061
 6  13.54970659155916  0.25692336493649  0.52915023392339
 6  10.77897737203720  0.03210380018002  0.09920350545054
 6 -9.52982174607461 -0.12050489868987  0.15336534413441
 6  12.95827380498050 -0.13865108450845 -0.88889447574757
 6  11.52012510131013 -0.46788183348335 -0.88282334113411
 6  10.34135102070207  2.15870518251825  1.04966768016802
 6  11.00258109060906  0.30013918931893  2.47603816511651
 6 -11.37246174367437 -0.04545290379038 -2.51065332353235
 6 -8.51347744804480  0.82428741114111 -0.22484610711071
 6  9.28601353065307 -0.29611738753875  0.00295037883788
 6  11.21688163366337 -1.21782474927493 -2.23567317201720
 6 -7.13680500340034  0.46843408520852 -0.24944703400340
 6  8.79994645104511 -1.54931472897290 -0.13859900090009
 6 -6.72514393589359 -0.90454921182118  0.05323821242124
 6  7.48806729422942 -2.12473534553455 -0.25420648294829
 6 -6.20580035603560  1.42644621912191 -0.50352220882088
 6  7.11232442664266 -3.56453017521752 -0.13708349014901
 6  6.43987125612561 -1.12803309200920 -0.24079642204220
 6 -4.86860083378338  1.36440998019802 -0.44563547694769
 6  5.05254610051005 -1.39698754165417 -0.25003278347835
 6 -4.12377374977498  2.50223324952495 -0.70493168216822
 6 -2.66699713781378  2.52232018961896 -0.76689943774377
 6  3.98416238173817 -0.56840734683468 -0.34598411481148
 6  2.69523657225723 -0.74812928442844 -0.28166311891189
 6 -1.95292384258426  3.84083866646665 -0.99565871327133
 6 -1.85885297079708  1.40540328472847 -0.57893390979098
 6  1.76158470347035  0.28173973547355 -0.34207276917692
 6  2.15692901400140 -2.11012379967997  0.02636500440044
 6 -0.47003926282628  1.45342666396640 -0.48055141494149
 6  0.32539737053705  0.24800646844684 -0.44172743354335
 1 -10.89976671817182  1.35708749404941 -0.50938278347835
 1 -12.61763523662366 -1.48492850655066  2.34802269696970
 1 -11.15820348994899 -1.87371656665667  1.74724800740074
 1 -12.24242787638764 -3.19279838713871  0.42316717881788
 1 -9.98539394069407  0.43357503310331  2.67727635153515
 1 -10.93278344494449  1.80504358135814  2.24939966186619
 1 -11.63621121342134  0.64891831083108  3.46706088388839
 1 -13.90752195399540  0.46751275357536  0.41186765706571
 1 -13.44610038063806  0.76753836123612  2.20963496549655
 1 -12.93455214061406  2.00361398319832  0.91027151045105
 1  12.77843521022102  2.18594354385439  0.27570541374137
 1  13.12773720082008  1.79732377127713  1.78474607580758
 1 -12.77650112871287 -2.20208700520052 -1.71009520022002
 1  13.21487107190719 -0.57227697349735  1.18038837473747
 1 -9.36217858355836 -1.27173203220322  0.29778733873387
 1  13.66576172027203 -0.93820685998600 -0.95694085008501
 1  13.01295771327133  0.59151772967297 -1.55539546334633
 1  9.20704740234023  1.70439049084909  1.11549679707971
 1  10.45690755235524  2.66946954935494  0.02984990049005
 1  10.44588826212621  2.89948492019202  1.90280643164316
 1  11.85143798509851 -0.61526877547755  2.62281870327033
 1  10.07436240684068 -0.36025856685669  2.40914404250425
 1  10.96291719081908  1.00064786158616  3.19554449744975
 1 -10.28649114711471  0.05277518821882 -2.86349374507451
 1 -11.90492954925493  0.94556055455546 -2.58301536683668
 1 -11.94111195629563 -0.72385113641364 -3.16465422302230
 1 -14.46371964526453 -1.96409536213621 -0.26330453425343
 1  8.54275334333433  0.58290851605161 -0.17265461926193
 1 -8.88701387028703  1.93916556935694 -0.59301462186219
 1  11.72198793329333 -2.24587608360836 -2.25180803230323
 1  10.15601846824683 -1.38846494819482 -2.50916685068507
 1  11.62670196389639 -0.49164225432543 -3.13223917201720
 1  15.23068224852485  0.51538963876388  1.44713268216822
 1  9.76441621792179 -2.25414849654965 -0.14924136663666
 1 -5.54008846984698 -0.94758190889089 -0.25691829502950
 1 -6.76490538863886 -1.17484945814581  1.21747399979998
 1 -7.23690992619262 -1.64581302950295 -0.39479769456946
 1 -6.57895018151815  2.48231702680268 -0.83997719941994
 1  6.41320486948695 -3.72960638323832  0.74454415011501
 1  6.84944228942894 -3.87397258505851 -1.20177976917692
 1  8.17902780018002 -4.02116830143014  0.10709767706771
 1  6.88131655855586 -0.16578381778178 -0.39588171007101
 1 -4.45569780138014  0.34922458765877  0.05841978437844
 1  4.71851545504550 -2.42094134713471 -0.16264392519252
 1 -4.68726477217722  3.31130911271127 -1.12851250675068
 1  4.27658773497350  0.52303964286429 -0.45410462786279
 1 -0.96344610281028  3.88234968166817 -1.66606487838784
 1 -1.82805564396440  4.10034719201920  0.14654269446945
 1 -2.64211369946995  4.72363477897790 -1.37808610231023
 1 -2.10434931533153  0.32066869236924 -0.41095582558256
 1  2.18526756885689  1.20702469166917 -0.54106112121212
 1  2.45228375607561 -2.25427182958296  1.09588796729673
 1  1.17513258455846 -2.04129342044204  0.11102981788179
 1  2.64540729012901 -2.81705949314931 -0.82014625762576
 1  0.00194607950795  2.33879371907191 -0.59765675717572
 1 -0.12825572157216 -0.68672884268427 -0.23138379337934

