%nproc=4
%Mem=4GB
# td=(NStates=1) CAM-B3LYP/6-31G(d,p) 

TD

0 1
 8 -14.04911078627863 -1.93039142084208  0.65538579387939
 8  14.76790862766277  0.92076966356636  0.42752334823482
 6 -11.79363222282228  0.03533960886089  1.30162498249825
 6 -10.93986094859486  0.38777154815482  0.11675538833883
 6 -11.98542402300230 -1.53546803120312  1.50564840614061
 6 -12.70624401790179 -2.05004606940694  0.27656180708071
 6 -11.54832012091209 -0.31589906820682 -1.10835632553255
 6  10.99640297089709  0.96249789228923  1.20032031173117
 6 -10.95757723092309  0.50635237403740  2.65276232693269
 6 -13.01407757015702  0.73824947184718  1.29075015181518
 6  12.49160634113411  1.50683010951095  0.93038042424242
 6 -12.40891187708771 -1.32946081388139 -0.93968673737374
 6  13.42186380728073  0.49707738033803  0.39978729762976
 6  10.59898937323732 -0.03151256145615  0.12270585568557
 6 -9.47920668456846 -0.10499334753475  0.17241724932493
 6  12.97006498409841  0.02101488208821 -1.00441602790279
 6  11.54008709750975 -0.48576362166217 -0.81140619941994
 6  10.08073495909591  2.25301461346135  1.20395310871087
 6  10.92879371187119  0.37067624302430  2.61035159645965
 6 -11.31062556005601  0.32356399789979 -2.47636989518952
 6 -8.44709080938094  0.84925990839084 -0.11385500800080
 6  9.24072900220022 -0.48228600440044  0.08680876467647
 6  11.14124406990699 -1.41428439523952 -1.98264786948695
 6 -7.10201152405241  0.48814605640564 -0.06781887118712
 6  8.83845030143014 -1.75635543304330 -0.01323646464646
 6 -6.66951837333733 -0.87486624352435  0.21725461406141
 6  7.44853334083408 -2.23012588458846 -0.13823488578858
 6 -6.27556733273327  1.42241581608161 -0.41695355195520
 6  7.19480267446745 -3.57200092229223  0.13090330853085
 6  6.42603987298730 -1.39084937363736 -0.38012035443544
 6 -4.75849982368237  1.33763730293029 -0.53502441584158
 6  4.99355020092009 -1.57575541844184 -0.23188096829683
 6 -4.00756212861286  2.43189621582158 -0.82302349134913
 6 -2.58895933403340  2.58924688228823 -0.90312306010601
 6  4.03089705520552 -0.62659316541654 -0.39948946534653
 6  2.67954500310031 -0.80245471697170 -0.39773472607261
 6 -1.99912846304630  3.81521610421042 -1.06156530393039
 6 -1.77749483498350  1.43641638603860 -0.64416043244324
 6  1.80854939993999  0.34222578407841 -0.59584814671467
 6  2.05613893499350 -2.24792758005801 -0.16783441554155
 6 -0.40238249714972  1.45013633493349 -0.78984234403440
 6  0.44051888268827  0.40732240004000 -0.59129239003900
 1 -10.95168190969097  1.43247503280328 -0.16264811001100
 1 -12.51943541664166 -1.82945295899590  2.40122801750175
 1 -10.73922159175918 -1.85572476747675  1.44383766636664
 1 -12.46866049964997 -3.09457856515652  0.24132899499950
 1 -10.16935233653365 -0.19769809420942  2.93100172407241
 1 -10.60198036463646  1.47101017801780  2.62240696259626
 1 -11.55783337563756  0.41694511351135  3.54630880868087
 1 -13.54150535233523  0.56108211051105  0.27514398469847
 1 -13.66050182078208  0.68533014041404  2.10938494049405
 1 -12.89216790219022  1.60717433923392  1.17435791909191
 1  12.37255462216222  2.30678562806281  0.20416826002600
 1  12.83438786588659  1.93747778667867  1.85156275747575
 1 -12.93789726832683 -1.72800959745975 -1.77493168386839
 1  13.44807439223922 -0.49160890669067  0.99701003690369
 1 -9.33393575927593 -0.99483434243424  0.53410097009701
 1  13.79961510561056 -0.73032607190719 -1.15164032003200
 1  13.13703012051205  0.79477805570557 -1.79006893069307
 1  9.09427612521252  2.02402245404540  1.61547679507951
 1  10.00529239083908  2.54361696409641  0.13147006250625
 1  10.52032570587059  2.96087105880588  1.85521167216722
 1  11.82749559085909 -0.34087133573357  2.77769419081908
 1  9.97192216281628 -0.08503104410441  2.56849997809781
 1  11.06412731183118  1.00828862566257  3.46267121012101
 1 -10.07514001200120  0.37070698139814 -2.75830322602260
 1 -11.64555361166117  1.44286028452845 -2.55980304560456
 1 -11.79425727082708 -0.21908065936594 -3.29793755135513
 1 -14.55692896619662 -1.92658161076108 -0.22766096989699
 1  8.56580564856486  0.22058228342834  0.20101274747475
 1 -8.84271944084409  1.94978663146315 -0.34329965036504
 1  11.62982871737174 -2.42380387638764 -1.77327017851785
 1  10.17452031843184 -1.34427052875288 -2.29905583958396
 1  11.76177547124712 -1.00258334843484 -2.83135908400840
 1  14.96526570687069  1.34899299909991  1.09492746164616
 1  9.60040981728173 -2.55536861856186 -0.03828027052705
 1 -5.59077353835383 -0.84839198989899  0.83307070387039
 1 -7.21615051315132 -1.20051202440244  0.98035028742874
 1 -6.87241347654765 -1.64105255345535 -0.63456167096710
 1 -6.61136342284228  2.50517931303130 -0.66915011671167
 1  6.73857740674067 -3.90402382498250  1.17601729742974
 1  6.34921226642664 -3.96151133893389 -0.63688327952795
 1  7.92607250465046 -4.18839502410241 -0.08049108180818
 1  6.70874930183018 -0.23311055045505 -0.42658478037804
 1 -4.23800603220322  0.25240490569057 -0.38642470007001
 1  4.88353195669567 -2.62027128012801  0.15573791299130
 1 -4.31698774447445  3.41301928372837 -1.07014667016702
 1  4.37736781298130  0.28889622852285 -0.76182539993999
 1 -1.41793155135514  3.95643709040904 -2.00191846374637
 1 -1.33922676107611  4.11776893419342 -0.40023198299830
 1 -2.54727421552155  4.74344676017602 -1.09029732343234
 1 -2.35220410081008  0.44751137663766 -0.30402513251325
 1  2.35905494759476  1.27091108030803 -0.71377839293929
 1  2.12984151185118 -2.67077347974797  0.91176955545555
 1  0.82687775907591 -2.43244253535353 -0.54783606870687
 1  2.77980072947295 -2.69738752595260 -0.73355759875988
 1  0.32173805870587  2.41625146484649 -0.84164115561556
 1 -0.20989388538854 -0.47614778457846 -0.66430708570857

