%nproc=4
%Mem=4GB
# td=(NStates=1) CAM-B3LYP/6-31G(d,p) 

TD

0 1
 8 -13.82274815001500 -2.35441382308231  0.70268052335234
 8  14.66594843164316  0.83489107570757  0.46567716361636
 6 -11.68160101970197 -0.07877180228023  1.51311613161316
 6 -10.81653861636164  0.34689746074607  0.07709142194219
 6 -11.77769324992499 -1.51088557295730  1.50150799209921
 6 -12.38655204870487 -2.29042010681068  0.34303845474547
 6 -11.55543083198320 -0.44223170147015 -1.11940743064306
 6  10.93023635423542  1.00916255875588  1.06490677037704
 6 -10.83686515971597  0.36241798059806  2.76197324802480
 6 -13.10839700210021  0.55267091399140  1.37579865666567
 6  12.35423260376038  1.48511793829383  0.85345273147315
 6 -12.23695468136814 -1.62861072887289 -0.99620238893889
 6  13.38595021592159  0.31029870247025  0.64373169206921
 6  10.52843231753175 -0.15208461866187  0.05708929402940
 6 -9.41161992589259 -0.00691353955396  0.06679668726873
 6  12.96220419801980 -0.37217443684368 -0.64062964926493
 6  11.52413550235023 -0.72563760906091 -0.72542760156016
 6  10.02801968756876  2.15980529252925  0.92893560696070
 6  10.69535036753675  0.43203237863786  2.53029359065907
 6 -11.39122361986199  0.36280792229223 -2.40126238443844
 6 -8.35601170147015  0.89024400680068 -0.29232285478548
 6  9.19570449974997 -0.53695147094709  0.01719180298030
 6  11.21391133663366 -1.62627559435944 -1.81923152785279
 6 -7.06613793669367  0.61957919971997 -0.15567765706571
 6  8.71869832623262 -1.84710450795079 -0.12867800880088
 6 -6.57387880938094 -0.84886364326433  0.03888677727773
 6  7.27904639213921 -2.20778365036504 -0.08434949724972
 6 -6.12432220822082  1.57578115261526 -0.34309616621662
 6  6.94757795199520 -3.73020674287429  0.00867108530853
 6  6.31859912891289 -1.16242653135314 -0.18995133753375
 6 -4.69465343904390  1.68093163236324 -0.41363227662766
 6  4.95183602950295 -1.41720956385639 -0.26166394659466
 6 -3.90766213861386  2.73523654985499 -0.72835402440244
 6 -2.56216665476548  2.87970592819282 -0.83395614341434
 6  3.98106207170717 -0.54270477657766 -0.35433494989499
 6  2.56663371197120 -0.67292176367637 -0.42324727732773
 6 -1.96776532673267  4.19398398099810 -1.15971511891189
 6 -1.79243632913291  1.74771751615162 -0.73798981538154
 6  1.80887943294329  0.42936449794979 -0.57423598549855
 6  2.02112543364336 -2.08233102040204 -0.22269990209021
 6 -0.38322058095810  1.67656897819782 -0.73998735853585
 6  0.44571940274027  0.46514818261826 -0.62431569236924
 1 -10.85384212571257  1.31693347864786 -0.13631547674767
 1 -12.29088256135613 -1.90337035073507  2.46030392509251
 1 -10.82379004860486 -1.83885308030803  1.71665494809481
 1 -12.01020465406541 -3.38394750205021  0.44938980108011
 1 -9.80876627792779 -0.05610393479348  2.63461208510851
 1 -10.72948311491149  1.47857093409341  2.77542226412641
 1 -11.51910950325033 -0.19568614961496  3.44072825062506
 1 -13.76847804960496  0.16741274357436  0.69011548184818
 1 -13.56728249884988  0.28556016341634  2.16261026302630
 1 -13.08560724612461  1.58711233303330  1.36467695099510
 1  12.66004337103710  2.01694664416442 -0.15571772857286
 1  12.52404683178318  2.15476951585159  1.62500010121012
 1 -12.66206968556856 -1.90193699019902 -1.83650784148415
 1  13.26768635343534 -0.66075582138214  1.46757709360936
 1 -9.04449681538154 -1.00086494549455  0.08024558455846
 1  13.39688483258326 -1.44356739603960 -0.96833198919892
 1  13.36888330583058  0.30163874177418 -1.50502042584258
 1  8.89966666426643  2.12438249004900  0.96085133253325
 1  9.99304116571657  2.67105970837084 -0.17506059055906
 1  10.33841751505151  2.81247621932193  1.60397654865487
 1  11.22014485578558 -0.41992924152415  2.99664608600860
 1  9.66677164776478  0.11284874387439  2.58308143624362
 1  10.67213811291129  1.37155495229523  3.22128707170717
 1 -10.30603310131013  0.75066497719772 -2.55907330303030
 1 -12.13065212151215  1.31206720522052 -2.63285035033503
 1 -11.65781362646265 -0.38747749904991 -3.21186894449445
 1 -14.46032930623062 -3.24239319191919  0.19696149234924
 1  8.47978704670467  0.21588181338134  0.34015666186619
 1 -8.51367653655366  1.85697735053505 -0.73964928532853
 1  11.80946668116812 -2.60490198619862 -1.55886873837384
 1  10.13832669906991 -1.76927302900290 -1.92780871487149
 1  11.61076036973697 -1.35055814591459 -2.99680562866287
 1  14.65737491779178  1.77166526632663  1.19735770467047
 1  9.48981875817582 -2.62198528022802 -0.19295573807381
 1 -5.30042450345034 -0.87526467716772 -0.37148975217522
 1 -6.53046194429443 -1.06073804700470  1.15395764816482
 1 -7.26789302450245 -1.54790323852385 -0.49774798959896
 1 -6.49206149264926  2.53874266936694 -0.16346954865487
 1  6.36096964596460 -3.83820724332433  0.74411410711071
 1  6.34790213541354 -4.02002719051905 -0.90696028722872
 1  7.94174407180718 -4.31573775837584 -0.05364839753975
 1  6.65059348624862 -0.25957319671967 -0.63987610951095
 1 -4.07123935553555  0.57702736793679 -0.28863492109211
 1  4.62350595409541 -2.54777403040304 -0.09570723152315
 1 -4.60616666236624  3.66822480428043 -0.93323297879788
 1  4.11670174637464  0.45939327822782 -0.71015023242324
 1 -1.51031078927893  4.23941538823882 -2.01100937283728
 1 -1.44977781618162  4.63869102640264 -0.25944790459046
 1 -2.89688917701770  4.92770518601860 -1.34420271397140
 1 -2.23298217861786  0.63683030853085 -0.94290902090209
 1  2.19879892199220  1.43348733793379 -0.70876789188919
 1  2.19197772547255 -2.19553595599560  0.70928930743074
 1  0.91659673097310 -1.82176146724672 -0.27815910101010
 1  2.36060881028103 -3.04002178937894 -0.76386062906291
 1  0.19783566846685  2.73602344204420 -0.94416140764076
 1 -0.26596949294929 -0.43096326612661 -0.62862351735173

