%nproc=4
%Mem=4GB
# td=(NStates=1) CAM-B3LYP/6-31G(d,p) 

TD

0 1
 8 -14.12706858205821 -2.05572395409541  0.53670392569257
 8  14.91281311811181  0.94499208580858  0.09587018291829
 6 -11.74395725532553  0.03337941284128  1.29101392139214
 6 -11.05246220872087  0.17590036103610 -0.09759604680468
 6 -11.91477695829583 -1.56095057945795  1.52383022432243
 6 -12.68390178367837 -2.13610467526753  0.38202235313531
 6 -11.60708599749975 -0.47826530483048 -1.24841033093309
 6  11.12776610721072  0.90624226672667  0.94270455015502
 6 -10.90838231143114  0.66788852765277  2.39224627532753
 6 -13.05776193859386  0.71008665556556  1.05853693049305
 6  12.54121130163016  1.46043547004700  0.68332571877188
 6 -12.31106209210921 -1.58556642444244 -1.01570433913391
 6  13.57401902280228  0.36427410001000  0.36959427832783
 6  10.62499197349735 -0.05953536373637 -0.02185860076008
 6 -9.52434119801980 -0.16092894109411 -0.01842183458346
 6  13.01310928852885 -0.33760097949795 -0.98685427172717
 6  11.55538862766277 -0.59390443574357 -0.94391945074507
 6  10.15258214381438  2.09976928892889  1.19996270967097
 6  11.19488032053205  0.21453062846285  2.42529309060906
 6 -11.27330182768277  0.07848949044904 -2.55600785898590
 6 -8.56021212151215  0.82802778517852 -0.22083570607061
 6  9.23522845214521 -0.46220399619962  0.11604168796880
 6  11.11534147964796 -1.45463843064306 -2.11557116181618
 6 -7.10743206610661  0.60884812661266 -0.27907999729973
 6  8.69547600400040 -1.69963976147615 -0.11131627262726
 6 -6.68247966946695 -0.79572832973297  0.01328421702170
 6  7.42025051255126 -2.03683655565557 -0.04130519281928
 6 -6.23559333533353  1.66125970047005 -0.40806266286629
 6  7.08232142634263 -3.46655037723772  0.19435965416542
 6  6.32541981098110 -1.11697198589859 -0.09425176757676
 6 -4.79785375907591  1.57581112031203 -0.33756466986699
 6  4.95478632453245 -1.42518036093609 -0.00049782998300
 6 -3.95561693409341  2.66366939313931 -0.56731792079208
 6 -2.55091552965297  2.69065702330233 -0.52371511931193
 6  3.97812177767777 -0.45592609870987 -0.16481599799980
 6  2.62328937753775 -0.75170964246425 -0.19365431803180
 6 -1.89190774097410  3.97727230983098 -0.77922707010701
 6 -1.87424450995099  1.48742148654865 -0.42304832123212
 6  1.75909445444544  0.27867942944294 -0.35741430333033
 6  1.94665798689869 -2.13982676997700  0.09864223212321
 6 -0.39131139003900  1.40041136243624 -0.52640600040004
 6  0.33469830063006  0.28858052585259 -0.25389865066507
 1 -10.85421216271627  1.47802958825883 -0.31878372357236
 1 -12.57755122822282 -1.72936294999500  2.52092998769877
 1 -10.88226589618962 -1.95818501350135  1.73506678927893
 1 -12.38675230883088 -3.09255836313631  0.48169303140314
 1 -10.10487588888889 -0.00986931133113  2.69000762466247
 1 -10.38429859645965  1.62627570457046  2.18864358625863
 1 -11.46316390869087  0.83620703970397  3.32600677847785
 1 -13.65559676147615  0.15584158645865  0.21023749404940
 1 -13.66221199179918  0.91046265366537  2.16249025102510
 1 -13.03537222262226  1.80010363216322  0.83082356565657
 1  12.34015138183818  2.24660961046105 -0.05810796759676
 1  13.00353478057806  1.87488152705271  1.52165976717672
 1 -12.81861534013401 -2.07523431993199 -1.88477266796680
 1  13.38492807760776 -0.51328107390739  0.92344268016802
 1 -9.12108447414741 -1.20573543254325  0.13285084508451
 1  13.68906405050505 -1.21634467376738 -1.25213036903690
 1  13.26911332883288  0.63483206110611 -1.58621854565456
 1  9.18768546614661  2.04358441024102  1.75124037143714
 1  10.06763862546255  2.79822242464246  0.34103101860186
 1  10.89470314361436  2.79740471217122  1.98436458745875
 1  11.83396623792379 -0.71888913751375  2.21416783818382
 1  10.13979895049505 -0.04507704870487  2.69898302640264
 1  11.66907780688069  0.93165096189619  3.17070201320132
 1 -10.31680417841784  0.13542345304530 -2.59552694839484
 1 -11.69679873617362  1.01663766226623 -2.47575464076408
 1 -11.71057890299030 -0.54206295759576 -3.53742149974997
 1 -14.50421369466947 -2.72858181078108 -0.16696490029003
 1  8.68127719571957  0.32040226542654  0.60235288148815
 1 -8.88176334523452  1.77088874167417 -0.48351367176718
 1  11.54131986648665 -2.47489898589859 -2.03909676117612
 1  10.14562742914291 -1.51508761046105 -2.44206014001400
 1  11.63115240894089 -0.97545063516352 -2.95903185128513
 1  15.35987516781678  1.37789588938894  0.85225319421942
 1  9.45085486178618 -2.48141122282228 -0.13502994549455
 1 -5.59146360736074 -0.89927707840784 -0.13792639583958
 1 -6.90130902900290 -1.29863183638364  0.98817106950695
 1 -7.03694993019302 -1.51136958515852 -0.58479669446945
 1 -6.70272255875588  2.53792258735874 -0.71599480118012
 1  6.82442599159916 -3.68131155375538  1.15836553225323
 1  6.51871921712171 -3.87470265806581 -0.57116670787079
 1  8.06756665406541 -3.95117130173017  0.21131809910991
 1  6.49749817671767 -0.05134237363736 -0.38511063296330
 1 -4.45394762636264  0.50808047324732 -0.21260731833183
 1  4.70403400690069 -2.56621587458746  0.05854819401940
 1 -4.52192823852385  3.68767674947495 -0.57291694719472
 1  4.35228530473047  0.71767910681068 -0.28939815721572
 1 -1.33613337153715  3.95044649134914 -1.73899217111711
 1 -0.93903674207421  4.13177033433343 -0.19610156995700
 1 -2.69348883698370  4.83467588308831 -0.78557685138514
 1 -2.43164204460446  0.55739236473647 -0.48467319731973
 1  2.12099114121412  1.34503849304930 -0.48160517561756
 1  1.96657518521852 -2.43611001340134  1.19290766926693
 1  1.00769584088409 -2.21616090719072 -0.54903618871887
 1  2.82232498189819 -2.93469125632563 -0.40027427042704
 1  0.26875276017602  2.32844268396840 -1.02461945344534
 1 -0.17011990799080 -0.62983315311531  0.24565391039104

