%nproc=4
%Mem=4GB
# td=(NStates=1) CAM-B3LYP/6-31G(d,p) 

TD

0 1
 8 -14.12539841504150 -1.93135151685169  0.48208846414641
 8  14.87123896069607  0.86144373097310  0.13998459435944
 6 -11.79663252285229  0.09131520642064  1.18674349434944
 6 -11.09872683518352  0.32251502250225 -0.12161844904490
 6 -11.98088356895690 -1.52168665306531  1.33913175447545
 6 -12.75548894239424 -2.10000106490649  0.25478962986299
 6 -11.61371666056606 -0.58755623392339 -1.28139362926293
 6  11.08107143774377  0.93235487798780  1.03754403410341
 6 -11.08723019621962  0.67101884068407  2.48108515921592
 6 -13.19259542194219  0.72063771067107  1.04257533433343
 6  12.57563474397440  1.38705813231323  0.67152453865387
 6 -12.33816480238024 -1.58706657445745 -1.07324009270927
 6  13.60619224012401  0.35615328792879  0.29871719061906
 6  10.70548002230223 -0.12279168936894 -0.09686610151015
 6 -9.54455321922192  0.01177832963296 -0.01778177057706
 6  13.17720569816982 -0.37202442184218 -0.98012359865987
 6  11.59045213401340 -0.63892893819382 -0.96256131493149
 6  10.29543642924292  2.28195750775077  1.00799351275128
 6  10.96196702920292  0.25471464686469  2.35524608590859
 6 -11.30490498799880 -0.02371072957296 -2.74851710991099
 6 -8.53351945224522  0.86535151755176 -0.20414403690369
 6  9.33347827712771 -0.48394617041704 -0.15466538273827
 6  11.20200014551455 -1.42327529432943 -2.16814641934193
 6 -7.11043236613661  0.52017925972597 -0.13960604990499
 6  8.78212466886689 -1.71705150265026 -0.22914805580558
 6 -6.68744016551655 -0.91753050995099  0.17910079867987
 6  7.37647613511351 -2.02911578357836 -0.13637469976998
 6 -6.22568234423442  1.43220679517952 -0.42410426702670
 6  7.09298249244925 -3.48048177037704 -0.04691447324732
 6  6.38154542354235 -1.01836212491249 -0.02484482688269
 6 -4.80154412811281  1.46088962816282 -0.34825573897390
 6  4.98014886078608 -1.41809965286529  0.12532475227523
 6 -4.00211158355836  2.53125615181518 -0.55388657765777
 6 -2.52948338643864  2.64476243384338 -0.59521226902690
 6  4.04086805230523 -0.45513601970197 -0.02083159955996
 6  2.65991303990399 -0.71071554305431  0.03177822522252
 6 -1.96597514771477  3.91877646024602 -0.70501964936494
 6 -1.85376246174617  1.46846959135914 -0.31681769816982
 6  1.82348089308931  0.38443000450045 -0.16768533043304
 6  2.12866618771877 -1.99540232753275  0.31367373527353
 6 -0.41305356425643  1.47640896219622 -0.39548290809081
 6  0.30957578837884  0.30718238603860 -0.12799606040604
 1 -11.03125986748675  1.38123990929093 -0.34509635483548
 1 -12.48431190429043 -1.82304231793179  2.28544643934393
 1 -10.95380304990499 -2.02802199719972  1.54520780338034
 1 -12.65728936253625 -3.08921802910291  0.45244010611061
 1 -10.02777817911791  0.18790046564656  2.55847447134714
 1 -11.10829099569957  1.87542061906191  2.33699842174217
 1 -11.66364395669567  0.27987140614061  3.35212939073907
 1 -13.98426962876288  0.39420542284228  0.35702217251725
 1 -13.75939170977098  0.47962957035704  2.08580258225823
 1 -13.40738942434243  1.76692031383138  1.31910239353935
 1  12.50948831553155  2.09329427892789 -0.20594275107511
 1  13.02332675977598  1.94344838373837  1.49414701590159
 1 -12.92950642924292 -2.14461125762576 -1.79573376407641
 1  13.49862944774478 -0.18395814161416  1.19723005890589
 1 -9.29879224492449 -0.92168702770277  0.35962352235224
 1  13.88947409150915 -1.34458749804980 -0.97661281728173
 1  13.40967738523852  0.26515509340934 -1.98584850865087
 1  9.26800349794980  2.26015606740674  1.20591583898390
 1  10.46397825942594  2.63960656305631 -0.02764584908491
 1  10.82158583188319  3.03348832053205  1.60063621462146
 1  11.79972281358136 -0.36474372297230  2.32897931933193
 1  9.90335530613061 -0.20048258925893  2.42529565766577
 1  10.98692959205921  1.07450524732473  2.93919886288629
 1 -10.20748324632463 -0.37937802710271 -2.74924231993199
 1 -11.51563061936194  1.10151615011501 -2.92916998229823
 1 -11.75537338243824 -0.56035478677868 -3.35302305990599
 1 -14.65450872417242 -2.47204615721572 -0.24588279207921
 1  8.77849691769177  0.29111933713371  0.24519716591659
 1 -8.70127529642964  1.76340799359936 -0.53587890829083
 1  11.35468120262026 -2.53375487148715 -2.14399725122512
 1  10.31005387178718 -1.32005810751075 -2.45708164216422
 1  11.62725201890189 -0.94711780188019 -3.07494344244424
 1  15.07214639493949  1.15924402420242  1.01539950885089
 1  9.42382215851585 -2.42951603330333 -0.15928237073707
 1 -5.66613107410741 -1.10233738443844  0.27754515131513
 1 -7.02834173227323 -1.04174614781478  1.28775102750275
 1 -7.09769600480048 -1.79454790299030 -0.37068528332833
 1 -6.66347863436344  2.47405620072007 -0.54685788748875
 1  6.52671622062206 -4.01115453805381  0.82553224892489
 1  6.70808815401540 -3.96466165396540 -1.00116970817082
 1  7.96382628002800 -4.18145433003300  0.00400736803680
 1  6.55745417231723 -0.01020826022602 -0.27157927982798
 1 -4.17687991959196  0.50251991719172 -0.05087114471447
 1  4.85095869936994 -2.45908516151615  0.53975631483148
 1 -4.40766681238124  3.46754473627363 -0.57750740624062
 1  4.28876895309531  0.59390672957296 -0.33902311971197
 1 -1.30190994919492  3.99682112881288 -1.63953222512251
 1 -1.55999883828383  4.25030218751875  0.31514955515552
 1 -2.62588207630763  4.74594701020102 -1.01940023372337
 1 -2.28745762616262  0.55938256375638 -0.21335606560656
 1  2.28481752385239  1.32963695289529 -0.50073708880888
 1  2.41350987868787 -2.30091649404940  1.42392077057706
 1  1.17447251855186 -1.92801209230923  0.38430714561456
 1  2.36553930333033 -2.80632842004200 -0.39313355635564
 1  0.14880076497650  2.58266810651065 -0.63158014951495
 1 -0.13636653265327 -0.67110728052805  0.35509485448545

