%nproc=4
%Mem=4GB
# td=(NStates=1) CAM-B3LYP/6-31G(d,p) 

TD

0 1
 8 -14.05234110931093 -2.07203558525853  0.59799005430543
 8  14.87486932373237  0.71331891849185  0.03409400530053
 6 -11.71806466606661 -0.07058098319832  1.42533735373537
 6 -11.02033899639964  0.39204197519752  0.01364507730773
 6 -11.83176865746575 -1.59619410381038  1.41233907520752
 6 -12.72371576507651 -2.13695476027603  0.30039419031903
 6 -11.61398668756876 -0.51032851115111 -1.08600409030903
 6  11.11616494709471  0.87932957545755  1.16259653935394
 6 -10.91707318051805  0.52131387018702  2.59927697839784
 6 -13.06844300670067  0.70503615051505  1.52330340714071
 6  12.69743692419242  1.31181060756076  0.93434082028203
 6 -12.25165615151515 -1.62937080488049 -1.05830859955996
 6  13.48679029992999  0.22673034563456  0.27573489238924
 6  10.60442991729173 -0.01124053425343  0.10019360446045
 6 -9.56295505940594  0.02037918971897 -0.01606159855986
 6  12.95269324692469 -0.23075029442944 -0.95810139643964
 6  11.37380046884688 -0.56493153845385 -0.89270432923292
 6  10.39478636423642  2.14201351335134  1.25503821722172
 6  11.13585441794179  0.19212838823882  2.45492605390539
 6 -11.25682017951795  0.05470711221122 -2.51276353455346
 6 -8.52732883318332  0.83525850825082 -0.18675229772977
 6  9.24211914121412 -0.41344912071207  0.11568165196520
 6  11.06932687818782 -1.44762772957296 -2.09055866056606
 6 -7.12786410931093  0.49624686648665 -0.44342643194319
 6  8.76060251665167 -1.55250504800480 -0.07650279127913
 6 -6.71651307280728 -0.99105786268627 -0.19345645704570
 6  7.35736422392239 -1.96250912291229  0.06445538323832
 6 -6.23964374037404  1.60616419091909 -0.55745760236024
 6  7.03313650785078 -3.46194991719172  0.18949916811681
 6  6.35209247824782 -1.07778806750675 -0.23060540294029
 6 -4.85505947964797  1.44069760896090 -0.67164807820782
 6  5.00650149604960 -1.43205104800480 -0.08267604780478
 6 -4.00631200360036  2.60432345854585 -0.81577276627663
 6 -2.62177261536154  2.73223118071807 -0.80390313811381
 6  4.00420438593859 -0.40557106320632 -0.22260177657766
 6  2.59171622022202 -0.64336880838084 -0.15408036063606
 6 -1.99272782298230  4.10358494109411 -1.02891203860386
 6 -1.78941602710271  1.52169491389139 -0.54763077947795
 6  1.74820336533653  0.43766532803280 -0.27771633353335
 6  2.11422474357436 -2.04937772507251  0.00564293219322
 6 -0.40771303020302  1.51375269656966 -0.46266962676268
 6  0.35885071587159  0.36355802360236 -0.23800706150615
 1 -11.09918666016602  1.36372815811581  0.01146930173017
 1 -12.32727620072007 -1.98198821252125  2.47324521922192
 1 -10.94311198079808 -2.05111430643064  1.43409669226923
 1 -12.34882851645165 -3.26386549384938  0.43167802990299
 1 -9.82876827812781  0.12787446304630  2.56081470537054
 1 -10.83961412801280  1.54438751575158  2.39009373127313
 1 -11.34077166946695  0.24486790579058  3.70536471427143
 1 -13.93620482228223  0.51498750105011  0.71070754105411
 1 -13.61905767636764  0.28140974837484  2.60533453545355
 1 -12.90846953235324  1.71426504830483  1.63383386668667
 1  12.56297366406640  2.09646459595960  0.14746258945895
 1  13.17892231933193  1.84656869576958  1.79075667686769
 1 -12.74909838843884 -2.35035183168317 -1.86925111581158
 1  13.49869945474548 -0.59223896969697  1.05449578547855
 1 -9.23871623732373 -0.96836169516952  0.35060262026203
 1  13.45520066416642 -1.06938997829783 -1.53066822282228
 1  12.93091950945094  0.72164074197420 -1.78250817461746
 1  9.37158385598560  2.20526057785779  1.79358460586059
 1  10.46527838943894  2.91942454485449  0.32157907340734
 1  10.79773344664466  2.84636960866087  2.33796994799480
 1  11.71576441774178 -0.70515776437644  2.66678309970997
 1  10.20262523312331 -0.15323786478648  2.95919904800480
 1  11.56701760086009  0.79944774157416  3.26457140014001
 1 -10.22412491049105  0.32285219591959 -2.64621201690169
 1 -12.07009606590659  1.00376637513751 -2.69597666296630
 1 -11.48098594369437 -0.63147189848985 -3.43732148974898
 1 -14.60313358665867 -2.05487444004400 -0.22154035783578
 1  8.55708477647765  0.29756998219822  0.49319196539654
 1 -8.54581975087509  1.89430108290829 -0.90647596799680
 1  11.17081281578158 -2.60637213321332 -1.82394524602460
 1  10.02455532193219 -1.38421452315232 -2.27018295229523
 1  11.84035332903290 -1.26600969106911 -2.88710465856586
 1  15.31478065836584  1.02696079587959  0.73677164606461
 1  9.54341411771177 -2.52242532423242 -0.00712715521552
 1 -5.54779924092409 -0.89178632933293 -0.17493009620962
 1 -7.23722262036204 -1.08198017121712  0.92195444784478
 1 -7.02619885508551 -1.67075552375238 -0.96058427322732
 1 -6.66216850335033  2.70528932403240 -0.65405860756076
 1  6.27148069706971 -3.80445386798680  0.90815051075108
 1  6.47245459065907 -3.84829001680168 -0.76128571977198
 1  8.17060695809581 -4.02970915551555  0.59474644194419
 1  6.58977740464046  0.03388614921492 -0.59042116401640
 1 -4.37737996959696  0.46112577777778 -0.66156221382138
 1  4.51503510701070 -2.44414366736674  0.23025536473647
 1 -4.77979402510251  3.52889087088709 -0.66129578507851
 1  4.44800487668767  0.34161150005001 -0.59268848624862
 1 -1.36288604680468  3.88871031773177 -1.85003327522752
 1 -1.52946578497850  4.31381853915392 -0.10259221902190
 1 -2.93408289638964  4.66241865736574 -1.20424871857186
 1 -2.44394327472747  0.69202582808281 -0.44123885388539
 1  2.25304434653465  1.23844783398340 -0.49383639873987
 1  2.39743827152715 -2.52525892829283  0.94615299379938
 1  1.09983505480548 -2.21822111321132 -0.04711599669967
 1  2.70706345574557 -2.95566335353535 -0.53011725472547
 1  0.28769465436544  2.51109094879488 -0.74521151265127
 1 -0.04074697069707 -0.53131330113011 -0.01306196119612

