%nproc=4
%Mem=4GB
# td=(NStates=1) CAM-B3LYP/6-31G(d,p) 

TD

0 1
 8 -14.04748062326233 -2.04299268096810  0.54059431473147
 8  14.83093493029303  1.02434002060206  0.15748634453445
 6 -11.83740660026003  0.16998307320732  1.34264908490849
 6 -10.99699666216622  0.43614638563856  0.01092480528053
 6 -11.97688316891689 -1.26248073247325  1.58168600990099
 6 -12.55436883038304 -2.13588465326533  0.35039919081908
 6 -11.69415470437044 -0.42398987728773 -1.19013450335033
 6  11.10251358195820  0.94233587608761  1.20443072277228
 6 -11.05158663186319  0.76191793059306  2.52847989868987
 6 -13.15995215761576  0.87636328322832  1.23092416921692
 6  12.46649382988299  1.51251067756776  0.95634302050205
 6 -12.31793277917792 -1.59094696249625 -0.93402617131713
 6  13.60167178807881  0.54632230483048  0.46010332923292
 6  10.69966944124412 -0.01778118831883  0.11253483858386
 6 -9.54494325822582  0.02908005980598  0.05898590619062
 6  13.12336031363136 -0.07002422182218 -0.83361894819482
 6  11.56721981078108 -0.35548059335934 -0.91609666846685
 6  10.20519740534053  2.19907921992199  1.23229594299430
 6  11.00255108760876  0.34106328172817  2.59956051735174
 6 -11.51615611311131  0.16158780028003 -2.53090534873487
 6 -8.50979708000800  0.80499548194819 -0.20356397889789
 6  9.29012394169417 -0.50151792759276  0.09052913671367
 6  11.22579252475247 -1.19733270007001 -2.08586819151915
 6 -7.11365268816882  0.55452269406941 -0.14188627792779
 6  8.84751120752075 -1.80032983048305 -0.36914205520552
 6 -6.75071649314931 -0.90858961586159  0.01427431603160
 6  7.42542102960296 -2.18902177417742 -0.19165022732273
 6 -6.27449722572257  1.52638621312131 -0.29753160976098
 6  7.25255845004500 -3.66883060526053 -0.00071985378538
 6  6.42821009000900 -1.24143443214321 -0.19344168656866
 6 -4.79959393309331  1.39491303050305 -0.29355026842684
 6  5.07787863376338 -1.65119296219622 -0.28326610681068
 6 -4.01016238863886  2.46876990319032 -0.79305049404940
 6 -2.58006844494449  2.48723668126813 -0.79677242504250
 6  4.01702566806681 -0.72906341244124 -0.47597711411141
 6  2.60649769836984 -0.85801027252725 -0.25229018161816
 6 -1.95640419061906  3.85697027962796 -1.13914306170617
 6 -1.85816290179018  1.37005975037504 -0.49471548794879
 6  1.74746329132913  0.24360592209221 -0.28661722362236
 6  2.09240256135614 -2.30269305660566 -0.00069770187019
 6 -0.43098535743574  1.44003532483248 -0.57854121392139
 6  0.37437226802680  0.25164683248325 -0.27544080488049
 1 -11.08284502600260  1.57263904920492 -0.35629747494749
 1 -12.45708918201820 -1.63415342904290  2.47777567226723
 1 -11.02072974257426 -1.70367956295630  1.86986026862686
 1 -12.31153478707871 -3.21863097039704  0.56159102120212
 1 -10.10982638393839  0.15231690729073  2.72354097799780
 1 -10.76077624422442  1.80681375837584  2.27441216311631
 1 -11.80268786108611  0.69262268126813  3.40145432323232
 1 -13.82319352115212  0.46990299259926  0.55061153145315
 1 -13.65822159275928  0.76613822122212  2.26170017201720
 1 -12.95074375977598  1.95290891269127  0.88198868216822
 1  12.36646401310131  2.57160210971097  0.35478332153215
 1  12.88586301340134  1.65749978887889  2.01837943914391
 1 -12.52989646824683 -1.97329412591259 -1.81833602430243
 1  13.72266185098510 -0.39424917071707  1.19219955585559
 1 -9.48666103180318 -1.18026288528853  0.11170873087309
 1  13.72854799889989 -0.97143018231823 -1.09169432543254
 1  13.46240265776578  0.72114069196920 -1.67913783758376
 1  9.15600229782978  2.00584063586359  1.73635888328833
 1  10.10649251085109  2.62029463186319  0.19653656915692
 1  10.78246191949195  2.87888285998600  1.82050820182018
 1  11.70859370067007 -0.57021427002700  2.62560898229823
 1  10.05549051965196  0.04799225822582  3.03882701080108
 1  11.39554045314531  0.68877667446745  3.57276221922192
 1 -10.43922642064206  0.22562247294729 -2.70419781548155
 1 -11.85596465276528  1.13423942244224 -2.52307937323732
 1 -12.01199904500450 -0.42352110341034 -3.19878763636364
 1 -14.40537381068107 -1.95608456105610 -0.55219342314231
 1  8.48786785478548  0.22971319651965  0.40491313751375
 1 -8.77300246914692  1.83847550035004 -0.31474679507951
 1  11.32830856535654 -2.34198569456946 -1.86878973047305
 1  9.99640250665066 -1.15830193189319 -2.44063999799980
 1  11.86513580728073 -0.88781187128713 -3.01641758985899
 1  15.28078725902590  1.33911201100110  1.01217918681868
 1  9.59514929122912 -2.48184126582658 -0.65415185768577
 1 -5.63074753575358 -1.16841399209921 -0.13884648784878
 1 -7.06848574667467 -1.05881785498550  0.99204145654565
 1 -7.37541377657766 -1.58655710391039 -0.77536575137514
 1 -6.74487677417742  2.34710350545055 -0.60553375507551
 1  6.76985053405340 -3.96883030563056  0.89576927262726
 1  6.47311465666567 -4.09779496729673 -0.65563515471547
 1  8.05696559395940 -4.36921310591059  0.02074904220422
 1  6.86575500240024 -0.20438767816782 -0.28940106200620
 1 -4.45239747134714  0.56863652885289 -0.01185724332433
 1  4.75554915841584 -2.68043729672967  0.11099343854385
 1 -4.61694774047405  3.28143612541254 -1.08445810131013
 1  4.18588866506651  0.34663200210021 -0.51349056645665
 1 -1.33045280348035  3.73517496419642 -2.14835310721072
 1 -1.36311915031503  4.18940609790979 -0.30791275107511
 1 -2.71255074317432  4.60230264576458 -1.38853714741474
 1 -2.62214109450945  0.41948857435744 -0.20059478947895
 1  2.39291833393339  0.96082007120712 -0.72738975407541
 1  2.04987351505151 -2.47714411681168  1.16691507000700
 1  0.98153322462246 -2.34992428352835 -0.41745303040304
 1  2.93683643304330 -3.11064885208521 -0.50194443744374
 1  0.10804668956896  2.36404624432443 -0.60629762126213
 1 -0.02862575857586 -0.68994916471647 -0.19982063706371

