%nproc=4
%Mem=4GB
# td=(NStates=1) CAM-B3LYP/6-31G(d,p) 

TD

0 1
 8 -14.03443931913191 -2.12152053375338  0.70595085038504
 8  14.79588142494249  1.00789837643764  0.16870746664666
 6 -11.67202006160616 -0.00063398849885  1.33931875187519
 6 -11.00951791429143  0.25591836283628 -0.04725101230123
 6 -11.88357383798380 -1.51703618801880  1.46525436673667
 6 -12.63546694019402 -2.22382344714471  0.37879203010301
 6 -11.64307959685969 -0.41911939023902 -1.15965145504550
 6  11.02894622522252  0.96608825132513  1.08460874057406
 6 -10.86531800500050  0.66884862366237  2.44729177987799
 6 -13.04902106450645  0.67931357825783  1.27911898869887
 6  12.50122730323032  1.43264269076908  0.83187057325733
 6 -12.43173415931593 -1.48026589438944 -0.92860562926293
 6  13.50659228012801  0.46384405700570  0.48720603950395
 6  10.60181965626563 -0.06082549274928  0.05533911901190
 6 -9.50801956585659 -0.03495634383438 -0.12019201160116
 6  13.00154813241324 -0.35391261066107 -0.74839042534253
 6  11.52745583438344 -0.57349239453945 -0.87490254905491
 6  10.15379226482648  2.14033334533453  0.98318103150315
 6  10.89033986648665  0.30965014041404  2.57825838713871
 6 -11.40019451695170  0.10809245074507 -2.59676193439344
 6 -8.53266936723672  0.83899888228823 -0.12428605110511
 6  9.27447237653765 -0.50851862766277  0.14912499629963
 6  11.13738368386839 -1.50066303310331 -2.03907351205121
 6 -7.07804912781278  0.59013625542554 -0.16404849414941
 6  8.81905836223622 -1.72356215371537 -0.03419856085609
 6 -6.64151557305731 -0.83612236913691 -0.00014712611261
 6  7.31970045754575 -2.10762363436344 -0.10548161046105
 6 -6.16000577657766  1.59841341584158 -0.48444030063006
 6  7.24116731093109 -3.67725144734473 -0.04397417921792
 6  6.35686295529553 -1.20056034473447 -0.28753109550955
 6 -4.75742971667167  1.55873941314131 -0.42835374877488
 6  4.96140698659866 -1.55319316221622 -0.27314509470947
 6 -4.01836320872087  2.65212823902390 -0.71714290329033
 6 -2.59281972007201  2.66255421302130 -0.60330307810781
 6  4.04769873537354 -0.56619712581258 -0.33052256865687
 6  2.63790083868387 -0.75625009650965 -0.33019797239724
 6 -2.09025757595760  4.08664324692469 -0.88159730713071
 6 -1.71910899639964  1.56774951935194 -0.47391340774077
 6  1.77843638863886  0.35796735823582 -0.39946850875088
 6  2.08546186728673 -2.21135392269227  0.01882425032503
 6 -0.33963622252225  1.51540286158616 -0.49743310311031
 6  0.38824365516552  0.34825649344934 -0.29456271707171
 1 -11.25938267976798  1.24142592789279 -0.34076592179218
 1 -12.62237571067107 -1.86035604930493  2.46317421212121
 1 -10.90497816741674 -2.11893108810881  1.55399868246825
 1 -12.27946157975798 -3.20433954125413  0.24723958605861
 1 -9.87401280258026  0.23232490809081  2.46628525242524
 1 -10.71839200580058  1.80017309430943  2.20316503840384
 1 -11.49799739203920  0.64164758375838  3.23922810061006
 1 -13.73435463726373  0.33232923522352  0.39599606990699
 1 -13.59273504410441  0.73149475687569  2.41633563556356
 1 -13.06201488688869  1.75112873467347  1.14098458175818
 1  12.33858122482248  2.35044999449945  0.29400724392439
 1  12.66578100520052  1.97742178107811  1.79193679487949
 1 -12.99747322592259 -2.01695849234923 -1.84567875857586
 1  13.67369695449545 -0.36674642044204  1.30137047294730
 1 -9.20645301100110 -1.22879773877388 -0.37067950795079
 1  13.55461060516052 -1.37990102940294 -0.67501265726573
 1  13.63691010851085  0.21441001890189 -1.57445736953695
 1  8.98353505110511  2.00313036483648  0.90436568396840
 1  10.12391425302530  2.44108671107111 -0.07940102460246
 1  10.43546722002200  3.15203017471747  1.46980313131313
 1  11.75775861716172 -0.40499774837484  2.73118954035404
 1  9.95269023962396 -0.07897043804380  2.68550167826783
 1  11.22613351245124  0.97680547734773  3.35271021402140
 1 -10.34149664766477  0.21514142484248 -2.73850124582458
 1 -11.80133919021902  1.13670966946695 -2.80601766706671
 1 -11.59775762086209 -0.49123787508751 -3.30004776237624
 1 -14.50200347364737 -2.75289424202420  0.12923471967197
 1  8.47692676067607  0.27325755095510  0.24424707090709
 1 -9.12468763766377  1.75654730753075  0.04943962356236
 1  11.58093382788279 -2.54679617561756 -1.80406325782578
 1  10.09797266366637 -1.65963206490649 -2.29961589558956
 1  11.55314460816082 -1.29377246734673 -2.96697264536454
 1  14.98866804710471  1.67241534133413  0.92832080098010
 1  9.56161593789379 -2.42838592029203 -0.16604304680468
 1 -5.60755521652165 -0.64641179187919  0.17665506230623
 1 -7.28347724582458 -1.19959193239324  0.86055830823082
 1 -6.75625186038604 -1.54604305250525 -1.00565878067807
 1 -6.37273956045605  2.70855965106511 -0.82843604530453
 1  6.81118466746675 -4.05666908950895  0.93035273097310
 1  6.43409075427543 -3.91867705550555 -0.59275886708671
 1  8.06808670607061 -3.94413059765977 -0.29326235893589
 1  6.62385081198120 -0.21565880528053 -0.38417053895390
 1 -4.21907413901390  0.64092375757576 -0.07840389798980
 1  4.96661026452645 -2.53478273127313  0.13911625082508
 1 -4.57240328602860  3.59971795359536 -0.88072772827283
 1  4.31524160036004  0.47086442534253 -0.34742395979598
 1 -1.62725248344834  4.10740218691869 -2.07257552945295
 1 -1.36331917031703  4.53736089338934 -0.23665562536254
 1 -2.81379086718672  4.92748516401640 -0.88924721842184
 1 -2.29293817421742  0.61073769926993 -0.24403913391339
 1  2.33149219131913  1.19985397459746 -0.48052506760676
 1  2.10739926762676 -2.38355475787579  1.25825420392039
 1  0.97369244054405 -2.17848713981398 -0.36968825392539
 1  2.82602535193519 -2.86219400660066 -0.59388363136314
 1 -0.01482559765976  2.50640047974797 -0.65805279677968
 1 -0.12558545454545 -0.67374754455445 -0.17839849484948

