%nproc=4
%Mem=4GB
# td=(NStates=1) CAM-B3LYP/6-31G(d,p) 

TD

0 1
 8 -13.98016389158916 -2.04911329302930  0.49290954625463
 8  14.76013785058506  0.88743633023302  0.01665226112611
 6 -11.68039089868987  0.15659173407341  1.25736055605561
 6 -10.88504546704671  0.29422219321932 -0.04586087328733
 6 -11.91044652525252 -1.37002148654865  1.37410525182518
 6 -12.58613200670067 -2.14441550635063  0.24606875777578
 6 -11.45760104900490 -0.42317979627963 -1.28038352825283
 6  11.14166749734973  0.89458110061006  1.21559183888389
 6 -10.99438091129113  0.76613835263526  2.58198524922492
 6 -12.99414557695770  0.83705935283528  1.18616969376938
 6  12.62152933343334  1.41823124962496  0.95999338553855
 6 -12.19583056895690 -1.54568243604360 -1.03141591029103
 6  13.52420404130413  0.31172884548455  0.27975529442944
 6  10.69593906820682  0.01004159395940  0.00468405350535
 6 -9.45466423032303  0.01366851865187  0.12511251885189
 6  12.90476845444544 -0.05491271067107 -1.00558614491449
 6  11.43484657345735 -0.38793383868387 -0.99672473127313
 6  10.20752763836384  2.14022333433343  1.18182089548955
 6  11.02688352085208  0.13935311071107  2.36990755205521
 6 -11.17913241074107  0.05493713521352 -2.59285154335434
 6 -8.48232433273327  0.81418640104010 -0.22746636913691
 6  9.26027095639564 -0.40831860766077  0.04167425122512
 6  11.01234117961796 -1.28737170397040 -2.16849645434543
 6 -7.12290361326133  0.48461570337034 -0.14545663496350
 6  8.69996645304531 -1.62143194069407 -0.12453759475948
 6 -6.66715813731373 -0.94619337623762  0.15671856045605
 6  7.32330081758176 -2.01016388838884  0.01204014171417
 6 -6.17251702770277  1.52877645214521 -0.39030088668867
 6  7.08702189638964 -3.50140386258626  0.12464268246825
 6  6.32291956095610 -1.06870715941594 -0.11040338273827
 6 -4.87041101480148  1.42836637583758 -0.51373228662866
 6  4.94378522442244 -1.39940778367837 -0.01304908510851
 6 -4.10005137753775  2.54914794099410 -0.67635882488249
 6 -2.57144758285829  2.55662361996200 -0.65290803860386
 6  3.91428539403940 -0.50896140224022 -0.13249276567657
 6  2.49346639523952 -0.88938340984098 -0.16573152575258
 6 -1.92432098229823  3.83020760336034 -0.87652680008001
 6 -1.84972205770577  1.44036678107811 -0.44100011641164
 6  1.72062060706071  0.14072563406341 -0.40353891579158
 6  2.16288961006101 -2.22426521382138  0.26423879177918
 6 -0.41823408230823  1.39485080638064 -0.58124148394839
 6  0.26800163096310  0.27661932973297 -0.38197145794579
 1 -10.99150589208921  1.41643342864286 -0.38921076627663
 1 -12.26753022612261 -1.48853886758676  2.27307520222022
 1 -11.00866853645365 -1.97898709370937  1.51158444104410
 1 -12.21871550515051 -3.19059816711671  0.08191305340534
 1 -10.14826022732273  0.00645232083208  2.81094971887189
 1 -10.78627879447945  1.72799587658766  2.32630735263526
 1 -11.74180177247725  0.62074549354936  3.36964114191419
 1 -13.64016521832183  0.51082708500850  0.46656312661266
 1 -13.71754752535254  0.47203881128113  2.05059906190619
 1 -12.77094577997800  1.93831745354535  1.14425490879088
 1  12.76532389908991  2.50535548504850  0.38308615181518
 1  12.96893132023202  1.59374341324132  1.89249685088509
 1 -12.59870334893489 -2.03904070057006 -1.75654984568457
 1  13.54764434923493 -0.53614336013601  0.83923425932593
 1 -9.31103346904690 -1.07627248624863  0.53499105910591
 1  13.50673581768177 -1.07331037033703 -1.54241939793979
 1  13.00806722422242  0.72177075497550 -1.74448437223722
 1  9.17579427702770  1.81009106090609  1.78043329072907
 1  10.03662552415241  2.36122872527253  0.22123903940394
 1  10.74421809510951  3.02816778847885  1.69709586058606
 1  11.65988883018302 -0.69997724632463  2.43277969936994
 1  10.01979695029503 -0.40857339833983  2.70593372147215
 1  11.15524642374237  0.66693449024903  3.23561850485049
 1 -10.14901739973998  0.04635454615462 -2.95712310801080
 1 -11.52487154345435  1.09513551205121 -2.75562262756276
 1 -11.79905775087509 -0.63233198449845 -3.14846260386039
 1 -14.58650192349235 -2.31769072167217 -0.24444264806481
 1  8.56173524152415  0.23344356955696  0.39063170937094
 1 -8.73979914881488  1.77965961876188 -0.70932625302530
 1  11.07476321082108 -2.37551904790479 -1.97627047854785
 1  9.90640350675068 -1.26303240494049 -2.33340927492749
 1  11.49059835353535 -0.92892598269827 -3.21569751785179
 1  15.23222240254025  1.21280938073807  0.82310027892789
 1  9.40657043334333 -2.39500258195820 -0.26007244974497
 1 -5.62328678967897 -0.90546769746975 -0.18699130233023
 1 -6.75555445354535 -1.00272224542454  1.30899315171517
 1 -7.17912414761476 -1.63233168136814 -0.42891110591059
 1 -6.57299958645865  2.46002479757976 -0.62116531823182
 1  6.44398794779478 -3.77339076167617  0.99743943964396
 1  6.58112545774577 -3.82619780758076 -0.78917850905091
 1  8.01679157655766 -4.23530971557156 -0.02818585128513
 1  6.87810623752375 -0.15489272867287 -0.17167928982898
 1 -4.25486771837184  0.65237490269027 -0.34791084868487
 1  4.46261986548655 -2.35807506050605 -0.14913257405741
 1 -4.75813185888589  3.31968995079508 -0.73915357085709
 1  4.26994707090709  0.55509284818482 -0.48275749314931
 1 -0.93915367356736  3.59717116381638 -1.50341861376138
 1 -1.74174701310131  4.17051420872087  0.08163620382038
 1 -2.58454794289429  4.73188560406041 -1.38179647334733
 1 -2.15548442884288  0.47012363786379 -0.17201193119312
 1  2.07442648474848  1.24633862306231 -0.51372838793879
 1  2.85089361706171 -2.63084948734873  1.12091046954695
 1  1.05161023232323 -2.16669596069607  0.76202491739174
 1  2.11489423882388 -3.04559234643464 -0.46826106910691
 1  0.03335922082208  2.24691453115312 -0.68574556605661
 1 -0.28443133913391 -0.67421759155916 -0.18031868686869

