%nproc=4
%Mem=4GB
# td=(NStates=1) CAM-B3LYP/6-31G(d,p) 

TD

0 1
 8 -14.09077495269527 -2.02285066676668  0.56288654395440
 8  14.72572440924092  0.95777336393639  0.29011960786079
 6 -11.70900375997600  0.10366644154415  1.28468328832883
 6 -10.92635959845985  0.23566633763376 -0.09974626182618
 6 -11.98719420002000 -1.32310679507951  1.50934877617762
 6 -12.63592698619862 -2.11606267106711  0.39181333223322
 6 -11.46662195109511 -0.59005648394839 -1.23846933683368
 6  11.06081941254125  0.93361500400040  1.06396667636764
 6 -10.91176264946495  0.85905764456446  2.44524157485749
 6 -13.02365852825283  0.89934558145815  1.13711478827883
 6  12.42343952445245  1.45418484498450  0.82846023222322
 6 -12.23114410031003 -1.59424729252925 -1.00948371707171
 6  13.46000762166217  0.37743541614161  0.57619493839384
 6  10.66344581888189 -0.04383379357936 -0.04952136703670
 6 -9.46031479537954 -0.21057390559056  0.12604261186119
 6  13.03247122472247 -0.28154537393739 -0.78195378167817
 6  11.64185727452745 -0.40375542084208 -0.92192725152515
 6  10.11822870847085  2.07559687168717  1.09249196259626
 6  10.82312314481448  0.05790496589659  2.35744630593059
 6 -11.34134863236324 -0.04130248874887 -2.57665992419242
 6 -8.47683378367837  0.67280226262626 -0.26457007950795
 6  9.28370329962996 -0.53413118891889 -0.01393130933093
 6  11.22632257775778 -1.28193115991599 -2.12870247494749
 6 -7.05566688958896  0.51399864166417 -0.16190828012801
 6  8.77520397679768 -1.68083788128813 -0.27040218121812
 6 -6.52869429092909 -0.95978473537354  0.13941683028303
 6  7.34994348184818 -2.05673854585459 -0.30586164846485
 6 -6.25512528852885  1.53889746424642 -0.35458731533153
 6  7.01730492469247 -3.57299102130213 -0.24534431623162
 6  6.29589685868587 -1.17646793549355 -0.29566190859086
 6 -4.74548852255226  1.55443898309831 -0.29386029942994
 6  4.96065691159116 -1.47891573447345 -0.06560434063406
 6 -3.99912128452845  2.66824985118512 -0.62268345734573
 6 -2.58625906400640  2.75456341394139 -0.77354010181018
 6  3.90377434293429 -0.58983949004900 -0.11375089148915
 6  2.52019906850685 -0.77003147464746  0.06497154455446
 6 -2.02444099429943  4.05043962656266 -1.14473362076208
 6 -1.74526161166117  1.54241698609861 -0.47209322572257
 6  1.67510605560556  0.31518307980798 -0.19567812971297
 6  2.17422074317432 -2.16210899819982  0.23236560446045
 6 -0.35327758665867  1.45153647494749 -0.47189054885489
 6  0.36814164496450  0.26740840864086 -0.28996225702570
 1 -10.89945668716872  1.38636042134213 -0.32400424562456
 1 -12.43574704780478 -1.58448846254625  2.48970686538654
 1 -11.00572824242424 -1.75717491249125  1.71713499609961
 1 -12.26884051765176 -3.11610071737174  0.34592945504550
 1 -9.72708811011101  0.55614729032903  2.60000862476248
 1 -10.83720388698870  1.86927000400040  2.37134185608561
 1 -11.44415200750075  0.49360277927793  3.32701687948795
 1 -13.70916211801180  0.13520952325233  0.38486495679568
 1 -13.50157592819282  0.85177678507851  2.25208921092109
 1 -12.83324200960096  1.95702932473247  0.76349683298330
 1  12.49821718841884  2.23998894839484  0.16665450865086
 1  12.71774620172017  2.13937797669767  1.82482008320832
 1 -12.61315479407941 -2.27062385888589 -1.85685987668767
 1  13.65563514831483 -0.35881562736274  1.33194353025303
 1 -9.27963032873287 -1.28433329232923  0.28452601260126
 1  13.38055319941994 -0.85430847014701 -1.09489464546455
 1  13.56266268376838  0.44408298619862 -1.49369929372937
 1  9.13048974657466  1.89878993079308  1.80347559495950
 1  9.99861172277228  2.63650625302530  0.04436135163516
 1  10.63585725902590  2.97203217491749  1.81170732173217
 1  11.73498633993399 -0.74228147674767  2.34369079047905
 1  9.79605457605760 -0.30006254725473  2.46953008110811
 1  11.20447134623462  0.66867466426643  3.23658860186019
 1 -10.26766926492649 -0.05572566186619 -2.97064446014601
 1 -11.87676673297330  0.94694069256926 -2.63825089038904
 1 -11.84576242134213 -0.61886063736374 -3.49424718231823
 1 -14.64174744804481 -2.94384333693369 -0.04918312211221
 1  8.57308637663766  0.37226745194519  0.17229987618762
 1 -8.83680884978498  1.62428408120812 -0.33873919431943
 1  11.16014174867487 -2.43042453845385 -1.83583643514351
 1  10.13139600600060 -1.27276337803780 -2.51738767276728
 1  12.04241353505351 -1.03568665876588 -2.90808675677568
 1  15.21376055635564  1.12852095189519  1.16082405130513
 1  9.55616539283928 -2.37059014071407 -0.46663310581058
 1 -5.43264772577258 -1.10534768546855 -0.21986458965897
 1 -6.55402430053005 -1.26960893409341  1.30682293469347
 1 -7.00470670587059 -1.57131557975798 -0.60970918571857
 1 -6.79927221372137  2.47233602870287 -0.49478267996800
 1  6.50393394239424 -3.92972639523952  0.77791748744874
 1  6.35411275647565 -3.76062124992499 -1.07426701790179
 1  8.05878577597760 -4.19483566816682 -0.48915194789479
 1  6.55235366226623 -0.18221546094609 -0.39993211511151
 1 -4.26289852145215  0.41586125132513 -0.30729678727873
 1  4.67443104660466 -2.48091734473447  0.02914525372537
 1 -4.57693373907391  3.52933091489149 -0.95455511101110
 1  4.22766284248425  0.51264860376038 -0.02438165556556
 1 -1.33424318251825  3.90790223692369 -1.96416468836884
 1 -1.20798363676368  4.59288644594460 -0.44746670647065
 1 -2.79537902600260  4.87052946844684 -1.36341463516352
 1 -2.34976385678568  0.66430305580558  0.12314758475848
 1  2.08587762986299  1.23987797699770 -0.12659967506751
 1  2.45403393109311 -2.48635503790379  1.22485086358636
 1  0.99685475677568 -2.41931122222222  0.39132784768477
 1  2.29480222962296 -2.72880066726673 -0.73571781478148
 1  0.21197708260826  2.41297113681368 -0.68274526602660
 1 -0.30861375737574 -0.52983315311531 -0.05784643964396

