%nproc=4
%Mem=4GB
# td=(NStates=1) CAM-B3LYP/6-31G(d,p) 

TD

0 1
 8 -14.12391826702670 -2.18504688638864  0.58712896819682
 8  14.82548438523852  0.97212479907991  0.08181877777778
 6 -11.79051191079108  0.04792086698670  1.36874169416942
 6 -10.99426638913891  0.39199197019702 -0.01774806200620
 6 -11.93233871447145 -1.50600508490849  1.49219706100610
 6 -12.63134652815282 -2.13270433523352  0.22791694259426
 6 -11.67044233313331 -0.32022950125012 -1.18488397829783
 6  11.12297562816281  0.96174781728173  1.08655893559356
 6 -10.94554602780278  0.60534227302730  2.50686773747375
 6 -13.18189435183518  0.61970761766177  1.36379745654565
 6  12.52430961146115  1.49770919741974  0.81524891109111
 6 -12.33112409830983 -1.40290815861586 -1.03593636233623
 6  13.57074869576958  0.38578625122512  0.33675099399940
 6  10.75292476677668 -0.03412282248225  0.01339492459246
 6 -9.54380314421442 -0.00997384558456  0.01484149174918
 6  13.00270824842484 -0.20694791419142 -0.94778036433643
 6  11.59632272107211 -0.47337238253825 -0.97027208600860
 6  10.17417430303030  2.07554686668667  1.17316002940294
 6  11.12729356185618  0.18991816721672  2.50295085638564
 6 -11.29418391589159  0.28822046354635 -2.52664492269227
 6 -8.56235233553355  0.86015099749975 -0.16520014251425
 6  9.26537146644664 -0.42161993779378  0.09066915071507
 6  11.19010895639564 -1.39324229102910 -2.07167677237724
 6 -7.12523384628463  0.48457569936994 -0.15518760806081
 6  8.77573402980298 -1.69449924742474 -0.01776691769177
 6 -6.80066148764876 -0.94831358825883  0.11336422502250
 6  7.41694018151815 -2.15196806880688  0.03368230593059
 6 -6.18896867286729  1.50828440294029 -0.50060191679168
 6  7.10556375057506 -3.56316003820382  0.18208842704270
 6  6.39133640264026 -1.18844913361336 -0.01127346974697
 6 -4.75502947664767  1.42912645184518 -0.57497841124112
 6  5.08209905580558 -1.50006784968497  0.03065528532853
 6 -4.07440881328133  2.58246127232723 -0.78885007400740
 6 -2.64549498759876  2.58927688528853 -0.80150289808981
 6  4.06514047954795 -0.47347785388539 -0.13946346274627
 6  2.69628667726773 -0.70587505900590 -0.18713366596660
 6 -1.87220577077708  3.97297187978798 -0.95223437083708
 6 -1.88802588808881  1.45231797619762 -0.51683770017002
 6  1.70942948794879  0.29623118461846 -0.38650721262126
 6  2.21103442454245 -2.18434122142214 -0.06144377647765
 6 -0.48822108100810  1.38485980728073 -0.47399075887589
 6  0.25667049784979  0.21888355615562 -0.42057531833183
 1 -11.09187592909291  1.53982576787679 -0.06331817701770
 1 -12.76666013911391 -1.58411842554255  2.27493538823882
 1 -10.93256092569257 -1.86184537953795  1.49348263086309
 1 -12.49831346494650 -3.22877198449845  0.30434529662966
 1 -10.02125752705271  0.05135681128113  2.44239286318632
 1 -10.71630179677968  1.79184226122612  2.47634235613561
 1 -11.47699529182918  0.54819823882388  3.42060623842384
 1 -13.97314851665166  0.35935193749375  0.56370284058406
 1 -13.62547831843184  0.20212181958196  2.20628463046305
 1 -13.27287597299730  1.84627824962496  1.33290377367737
 1  12.47309467616762  2.28334328382838 -0.02305446224622
 1  13.14171859895990  1.68230226912691  1.66819442064206
 1 -12.71123460206021 -1.90658745524552 -1.88098228892889
 1  13.83758334313431 -0.46013575937594  1.03587392329233
 1 -9.48530089578958 -1.17991285028503  0.40765832583258
 1  13.45320046414641 -1.16563960326033 -1.00598575457546
 1  13.37505392289229  0.26598517641764 -1.97579750355035
 1  9.19380607820782  1.71767181898190  1.50977622502250
 1  10.27642950455046  2.71463406580658  0.19540645614561
 1  10.53340701400140  2.66158112981298  2.01643779477948
 1  11.98281112241224 -0.38614586318632  2.54990141154115
 1  10.18132310291029 -0.34049659065907  2.74309743784378
 1  11.32591349044904  1.09895769256926  3.33382832583258
 1 -10.29795229322932  0.57725763646365 -2.66271366706671
 1 -11.88057711401140  1.21339733823382 -2.80369743504350
 1 -11.81141898699870 -0.32149090039004 -3.32971072867287
 1 -14.32642591589159 -2.16845579817982 -0.32372057585759
 1  8.50218928692869  0.47173739893989  0.29670231643164
 1 -8.82243741264126  1.90004165696570 -0.53339866026603
 1  11.55084081858186 -2.42892438843884 -1.98918176967697
 1  10.19383224962496 -1.58862496419642 -2.46797273127313
 1  11.66569586328633 -1.19480257035704 -3.02956890499050
 1  14.99936911721172  1.62920101990199  0.73492146104610
 1  9.47905768206821 -2.47380046174617 -0.16857329982998
 1 -5.89357381838184 -1.18534568526853 -0.22233483668367
 1 -6.95256415451545 -1.19841181438144  1.24812706510651
 1 -7.53533976917692 -1.44285273347335 -0.67340555535554
 1 -6.54755704220422  2.43656245134513 -0.56959016071607
 1  6.96382993199320 -3.57341076367637  1.23864356005601
 1  6.10722806800680 -3.64364955275528 -0.60755034623462
 1  7.88884878227823 -4.26399258385839 -0.19398243094309
 1  6.47767619451945 -0.22269950935094 -0.24250637253725
 1 -4.17243947554755  0.55217488268827 -0.50781683928393
 1  4.62371597509751 -2.59690894389439 -0.06735439623962
 1 -4.58538458415842  3.57329531133113 -1.10668032353235
 1  4.46201627782778  0.53835117401740 -0.09549876727673
 1 -1.35733549174917  4.05081652835284 -1.93447171907191
 1 -1.22305514391439  4.05223238053805  0.05649368956896
 1 -2.65137462556256  4.58468088358836 -1.23362165586559
 1 -2.28549743014301  0.40040666616662 -0.70592532253225
 1  2.09137817991799  1.44069805900590 -0.30131714681468
 1  2.41878040574057 -2.69247564996500  1.00101848034803
 1  1.20502557385739 -2.27605689678968 -0.06904818991899
 1  2.68221097049705 -2.80515830303030 -0.81086532953295
 1  0.04089997489749  2.50936077577758 -0.48443543504350
 1 -0.19411230723072 -0.86001617141714 -0.50805146014601

