%nproc=4
%Mem=4GB
# td=(NStates=1) CAM-B3LYP/6-31G(d,p) 

TD

0 1
 8 -14.23814969016902 -1.78739712141214  0.56115637093709
 8  14.72107394419442  1.23221080768077 -0.27694709880988
 6 -11.69613247284729  0.06076215111511  1.23468828882888
 6 -11.03471043354335  0.31350412141214 -0.03719000620062
 6 -12.03955943654366 -1.44173865826583  1.28657649894989
 6 -12.86611000450045 -1.97034809960996  0.16345049594959
 6 -11.65339062796280 -0.28979645794579 -1.34326981688169
 6  11.14463779437944  1.02085372787279  1.09744002370237
 6 -10.91036250945094  0.55289702850285  2.41831888258826
 6 -13.14926108850885  0.88346399329933  1.30311138793879
 6  12.60676785728573  1.65558498499850  0.69805719191919
 6 -12.44990597649765 -1.28992686048605 -1.10980374907491
 6  13.48319994089409  0.56222389498950  0.19753707260726
 6  10.65781525582558 -0.03564297449745 -0.00223663856386
 6 -9.55469423332333 -0.09820266846685 -0.09576956935694
 6  12.86975495309531  0.01124390499050 -1.17522310861086
 6  11.45479856865687 -0.41540658595860 -0.96789184798480
 6  10.16997388298830  2.16512582458246  1.23223593699370
 6  11.20844167666767  0.28046722212221  2.48975953725373
 6 -11.34703920142014  0.31529317081708 -2.51394365256526
 6 -8.54515061536154  0.80187516991699 -0.22795641814181
 6  9.27940286958696 -0.60444822062206  0.14559464326433
 6  11.03953389888989 -1.27046001280128 -2.15982558725873
 6 -7.08170949384939  0.42264950675068 -0.22027411671167
 6  8.84286074247425 -1.81006080358036  0.01837669666967
 6 -6.87152857435744 -1.06336509340934  0.01545443404340
 6  7.46051453895390 -2.19287215921592  0.18115705340534
 6 -6.13477325332533  1.31743531803180 -0.45069692629263
 6  7.19236243044304 -3.75294901710171  0.15807602580258
 6  6.46226349534953 -1.27858814751475  0.04827248484848
 6 -4.74187816151615  1.22202574177418 -0.53266417981798
 6  5.07251809770977 -1.54108195109511  0.09253147294729
 6 -3.92478385078508  2.42696572277228 -0.68654984398440
 6 -2.49485992409241  2.46945490309031 -0.54142689048905
 6  4.09895386088609 -0.59097960406041 -0.14258377477748
 6  2.72359940854085 -0.92305677717772  0.03387843524352
 6 -1.94641319151915  3.93652823542354 -0.85415456285629
 6 -1.71368845434543  1.32760550495049 -0.42499851625163
 6  1.82122066706671  0.17647920942094 -0.22436099799980
 6  2.08738205930593 -2.22461524882488  0.20039240714071
 6 -0.29162142104210  1.37295861716172 -0.46548990879088
 6  0.44545937673767  0.23221488928893 -0.17294055485549
 1 -11.09980672217222  1.51032281758176 -0.24087593279328
 1 -12.61115458855886 -1.59878989268927  2.31363925862586
 1 -10.97283495309531 -2.01760095509551  1.23340662326233
 1 -12.61246488008801 -3.02353146044604  0.32163702580258
 1 -9.88401380268027 -0.03475179957996  2.78831745564556
 1 -10.67809797639764  1.48519159615962  2.32493721562156
 1 -11.37160475277528  0.60853427242724  3.47368154595460
 1 -13.72409361116112  0.81613761606161  0.31956842714271
 1 -13.80786655725573  0.31613322072207  2.06409041104110
 1 -13.08111679707971  1.89647326912691  1.53693417671767
 1  12.71187855455546  2.51543649314931 -0.07582973977398
 1  13.09375380248025  1.95148918781878  1.49607720892089
 1 -12.87833131173117 -1.71936873337334 -1.96038022872287
 1  13.60739032383238 -0.34596434223422  0.74026436233623
 1 -9.37116948264826 -1.14210906990699 -0.09697213721372
 1  13.54174931903190 -0.75514855415542 -1.40622577857786
 1  13.00710712821282  0.80735931383138 -1.89771969576958
 1  9.22111880948095  1.84059411121112  1.66949219661966
 1  9.74113597519752  2.75959856225623  0.26822373787379
 1  10.52218589188919  2.97292226392639  1.92306845784578
 1  12.10569341064106 -0.50339758835884  2.58722514391439
 1  10.19423439403940 -0.13025556655666  2.75738886698670
 1  11.51100199929993  0.99383718051805  3.26974191719172
 1 -10.24228672667267 -0.04892498179818 -2.60022741844184
 1 -11.29616867316732  1.59376537503750 -2.55269233453345
 1 -11.94340218531853 -0.04550330163016 -3.41732949054905
 1 -14.72742601590159 -1.55654460706071 -0.34287249104910
 1  8.43008207620762  0.02725295049505  0.52038468466847
 1 -8.72525769466947  1.83679533233323 -0.51897721812181
 1  11.33135887038704 -2.44710620662066 -1.82717556905691
 1  9.92802566896690 -1.02967906960696 -2.11225715971597
 1  11.62016130983098 -0.81025411551155 -2.94185013311331
 1  15.22186136643664  1.69677777757776  0.37534550345034
 1  9.41329110541054 -2.63972705440544 -0.27595403790379
 1 -5.77426188718872 -1.13710086078608 -0.16245884908491
 1 -7.10235913401340 -1.40517249044904  1.02063431583158
 1 -7.43902013721372 -1.47660610881088 -0.61746996179618
 1 -6.50896318281828  2.36252504760476 -0.69855305700570
 1  6.66047959695969 -4.01141456405641  1.23144283998400
 1  6.42760010521052 -4.16978216601660 -0.65874546574657
 1  8.32113201060106 -4.13370955555556  0.11811877917792
 1  6.50568899579958 -0.22384962436244 -0.22872499439944
 1 -4.19390162176218  0.21833149834984 -0.08402446004600
 1  4.83191679517952 -2.58614786778678  0.45645798499850
 1 -4.76135218091809  3.23221120292029 -0.84886454195420
 1  4.32232230843084  0.54141148004800 -0.39910912831283
 1 -1.59527928612861  3.95088653535354 -1.79051732363236
 1 -0.99493233163316  4.05322247954796 -0.03896585638564
 1 -2.67277676577658  4.58610102560256 -0.66991528522852
 1 -2.06388526892689  0.39486611211121 -0.40941567156716
 1  2.23978302040204  1.11351534073407 -0.46660367546755
 1  2.53698222592259 -2.73549995239524  1.06369474797480
 1  1.01568663996400 -2.04100339143914  0.55395411031103
 1  1.95817856725673 -2.93784157135714 -0.82781702470247
 1  0.37591347624763  2.29123896359636 -0.57455444694469
 1 -0.10466336233623 -0.63112328212821  0.16222556755676

