%nproc=4
%Mem=4GB
# td=(NStates=1) CAM-B3LYP/6-31G(d,p) 

TD

0 1
 8 -14.06770264546455 -1.91790017171717  0.54468472377238
 8  14.67808964576458  1.03401098769877  0.12258285418542
 6 -11.78422128172817 -0.00369429452945  1.36273109310931
 6 -10.82696965946595  0.28308107910791  0.08705241804180
 6 -11.88975445604560 -1.47986247064706  1.54389223052305
 6 -12.65881927542754 -2.05620668546855  0.31949610051005
 6 -11.63040832973297 -0.28502598089809 -1.19876536643664
 6  11.06322965356536  0.91751339383938  1.14644492419242
 6 -10.88968044124412  0.50218195699570  2.58016506720672
 6 -13.10125628802880  0.74949059595960  1.35457653445345
 6  12.59186636713671  1.47455688218822  0.97095448164816
 6 -12.40151113701370 -1.41078894669467 -1.01865463416342
 6  13.49260088098810  0.41841951455146  0.38255557445745
 6  10.66860633493349 -0.09644905510551  0.13080666576658
 6 -9.42570133403340 -0.18766161436144  0.07191719931993
 6  12.98687666526653 -0.07832505190519 -0.94322990929093
 6  11.52459554835484 -0.46941198649865 -0.85796085488549
 6  10.23118000360036  2.15560487248725  1.12982569596960
 6  10.97785861836184  0.38459763516352  2.51036159745975
 6 -11.29915441294130  0.24747638913891 -2.43288554675468
 6 -8.48822492279228  0.64852983538354 -0.25401902440244
 6  9.33022795209521 -0.48323609940994  0.23440352415242
 6  11.04099404490449 -1.34549751655166 -1.94943454815482
 6 -7.11997332023202  0.45110235203520 -0.22958504780478
 6  8.78625508190819 -1.74249404690469  0.05249010801080
 6 -6.65800722222222 -0.96582533943394  0.17765065366537
 6  7.36934542204220 -2.15062793479348 -0.05204626692669
 6 -6.27270704670467  1.55487906240624 -0.39184104070407
 6  7.17502069626963 -3.64796851905191  0.24074429262926
 6  6.35010227922792 -1.24337462616262 -0.11562390479048
 6 -4.79372334603460  1.55028856805681 -0.47636855025503
 6  5.01616246214621 -1.58109595249525 -0.16973475367537
 6 -4.01954332673267  2.68826185238524 -0.66058724772477
 6 -2.59218965706571  2.64648260586059 -0.74349709750975
 6  4.02260622612261 -0.64280478657866 -0.49055857225723
 6  2.55338238683868 -0.81011548304831 -0.44555950855085
 6 -1.96855540574057  3.98117269986999 -1.00279942734273
 6 -1.76026311181118  1.47404014841484 -0.65952196859686
 6  1.74539308430843  0.28891045254525 -0.62703126502650
 6  2.01767508860886 -2.18930171747175 -0.08802643474347
 6 -0.30163242214221  1.47918924022402 -0.76677003680368
 6  0.43130796159616  0.29057072487249 -0.52851611241124
 1 -10.85929267076708  1.32551433673367  0.14826298109811
 1 -12.57105057815781 -1.78572858655866  2.33835172987299
 1 -10.98613628322832 -1.97822701770177  1.81855513811381
 1 -12.43031666526653 -3.10446955425543  0.31890675277528
 1 -9.92575797709771 -0.17803612801280  2.68951757565757
 1 -10.71171133773377  1.56056913391339  2.37539226112611
 1 -11.44465205750575  0.30450386938694  3.49748392619262
 1 -13.63348455025502  0.46901290359036  0.45779224952495
 1 -13.68108387898790  0.35058666606661  2.08116211821182
 1 -12.87698638403840  1.86068969076908  1.59937042034203
 1  12.72566993369337  2.32603755325533  0.03075091829183
 1  13.05182961006101  1.90158419731973  2.03481108230823
 1 -12.91292477107711 -1.93976077257726 -1.93310750145015
 1  13.58157774257426 -0.47857760356036  0.95982631853185
 1 -9.30784315001500 -1.24334919391939  0.21613917391739
 1  13.64648979307931 -0.92590562986299 -1.40055521152115
 1  13.01252767026703  0.84287286518652 -1.61472139593959
 1  9.22507920552055  2.14954500630063  1.67771301870187
 1  10.04274613621362  2.36037864026403  0.14200111561156
 1  10.60310398369837  2.89008398009801  1.59190534153415
 1  11.63019586088609 -0.56736398499850  2.50189661106111
 1  10.05392036263626  0.25001246024602  2.80307343544354
 1  11.27853875297530  1.03061085788579  3.34867981098110
 1 -10.15187768576858 -0.15985607490749 -2.63736113181318
 1 -11.24390344664467  1.46648264676468 -2.22474954025403
 1 -11.91672951805181  0.13693494219422 -3.40131788938894
 1 -14.72056532983298 -2.06428538113811 -0.02043024682468
 1  8.65677474547455  0.20869109430943  0.64117676387639
 1 -8.75050021892189  1.74232588538854 -0.41038635903590
 1  11.60319605410541 -2.37376887288729 -1.67612046354635
 1  9.91764463086309 -1.48790489218922 -2.19323525752575
 1  11.45935522922292 -1.00747383748375 -3.02967891599160
 1  15.01489066936694  1.20837893769377  1.02503047194719
 1  9.34766454275428 -2.48565164686469 -0.12808925142514
 1 -5.46403086408641 -1.15649279998000  0.28377577437744
 1 -7.39690858895890 -1.28796076927693  1.20376262866287
 1 -6.92796903210321 -1.76412486068607 -0.67015523032303
 1 -6.80053233973397  2.36309510461046 -0.99252245394539
 1  6.43172672167217 -3.85080850345035  1.08502819851985
 1  6.63720106530653 -4.30290547834784 -0.84023361456146
 1  8.14585448284828 -4.26721290589059  0.23968093539354
 1  6.43592201910191 -0.14506174557456 -0.14991711361136
 1 -4.19029126072607  0.72745241044104 -0.07045310291029
 1  4.66607021052105 -2.47696694969497 -0.00851851265127
 1 -4.59180522622262  3.53834181598160 -1.01066072157216
 1  4.26247632383238  0.50171751065106 -0.64479369676968
 1 -1.32691244944494  4.02321376807681 -1.93950222212221
 1 -1.43099593799380  4.26313347064707 -0.31459341914191
 1 -2.75869535763576  4.75518793429343 -1.17289558325833
 1 -2.36468534893489  0.57964458995900 -0.64734946494650
 1  2.35079412151215  1.21275526472647 -0.62356937203720
 1  2.04110263796380 -2.63636003840384  0.85520389888989
 1  0.83735880718072 -2.21391068216822 -0.29527081218122
 1  2.50319306870687 -2.88239602680268 -0.83376761976198
 1  0.37656354125413  2.34025386508651 -1.05962295379538
 1 -0.32478537453745 -0.55492566236624 -0.11685234023402

