%nproc=4
%Mem=4GB
# td=(NStates=1) CAM-B3LYP/6-31G(d,p) 

TD

0 1
 8 -14.26905278047805 -1.80794917661766  0.19205946124612
 8  14.81388322512251  1.01364895149515 -0.06486589068907
 6 -11.95456831643164  0.13558963386339  1.06338115811581
 6 -10.99497646014601  0.29472224322432 -0.23470975817582
 6 -12.23657913851385 -1.35198968336834  1.37162500380038
 6 -12.86823021652165 -2.04339540434043  0.12989714061406
 6 -11.53591888078808 -0.50937841614161 -1.42753824372437
 6  11.19691302190219  0.97378902140214  0.92000227992799
 6 -11.21191266446645  0.73809554835484  2.30809786048605
 6 -13.22984914731473  0.97841348824882  0.87607868466847
 6  12.54111129162916  1.59476890339034  0.47236462266227
 6 -12.36452743864387 -1.54938280608061 -1.24014678337834
 6  13.52526414731473  0.48351602420242  0.01436875577558
 6  10.75771524582458  0.04913550335034 -0.16416283118312
 6 -9.55308407230723 -0.01559440764076  0.03136314391439
 6  13.03856183378338 -0.11617883728373 -1.28950453675368
 6  11.54582767156716 -0.43648869416942 -1.16696175497550
 6  10.17689457505751  2.20665997799780  1.15737845124512
 6  11.32986381888189  0.35994516991699  2.36616717801780
 6 -11.10736523402340  0.05180682218222 -2.74040629882988
 6 -8.53934003430343  0.88216319871987 -0.08229185168517
 6  9.35688061736174 -0.39091686748675 -0.02985290149015
 6  11.05215516101610 -1.33026599339934 -2.29487909260926
 6 -7.07255857875788  0.50916815861586 -0.01310339963996
 6  8.86559301570157 -1.71224102160216 -0.04072921392139
 6 -6.67766918841884 -0.93756251315132  0.44329721832183
 6  7.56957544504450 -2.08856172817282  0.05953489118912
 6 -6.14499427542754  1.46852042654265 -0.15728758535854
 6  7.16241943614361 -3.60397411961196  0.22813303150315
 6  6.36470373937394 -1.23460374907491  0.02599025662566
 6 -4.76124009770977  1.36975051425142 -0.32794370777078
 6  5.06049689558956 -1.61447929082908  0.08656087588759
 6 -3.97638901130113  2.48486151235124 -0.42171336033603
 6 -2.55861629972997  2.48717667526753 -0.38718146594660
 6  3.90778474397440 -0.72178268436844 -0.04727424382438
 6  2.62587963656366 -0.85307977947795  0.07879292669267
 6 -1.84005255545555  3.79217379998000 -0.71720086748675
 6 -1.72298938443844  1.41275401980198 -0.14571058745875
 6  1.72799134413441  0.24093565506551 -0.11801036293629
 6  2.13323664476448 -2.29499228652865  0.42088445634563
 6 -0.35781804070407  1.31106242754275 -0.06753011281128
 6  0.34280911171117  0.14198586638664  0.06155289448945
 1 -10.88616535803580  1.39892167746775 -0.30883272847285
 1 -12.85088856195619 -1.45119513321332  2.22800069476948
 1 -11.34673234283428 -1.89159835483548  1.42027531013101
 1 -12.66474010761076 -3.10564967226723  0.08279314141414
 1 -10.13278868016802  0.41773344894489  2.46140476437644
 1 -11.22360252685269  1.86900997799780  2.19121384328433
 1 -11.75261285358536  0.39212263126313  3.24781895969597
 1 -13.91390259205921  0.32780878317832  0.04402087238724
 1 -13.95281105170517  0.99160076747675  1.69901390339034
 1 -13.02530121552155  2.03147676947695  0.58580906420642
 1  12.53206057275728  2.21742669216922 -0.21918407520752
 1  13.16291071817182  1.98472251115112  1.46174377557756
 1 -12.55736921552155 -2.04271106760676 -1.98493268396840
 1  13.78062764756476 -0.23403314911491  0.68366870277028
 1 -9.09506187188719 -1.05938079707971  0.23370093009301
 1  13.58275341944194 -0.91035407470747 -1.85677083308331
 1  12.90070648814881  0.66241481938194 -2.15430535433543
 1  9.20632733033303  1.85256530833083  2.04343959135914
 1  9.77103896549655  2.65686828922892  0.46021293679368
 1  10.73256692999300  3.03259823152315  1.79480563156316
 1  12.01304414571457 -0.49118636723672  2.27431385278528
 1  10.37746271687169 -0.09203174417442  2.60041316941694
 1  11.55105600470047  0.99858765556556  3.14229917291729
 1 -10.13789628762876 -0.06804689398940 -2.92383977967797
 1 -11.24590364666467  1.25260125862586 -2.97519458475848
 1 -11.56111395649565 -0.56163491479148 -3.63252100970097
 1 -14.68363163646365 -2.64950390299030 -0.53332153595360
 1  8.74197326532653  0.49989021422142  0.11641428762876
 1 -8.61824699359936  1.75679733253325 -0.21280660106011
 1  11.24739047354736 -2.47421891789179 -2.25465831733173
 1  9.96573944034403 -1.25278137983798 -2.27606354035403
 1  11.49486878057806 -1.14403749384938 -3.19187513561356
 1  15.11532071237124  1.07506560636064  0.82883085198520
 1  9.61975175147515 -2.49411249294929 -0.03768021052105
 1 -5.57666212721272 -1.23768091879188  0.30167756455646
 1 -6.92977187528753 -1.05174714791479  1.53367561996200
 1 -7.13040927612761 -1.88804725292529 -0.02039025382538
 1 -6.74771705820582  2.38544733983398 -0.40822402410241
 1  6.41227477647765 -3.84122754535454  1.11599129482948
 1  6.26229357455746 -3.86587177497750 -0.59407899909991
 1  7.94949484688469 -4.11107729232923  0.06069303660366
 1  6.52881130803080 -0.28417565696570 -0.22529465136514
 1 -4.19540177177718  0.43208287348735 -0.27564362196220
 1  4.77940154365437 -2.62913216621662  0.36838917811781
 1 -4.54850089578958  3.42358033983398 -0.74819447494749
 1  4.34792486868687  0.39045638453845  0.02510329292929
 1 -1.22474223242324  3.66942838953895 -1.55395366726673
 1 -1.13930676907691  3.98139529682968  0.10197823802380
 1 -2.61618110621062  4.49068148364836 -1.18128642234223
 1 -2.30299918031803  0.52999962546255 -0.04190892089209
 1  2.28292733483348  1.19743373257326 -0.28168518361836
 1  2.74276280398040 -2.63882028442844  1.39178755725573
 1  1.05155022632263 -2.35670496159616  0.60099881478148
 1  2.19329207860786 -2.77924571177118 -0.69649389238924
 1  0.33830971587159  2.04613445314531 -0.21170816231623
 1 -0.16409930593059 -0.88282845264526  0.40425977097710

