%nproc=4
%Mem=4GB
# td=(NStates=1) CAM-B3LYP/6-31G(d,p) 

TD

0 1
 8 -14.14651052625262 -1.82937131883188  0.66243649894989
 8  14.75449728652865  1.03597118371837  0.26219681558156
 6 -11.81334419401940  0.14086016091609  1.24014883488349
 6 -11.05174213671367  0.30535330633063 -0.12463875107511
 6 -12.14230971157116 -1.43211769616962  1.53551139243924
 6 -12.75181857535754 -2.09292035683568  0.42998714961496
 6 -11.59490477937794 -0.52602008030803 -1.19593508340834
 6  11.08043137373737  0.94265590809081  1.22632291199120
 6 -10.95826729992999  0.80147188598860  2.36565361606161
 6 -13.15707186958696  0.91007665456546  1.15504658145815
 6  12.45745292579258  1.55318474497450  0.83108049424942
 6 -12.35173615951595 -1.59891775957596 -0.92233500220022
 6  13.46587820872087  0.51761943454345  0.35743306220622
 6  10.74472394669467 -0.09679909010901  0.01130471557156
 6 -9.54222298619862 -0.09671251945195 -0.03905389778978
 6  13.08244622222222 -0.13267048644864 -0.87891347764776
 6  11.57027011581158 -0.49990503580358 -1.01579663846385
 6  10.03725061066107  2.09944925692569  1.18056076947695
 6  10.99682051455146  0.21539071447145  2.52680324162416
 6 -11.28071256875688 -0.18098645714571 -2.64108636683668
 6 -8.53582968326833  0.78741372377238 -0.28592221472147
 6  9.25479040834083 -0.39997777357736  0.06713679747975
 6  11.16038598409841 -1.29797276407641 -2.19709931463146
 6 -7.11204252715272  0.55337257905791 -0.21344343364336
 6  8.80789724612461 -1.65671546904690 -0.27611275227523
 6 -6.67111853335334 -0.90724948184818  0.17967085568557
 6  7.43175166266627 -2.12958583058306 -0.15747680998100
 6 -6.16440621662166  1.49408298279828 -0.59218107470747
 6  7.14158735293529 -3.57244096629663 -0.08641842364236
 6  6.38253552255225 -1.27757804650465 -0.24563690609061
 6 -4.80071404510451  1.47733127232723 -0.43976488988899
 6  5.01637248314831 -1.59276711961196 -0.19500728092809
 6 -3.89628100050005  2.59761278747875 -0.59885107410741
 6 -2.49944038213821  2.64736269386939 -0.58283103090309
 6  3.94780874637464 -0.68327883398340 -0.37246676307631
 6  2.66946399499950 -0.81264573607361 -0.10579553215322
 6 -1.72756130633063  3.93777836043604 -0.70637978537854
 6 -1.81695878137814  1.43980672507251 -0.42971898829883
 6  1.82032057705771  0.20058161966197 -0.28888745064506
 6  2.14099742084208 -2.21851463876388  0.14818718661866
 6 -0.36519877877788  1.36385770707071 -0.54937829762976
 6  0.38398322912291  0.26171783958396 -0.32356561736174
 1 -10.83371011251125  1.36118790409041 -0.40659250445045
 1 -12.69837331043104 -1.41767178087809  2.53863175787579
 1 -11.14790245984598 -1.77121631663166  1.84232751535154
 1 -12.53395702930293 -3.33275238253825  0.34804966706671
 1 -10.09351475277528  0.20092176777678  2.59468809270927
 1 -10.48251841844184  1.82732580958096  2.09227394929493
 1 -11.57133472577258  0.85232865186519  3.33750792859286
 1 -13.83705490729073  0.69936593889389  0.30258672897290
 1 -13.72369814041404  0.97385899329933  2.09783378537854
 1 -12.86739542494249  1.99571319311931  1.41986246954696
 1  12.23593095979598  2.43179812931293 -0.03751590839084
 1  12.61302572967297  2.13369740864086  1.86823442464246
 1 -12.60461393999400 -2.25706250275028 -1.83212740344034
 1  13.56746633143314 -0.30982072787279  1.12316265216522
 1 -9.31504387008701 -0.98382324132413  0.40187774777478
 1  13.75449059315932 -1.01339437873787 -1.13340849684968
 1  13.31376779427943  0.55145372327233 -1.77599752355236
 1  9.04054075167517  1.95242529432943  1.27023227062706
 1  9.73799566116612  2.65102770517052  0.24223113861386
 1  10.37752142544254  2.95668063976398  1.81998814981498
 1  11.54153699499950 -0.80856810541054  2.51374779617962
 1  9.94161913251325 -0.09924246524652  2.94924805290529
 1  11.45614651375137  0.89822761956196  3.21290623362336
 1 -10.08183068106811 -0.28075816511651 -2.66235363106311
 1 -11.85371442774277  0.91579757825783 -2.56106317161716
 1 -11.73784162926293 -0.89085783708371 -3.44384214181418
 1 -14.46693996729673 -2.18681763436344 -0.13044124792479
 1  8.59768883688369  0.32535276047605  0.49596224242424
 1 -8.85099026792679  1.81296294909491 -0.72763808420842
 1  11.32318805330533 -2.37352884888489 -1.97536038753875
 1  10.08126099249925 -1.05348144984498 -2.40227616161616
 1  11.90562985668567 -1.04589767986799 -3.00514646274627
 1  14.85360454075408  1.62356045584559  1.00191816071607
 1  9.41841161746175 -2.46220930263026 -0.71830827332733
 1 -5.55265972697270 -0.99853700440044  0.48293569036904
 1 -7.29732863096310 -1.43354532773277  0.98753100550055
 1 -6.88883511871187 -1.51076952515252 -0.79416763156316
 1 -6.52109439593959  2.52436123122312 -0.81236443814381
 1  6.78731228022802 -3.84268769136914  1.03423311901190
 1  6.36356370157016 -3.96371155895590 -0.79592918411841
 1  8.17671756915692 -4.24748093269327 -0.09243227592759
 1  6.72941136803680 -0.30336757615762 -0.29895201710171
 1 -4.31678390999100  0.56647631283128 -0.38182424002400
 1  4.94573817731773 -2.57742699569957  0.13300563976398
 1 -4.16551259695970  3.66750473227323 -0.82619227472747
 1  4.31796187238724  0.43582092099210 -0.67882710011001
 1 -1.16050580878088  3.87100854755476 -1.67673594549455
 1 -1.03495633403340  4.08447560486049  0.16288432863286
 1 -2.45897538563856  4.72569498499850 -0.58554684838484
 1 -2.13028190859086  0.45781240674067  0.02068733873387
 1  2.11316035813581  1.33766775597560 -0.63832084718472
 1  2.68959748744874 -2.67526392879288  1.02020039853985
 1  0.97093216451645 -2.32128141924192  0.24261297619762
 1  2.25779852925293 -2.63902168936894 -0.78087233023302
 1  0.30126601150115  2.31734157385739 -0.50445743724372
 1 -0.24872776877688 -0.65381555135514 -0.17983863886389

