%nproc=4
%Mem=4GB
# td=(NStates=1) CAM-B3LYP/6-31G(d,p) 

TD

0 1
 8 -14.19144501970197 -1.91770015171517  0.67881813711371
 8  14.63511534833483  1.04879246584658  0.23315391129113
 6 -11.74296715631563  0.05740181508151  1.45949076907691
 6 -10.94558152065207  0.34583735473547  0.11275498829883
 6 -11.85888136873687 -1.34152863726373  1.50707854915492
 6 -12.72381577507751 -2.08652971777178  0.33988813971397
 6 -11.62464775367537 -0.36900437873787 -1.11151664156416
 6  11.09261259185918  0.92770441294129  1.27791807150715
 6 -10.82657413061306  0.58204994379438  2.60398744944494
 6 -13.06357251965196  0.84220986788679  1.36983806060606
 6  12.47856503700370  1.49809923642364  1.06986437263726
 6 -12.40005099099910 -1.50692856065607 -0.91247401610161
 6  13.35472709360936  0.43753142574257  0.45690300920092
 6  10.62102157645764 -0.04194360456046  0.08964254935494
 6 -9.53185194909491 -0.19012186038604  0.01702170977098
 6  12.82258023562356  0.06400918151815 -0.91195678197820
 6  11.41292438123812 -0.40810585588559 -0.91350640944094
 6  10.06920380598060  2.12198151015101  1.39841255465547
 6  10.98876970947095  0.16933610901090  2.56106666796680
 6 -11.28854335183518  0.26452809430943 -2.40232249044905
 6 -8.44431053135314  0.73883886628663 -0.24722834533453
 6  9.19353428272827 -0.49820759655966  0.28092817661766
 6  10.99615956145614 -1.17151011781178 -2.19209881458146
 6 -7.11449277217722  0.46712395419542 -0.19520160946095
 6  8.80776723312331 -1.78133793129313 -0.16393153415342
 6 -6.55632705420542 -0.93861261816182  0.02164505310531
 6  7.44247273477348 -2.25584845684568 -0.13543460576058
 6 -6.12103187918792  1.49208278277828 -0.42372422902290
 6  7.21386458065807 -3.75360908310831 -0.04042382418242
 6  6.43907117611761 -1.31901218991899 -0.26552889528953
 6 -4.78868284198420  1.42568610781078 -0.48118903230323
 6  5.02479332523252 -1.52379022192219 -0.08517629782978
 6 -3.98321969436944  2.45600862706271 -0.79721091009101
 6 -2.56019645774577  2.59557751535154 -0.94127687548755
 6  4.04037800330033 -0.60650115621562 -0.24814433083308
 6  2.70938798739874 -0.73092756425643 -0.26649160176018
 6 -1.90391894209421  3.96287086968697 -1.27779692709271
 6 -1.79201628712871  1.48514125852585 -0.80684670107011
 6  1.85323386838684  0.29625118661866 -0.64155271717172
 6  2.19130245134513 -2.15684847214721  0.10960332823282
 6 -0.36711897079708  1.35227654895490 -0.85891925172517
 6  0.41244607540754  0.30913258105811 -0.59452271307131
 1 -10.98095483698370  1.40286207150715 -0.06349819501950
 1 -12.45464893799380 -1.44893490719072  2.39499739443944
 1 -11.06189385898590 -2.08525772077208  1.74930821342134
 1 -12.48596222982298 -3.24159326662666  0.28271313341334
 1 -10.04611001230123 -0.02917124152415  2.73503212711271
 1 -10.71706187278728  1.82967604460446  2.57741246314631
 1 -11.38672626492649  0.50888430743074  3.50232441024102
 1 -13.77701890369037  0.67367336963696  0.38980545084508
 1 -13.52424819541954  0.66618822622262  2.18358236023602
 1 -12.75878456385638  1.87994161596160  1.23621410471047
 1  12.28398576527653  2.45677062656266  0.49728757195720
 1  12.85579000610061  1.91859589848985  1.88766636783678
 1 -12.68289176777678 -2.04464126062606 -1.96601079177918
 1  13.55710529532954 -0.34989473527353  1.14106444234423
 1 -9.40644301000100 -1.36691155015502  0.12386994699470
 1  13.31926707080708 -1.07522056135614 -1.23765892189219
 1  13.13634005150515  0.90731930983098 -1.59352927672767
 1  9.15201189878988  1.78595864766477  1.84436968436844
 1  9.89143100470047  2.78109071147115  0.52932984848485
 1  10.63465713901390  2.84614958665867  2.16212236323632
 1  11.85306814811481 -0.51496874547455  2.55758217961796
 1  10.03601857245724 -0.43481602260226  2.66624975307531
 1  11.14191509060906  0.98518631543154  3.39129407240724
 1 -10.12317481548155  0.15483539423942 -2.81095849154916
 1 -11.34885394169417  1.35076107460746 -2.60754782008201
 1 -11.98960680578058 -0.11919067036704 -3.16789454705471
 1 -14.69920319361936 -2.24390334293429 -0.00335853965397
 1  8.53590265826583  0.14034425962596  0.85069771597160
 1 -8.76713188208821  1.78311996479648 -0.28116343674367
 1  11.52208794329433 -2.22172366836684 -1.98439129062906
 1  9.98595146154615 -1.20958706040604 -2.29022495649565
 1  11.45750504420442 -0.65180827092709 -3.10274622272227
 1  15.15834501480148  1.40611871167117  1.04954292319232
 1  9.37995777207721 -2.52177525922592 -0.42463890639064
 1 -5.48943340434043 -1.15310246094609  0.24429182598260
 1 -6.97178607670767 -1.09823179637964  1.09577182958296
 1 -6.90957719291929 -1.70280872907291 -0.70329854465447
 1 -6.61240352685269  2.59515831093109 -0.37830103180318
 1  7.13067661666167 -4.22404582718272  1.10692038773877
 1  6.37609495469547 -4.23674886268627 -0.71672126332633
 1  8.13802369976998 -4.24680086468647 -0.47614064676468
 1  6.80218864576458 -0.34046128552855 -0.33950607250725
 1 -4.51449368096810  0.52138180338034 -0.00670672827283
 1  4.69742334583458 -2.54471372437244  0.07453979317932
 1 -4.51173721942194  3.41359934173417 -0.92512216771677
 1  4.64527460366037  0.38384572347235 -0.50138935633563
 1 -1.07180693889389  3.88282972967297 -2.17189546144614
 1 -1.29157199559956  4.20143730103010 -0.46876883668367
 1 -2.64808429652965  4.90179259475947 -1.21107940164016
 1 -2.22660154055406  0.51306793229323 -0.51261599159916
 1  2.44738378047805  1.33638762796280 -0.85290230533053
 1  2.69594812251225 -2.42492889528953  0.96102448094810
 1  0.91206627792779 -2.06132542364236  0.29533824872487
 1  2.28044079347935 -2.93783157035704 -0.65878012101210
 1  0.17140302520252  2.21666150585058 -1.10969796129613
 1 -0.02003489948995 -0.73877404720472 -0.51179183418342

