%nproc=4
%Mem=4GB
# td=(NStates=1) CAM-B3LYP/6-31G(d,p) 

TD

0 1
 8 -14.22925880108011 -1.86885526722672  0.56593684898490
 8  14.84233607040704  0.82199978657866  0.17033762966297
 6 -11.79695255485549  0.13109918481848  1.25447026702670
 6 -11.05397235973597  0.33530630163016 -0.07314360156016
 6 -12.00454593519352 -1.45517000140014  1.31560940224022
 6 -12.79334272777278 -2.02596366116612  0.18643279417942
 6 -11.55707099599960 -0.39332681098110 -1.21244673457346
 6  11.18515184578458  0.92947458995900  1.14549482918292
 6 -11.00235170837084  0.53171491029103  2.52845989668967
 6 -13.09847601000100  0.86236188308831  1.23276435323532
 6  12.57650483098310  1.51013043954395  0.84391177737774
 6 -12.43645463136314 -1.44187205500550 -1.10069283798380
 6  13.50547216811681  0.41840951355136  0.41648896779678
 6  10.75216469076908 -0.04776418661866 -0.02070848574858
 6 -9.56924568846885 -0.09105195339534  0.10754076167617
 6  13.03433141074107 -0.11614883428343 -0.94879046534653
 6  11.57142023082308 -0.51188623392339 -0.96947200600060
 6  10.22625951155115  2.21970128212821  1.34991770517052
 6  11.15092592509251  0.24517369276928  2.44625518681868
 6 -11.21397589508951  0.04151579307931 -2.60481273947395
 6 -8.58480458075808  0.71151613401340 -0.13671729422942
 6  9.29859478877888 -0.45828360416042  0.04528461226123
 6  11.20063000850085 -1.35168813561356 -2.11815141984198
 6 -7.15031635453545  0.34097133893389 -0.07954004330433
 6  8.78543499989999 -1.66006580408041 -0.27685282628263
 6 -6.78571999349935 -1.04516327322732  0.38071095969597
 6  7.40259874737474 -2.21292416441644 -0.20142120442044
 6 -6.16237601360136  1.30921449594959 -0.40752260886089
 6  7.11490468466847 -3.66864058625863  0.20674089228923
 6  6.39990725972597 -1.33987427612761 -0.39955229762976
 6 -4.76994096779678  1.27540107930793 -0.32369328272827
 6  5.01001184708471 -1.53139098199820 -0.36589436963696
 6 -4.00681205360536  2.44929795599560 -0.75326651565157
 6 -2.64056449454945  2.66010396799680 -0.76062881068107
 6  4.04516848234823 -0.54298480458046 -0.36895641204120
 6  2.67863491209121 -0.66250072157216 -0.08533348594859
 6 -2.08777732793279  4.03042762536254 -1.22037118451845
 6 -1.78211529702970  1.58142088648865 -0.34633064946495
 6  1.79276782178218  0.39218077957796 -0.28763732563256
 6  2.11766508760876 -2.13094588188819  0.16469883778378
 6 -0.43574583348335  1.56600792209221 -0.45786914671467
 6  0.43200803160316  0.50063173097310 -0.13742700350035
 1 -10.97673441494149  1.34693647894789 -0.29014085928593
 1 -12.54940841394139 -1.70724073777378  2.23979187388739
 1 -10.86255392499250 -1.77671686668667  1.45482876547655
 1 -12.70859449304930 -3.26974608190819  0.11414627672767
 1 -10.20426582788279 -0.06169449384939  2.60500912481248
 1 -10.88575874247425  1.56016909390939  2.44949967186719
 1 -11.63983157545755  0.31589500850085  3.38475265306531
 1 -13.74846604840484  0.67565356765677  0.32622909320932
 1 -13.66475224582458  0.48018962636264  2.13081708370837
 1 -12.71848053345335  2.00193381518152  1.32308279157916
 1  12.46889425612561  2.26509145864586 -0.00082223902390
 1  13.09525395249525  1.87123116201620  1.88327592879288
 1 -12.91185466406641 -1.98491528802880 -1.86695088578858
 1  13.64708429322932 -0.40003974977498  1.06584692059206
 1 -9.08403076877688 -1.24746960596060  0.24780234023402
 1  13.69793493759376 -0.89849288858886 -0.98780393639364
 1  13.46622303980398  0.62997157505751 -1.72089201300130
 1  9.36297299489949  1.85280533233323  1.92545779317932
 1  9.84132599419942  2.66950955335534  0.33294020952095
 1  10.70456412971297  2.96056102780278  1.89528567956796
 1  11.77660050135014 -0.64045129372937  2.35429185058506
 1  10.09223419401940 -0.16427896889689  2.71564469256926
 1  11.34369526862686  1.01444924172417  3.26034097709771
 1 -10.07294979297930  0.11198110881088 -2.73259065476548
 1 -11.60400945724573  1.04194019251925 -2.45408247354735
 1 -11.85454329942994 -0.68458721002100 -3.32135989358936
 1 -14.74878815211521 -2.17569652225222 -0.06617482128213
 1  8.64188325632563  0.24947517271727  0.37968061426143
 1 -8.63460862976298  1.73491514431443 -0.45044036443644
 1  11.77627336183618 -2.39233072907291 -2.04356720822082
 1  10.17114998139814 -1.40346644834483 -2.37224315831583
 1  11.73399269296930 -0.82095518561856 -2.93374932303230
 1  15.17174635493549  1.66034413421342  0.75737370627063
 1  9.61328110441044 -2.26004908660866 -0.44011045354535
 1 -5.73899836083608 -1.20730788148815  0.50559795659566
 1 -7.27128602670267 -1.06610858405841  1.35381763416342
 1 -7.13122935813581 -1.94033248144815 -0.29260747554755
 1 -6.47115940244024  2.25918471357136 -0.52232543424342
 1  6.81298484748475 -3.49554297689769  1.41550124582458
 1  6.18130547574757 -3.93776896469647 -0.27296688788879
 1  7.92987288468847 -4.22192837743774  0.09160612791279
 1  6.55886431333133 -0.29321656105611 -0.34696681858186
 1 -4.01429366096610  0.46142580778078 -0.03056911451145
 1  4.76853045654565 -2.52941219421942 -0.19566722752275
 1 -4.64791083678368  3.29713769556956 -1.16191584708471
 1  4.51643171937194  0.63702104100410 -0.56041525892589
 1 -1.58563832203220  3.85829727642764 -2.24395266716672
 1 -1.23848668706871  4.43131028832883 -0.51722368216822
 1 -2.79185867396740  4.85612802830283 -1.48059635333533
 1 -2.45961484188419  0.70858748424842  0.16906217621762
 1  2.29145818791879  1.32094608380838 -0.61630864596460
 1  2.53629215691569 -2.45505190759076  0.98747712621262
 1  1.14007907920792 -1.95292458355836  0.26905562046205
 1  2.28020076947695 -2.79715750295029 -0.67771201420142
 1  0.18714459935994  2.50731057075708 -0.87608459996000
 1 -0.17271016701670 -0.50173034283428  0.32851219621962

