%nproc=4
%Mem=4GB
# td=(NStates=1) CAM-B3LYP/6-31G(d,p) 

TD

0 1
 8 -14.04322019721972 -2.07544592629263  0.51796205150515
 8  14.71035287208721  0.98715630223022  0.24764536043604
 6 -11.82744560416042  0.08315439033903  1.17438225822582
 6 -10.95671263376338  0.43114588558856 -0.12625891309131
 6 -11.91508698929893 -1.38350283468347  1.33848168946895
 6 -12.64902829632963 -2.21090215501550  0.18973312421242
 6 -11.54754004290429 -0.34126160446045 -1.22606809670967
 6  10.99084241484148  1.07868951145115  1.00460073977398
 6 -11.05957743094310  0.58043978277828  2.41414846554655
 6 -13.18054421682168  0.70640628752875  1.21654273107311
 6  12.46202338283828  1.55657508400840  0.76570395659566
 6 -12.29750073597360 -1.51065893369337 -1.04949771847185
 6  13.38160978187819  0.49142681528153  0.37729504840484
 6  10.62484195849585 -0.06689609980998 -0.01681809670967
 6 -9.49536830073007 -0.02750559875988 -0.04533452585259
 6  13.04649262686269 -0.27797501690169 -0.87792337863786
 6  11.61843493229323 -0.60715576087609 -0.87132219101910
 6  10.07748463406341  2.25509482148215  0.95345805920592
 6  10.91223205570557  0.35005418081808  2.39845040634063
 6 -11.30713521102110  0.09669131063106 -2.56820907910791
 6 -8.41317741804180  0.91660664306431 -0.03104672717272
 6  9.27824275357536 -0.60223799959996  0.06634671847185
 6  11.21647159265927 -1.59616258305831 -1.98936854155416
 6 -7.10304162706271  0.57939518131813  0.06250416111611
 6  8.83114957135714 -1.83069286678668 -0.13040818181818
 6 -6.71906332783278 -0.84795355225523  0.31741463006301
 6  7.41340982848285 -2.20335320732073 -0.12126318861886
 6 -6.20522029802980  1.54101767626763 -0.16230808740874
 6  7.13729692389239 -3.59692341454145  0.04364458265827
 6  6.41423869286929 -1.36259654835484 -0.23356569896990
 6 -4.76495046874687  1.43419695889589 -0.21241215461546
 6  5.01685253115311 -1.52162000490049 -0.26936471667167
 6 -3.98882025442544  2.46285931213121 -0.49249043804380
 6 -2.46758719681968  2.51434939253925 -0.61633438123812
 6  3.98350231573157 -0.51783228932893 -0.38235775217522
 6  2.59265631423142 -0.68552302380238 -0.22735768836884
 6 -2.00772932313231  3.90801538413841 -0.99263841124112
 6 -1.65893297879788  1.46894963936394 -0.46446246264626
 6  1.71412995799580  0.36354791629163 -0.39303786568657
 6  2.18703202430243 -2.01094388168817  0.17433980188019
 6 -0.35316757565757  1.51650297159716 -0.55557891769177
 6  0.33519835063506  0.26490815861586 -0.37767102790279
 1 -11.00570731223122  1.43280506580658 -0.48039988518852
 1 -12.55605907900790 -1.66925693939394  2.28593648834883
 1 -10.85020268986899 -1.97725692069207  1.35236851945195
 1 -12.26115974957496 -3.15632473977398  0.06587144924493
 1 -10.14619002030203  0.19077075267527  2.55948457235724
 1 -10.98321848844884  1.56043912091209  2.51646636853685
 1 -11.41940953325333  0.22808622762276  3.26189036683668
 1 -13.84379558135814  0.11197720002000  0.32144861516152
 1 -13.84576034663466  0.57376898429843  1.98946294829483
 1 -13.10021870727073  1.73928755055506  1.04925540884088
 1  12.32267963466347  2.25406035553555 -0.09181133793379
 1  12.77479190629063  2.09016305520552  1.51927952915292
 1 -12.50700417901790 -2.00323712021202 -2.02734692539254
 1  13.48312789758976 -0.17848759455946  1.13040337623762
 1 -9.23674604030403 -1.16600145914591  0.09661722172217
 1  13.70592573667367 -1.17285032433243 -1.12208736473647
 1  13.02433885138514  0.60338891679168 -1.71990191399140
 1  9.13371006860686  2.15781583338334  1.49724497189719
 1  9.86769863146315  2.66491909430943 -0.15416850135014
 1  10.52321599489949  3.01496646834683  1.49946609760976
 1  11.70557339863987 -0.49310655925593  2.68863528492849
 1  9.91038600920092 -0.15541808280828  2.56315944404440
 1  10.98673957305730  1.11514931173117  3.16486142914291
 1 -10.21025352335234  0.36507641834183 -2.82037943364336
 1 -11.59417847414742  1.12974897339734 -2.80293735903590
 1 -11.80003784888489 -0.39802855415542 -3.32313007060706
 1 -14.66897017031703 -1.81316026862686 -0.38847705150515
 1  8.51728079607961  0.24739496469647  0.19542218841884
 1 -8.77191236013602  1.97441909470947 -0.22786810721072
 1  11.39846558105811 -2.73453494949495 -1.91701455295530
 1  10.23721658805881 -1.49099520122012 -2.30373630763076
 1  11.86861615531553 -1.38721181128113 -2.64601054915492
 1  15.03806298659866  1.49501760156016  0.99409737863786
 1  9.59336911321132 -2.62547562926293 -0.13714015651565
 1 -5.77266172717272 -1.15169231993199  0.41150854765477
 1 -7.24701359945995 -1.23700567376738  1.36457871027103
 1 -7.03115935113511 -1.60896934513451 -0.45574378917892
 1 -6.29888217471747  2.74842363746375 -0.08899210091009
 1  7.01607515651565 -3.72640606320632  1.22596229192919
 1  6.22183952915292 -3.90115530333033 -0.43063265446545
 1  7.84308420582058 -4.19804598919892 -0.69465249794980
 1  6.74752317921792 -0.28243548294829 -0.44448657055706
 1 -4.12575480708071  0.47914757995800 -0.13460951855186
 1  4.62199580308031 -2.52651190419042 -0.14841250205021
 1 -4.59846589228923  3.37432541434143 -0.64317397289729
 1  4.45434551075108  0.49174651355136 -0.63593281068107
 1 -1.20997075527553  3.93197464416442 -1.92437070897090
 1 -1.57652049044905  4.63077023432343 -0.07283924372437
 1 -2.96212570067007  4.50783319881988 -1.18168646234623
 1 -2.15209408980898  0.68597522302230 -0.12451718171817
 1  2.33548259035904  1.23763775297530 -0.52711972707271
 1  3.26178470617062 -2.49923632603260  0.95457383588359
 1  1.10408547984799 -2.07254654575458  0.86814552945295
 1  2.25477822722272 -2.76265405260526 -0.55683992699270
 1  0.39266515141514  2.25953579327933 -0.58145513701370
 1 -0.32354525052505 -0.59664983478348 -0.06123677867787

