%nproc=4
%Mem=4GB
# td=(NStates=1) CAM-B3LYP/6-31G(d,p) 

TD

0 1
 8 -13.98588446364636 -2.05040342204220  0.58419867516752
 8  14.81866370317032  0.92504009060906  0.17488808470847
 6 -11.61173403300330 -0.04854877997800  1.29719453945395
 6 -10.98995595809581  0.41508427942794  0.09574328712871
 6 -11.86805228582858 -1.43939842424242  1.46159400070007
 6 -12.64246764026403 -2.03597466226623  0.28004215511551
 6 -11.71515680458046 -0.22218969726973 -1.00215570547055
 6  11.08251158175817  1.08629027152715  1.08544882458246
 6 -10.94477595079508  0.49480121892189  2.56539359005901
 6 -12.99716587898790  0.71218686558656  1.44190526732673
 6  12.44681186168617  1.51563098959896  0.88296568276828
 6 -12.51484247014702 -1.30156802460246 -0.95480824952495
 6  13.46938855975598  0.41722939553955  0.53608092699270
 6  10.69457893219322  0.00671126092609  0.03554713981398
 6 -9.54433319721972 -0.02676552475248  0.05387539513951
 6  12.98279625722572 -0.23606082548255 -0.73684927122712
 6  11.56888997779778 -0.59103414871487 -0.78284334313431
 6  10.21005789138914  2.38170748274827  0.84270698409841
 6  10.73124395689569  0.58217739313931  2.47817837913791
 6 -11.52133663116312  0.44315595709571 -2.37748000620062
 6 -8.48581468176818  0.79615459785979 -0.25537916041604
 6  9.25639056835684 -0.42884065986599  0.06345642944294
 6  11.30128007350735 -1.58071103790379 -1.85428503320332
 6 -7.06473779667967  0.42986022782278 -0.22277436673667
 6  8.82191864826483 -1.77006680418042  0.11997685668567
 6 -6.60658207970797 -1.05821457835784 -0.32421953335334
 6  7.35401388888889 -2.13815668766877 -0.03848491079108
 6 -6.20510028602860  1.44001757625763 -0.41451330793079
 6  7.10097329152915 -3.63689741194119 -0.15887566936694
 6  6.36646391539154 -1.24296458515852 -0.14005634803480
 6 -4.82952692639264  1.39824336353635 -0.53909482288229
 6  5.06472731863186 -1.50125796869687 -0.06148392859286
 6 -4.05987736013601  2.48313133933393 -0.48894008300830
 6 -2.66084652275228  2.54035199279928 -0.81365411321132
 6  4.02444641014101 -0.61654216031603 -0.27740725712571
 6  2.62737978657866 -0.80889536103610 -0.35994094669467
 6 -1.89329787998800  3.86564114671467 -1.02775192259226
 6 -1.80523760926093  1.41622436683668 -0.63731974837484
 6  1.77213575857586  0.30800236173617 -0.37885644754475
 6  2.17278059915992 -2.21048383568357 -0.15372300440044
 6 -0.42715497439744  1.39772109340934 -0.55960932073207
 6  0.40178500930093  0.25409707750775 -0.43415667646765
 1 -11.13346008750875  1.58369015431543 -0.10477232243224
 1 -12.57829130223022 -1.89074908860886  2.34594248894889
 1 -10.79754742434243 -2.04909410441044  1.61263454605460
 1 -12.29375300890089 -3.03271237853785  0.12009687178718
 1 -9.83570897219722  0.16103777937794  2.62441106500650
 1 -11.06038620522052  1.71399447644764  2.43949867176718
 1 -11.38307589988999  0.14186760576058  3.58641281908191
 1 -13.75012621442144  0.53534953725373  0.76747321762176
 1 -13.34522029262926  0.48739034643464  2.35846984898490
 1 -12.81862054745474  1.84448807060706  1.47466795009501
 1  12.62251961866187  2.36111106060606  0.24737258045805
 1  12.93587801490149  2.02132617151715  1.75586318751875
 1 -13.19216269486949 -1.58391518801880 -1.89785397609761
 1  13.56289587438744 -0.33694344014401  1.38569890579058
 1 -9.42739510521052 -1.14887974697470  0.04672223222322
 1  13.48408355245525 -1.13256629592959 -1.02127728372837
 1  13.50442686018602  0.33108168606861 -1.65109503330333
 1  9.12022872047205  2.36470652245224  1.16964221162116
 1  10.30208206980698  2.75363796619662 -0.22183526802680
 1  10.80189386268627  3.20421539323932  1.44119027002700
 1  11.23872671397140 -0.36978422702270  2.74995141654165
 1  9.80452542314231  0.31254871387139  2.59281240934093
 1  11.07810870997100  1.18239603640364  3.28232317531753
 1 -10.41300379837984  0.44974488518852 -2.78141553725373
 1 -11.80074913121312  1.39927592609261 -2.37688475377538
 1 -12.09570741584158 -0.00373912521252 -3.18470622822282
 1 -14.67112038533853 -2.45935488808881  0.01652344854485
 1  8.48597766576658  0.30611083628363  0.47598024422442
 1 -8.61657682658266  1.97858951175117 -0.37064238463846
 1  11.66488222272227 -2.67963945994599 -1.52256510801080
 1  10.13385625202520 -1.82745884758476 -2.01323725772577
 1  11.70474976867687 -1.44830792089209 -2.74861080918092
 1  14.84823400370037  1.57301540134013  1.01470943984398
 1  9.50092986928693 -2.54025710741074 -0.10958740124012
 1 -5.56048050905091 -1.12115926662666 -0.35581818501850
 1 -6.96342524062406 -1.52138411161116  0.54235648804880
 1 -7.34875111031103 -1.70015846404640 -0.96792500730073
 1 -6.70436272277228  2.43557235233523 -0.56341954365437
 1  6.64992854185419 -4.02131555415542  0.84082377807781
 1  6.33865121032103 -3.93783897169717 -1.01177076827683
 1  8.05146504390439 -4.29085527012701 -0.27252028472847
 1  6.65841426832683 -0.07931517091709 -0.14407652955296
 1 -4.36475870747075  0.58223788898890 -0.49601565916592
 1  4.93477708120812 -2.45583483648365 -0.11334899569957
 1 -4.61634768046805  3.34094207600760 -0.62941259675968
 1  4.20051012721272  0.46882422132213 -0.15414463186319
 1 -1.63648340654065  4.12827427412741 -1.99538781068107
 1 -0.94605744414441  3.90313747104711 -0.27248920872087
 1 -2.65796528462846  4.70056247174717 -0.78976727042704
 1 -2.21409028942894  0.33082970847085 -0.46010074007401
 1  2.30554959705971  1.06519050825082 -0.74656167126713
 1  3.10734926262626 -2.79852625502550  0.60552893139314
 1  1.11446651795179 -2.21125041614161  0.29853856875688
 1  2.05613836323632 -2.83691147834783 -1.16065030803080
 1  0.09599548444845  2.24569440914091 -0.91121811331133
 1 -0.12427532353235 -0.69622979277928 -0.39070972597260

