%nproc=4
%Mem=4GB
# td=(NStates=1) CAM-B3LYP/6-31G(d,p) 

TD

0 1
 8 -14.06474234943494 -2.12188056975698  0.31660191549155
 8  14.81342317911791  0.69057664426443 -0.11319072317232
 6 -11.77030989058906 -0.14939886498650  1.32576739673967
 6 -10.97884484698470  0.32926569756976  0.00330404320432
 6 -11.99742522312231 -1.62287677207721  1.34632247354735
 6 -12.73587698119812 -2.18904996979698  0.05710986188619
 6 -11.64349963886389 -0.36704418271827 -1.27907339723972
 6  11.13668699929993  0.98297994049405  0.88832911261126
 6 -11.01267274047405  0.19157089588959  2.64877192789279
 6 -13.17410357275728  0.53857950485049  1.34887596439644
 6  12.62041922242224  1.37988741524152  0.71011839803980
 6 -12.25243622952295 -1.58988685648565 -1.24284705340534
 6  13.55589721062106  0.22064973757376  0.25389270817082
 6  10.71180065436544 -0.14794420462046 -0.00324673957396
 6 -9.50715947984799 -0.02106495469547  0.08587859545955
 6  13.00575855345534 -0.41063828322832 -0.94283987028703
 6  11.53872696149615 -0.65940098539854 -0.95037009580958
 6  10.26991387698770  2.26276558855886  0.80281299469947
 6  11.02953378587859  0.52649182458246  2.42030259155916
 6 -11.33362786028603  0.32076371787179 -2.51776403460346
 6 -8.61258735903590  0.88937391979198  0.02823920142014
 6  9.26273120242024 -0.42277005280528  0.03498358215822
 6  11.13357330283028 -1.60616358315832 -2.02287189188919
 6 -7.11658298119812  0.60797803960396 -0.13133522282228
 6  8.79987644404440 -1.74035383288329  0.04870972997300
 6 -6.77630905240524 -0.84230298719872  0.13114600320032
 6  7.33319180668067 -2.05017788978898  0.23521245894589
 6 -6.20138991499150  1.60189376387639 -0.44828668526853
 6  7.02402559675968 -3.52212593479348  0.53522374057406
 6  6.37787505650565 -1.05844613331333 -0.01023336573657
 6 -4.78431240494049  1.49828336753675 -0.41231214461446
 6  5.01424227012701 -1.34187203010301  0.09441166096610
 6 -3.98970034243424  2.66427945414541 -0.63572476147615
 6 -2.63679411751175  2.71253921152115 -0.55590833863386
 6  4.03807777327733 -0.38654916101610 -0.21174069046905
 6  2.67690473907391 -0.72046651815182 -0.18754370697070
 6 -1.94300285048505  4.05377996059606 -0.85049419681968
 6 -1.70532761826183  1.68552129652965 -0.53671968836884
 6  1.80818936393639  0.44970653215322 -0.38651721362136
 6  2.11482480358036 -2.13451623892389 -0.03386101820182
 6 -0.36311857075708  1.60565188648865 -0.46816017581758
 6  0.42993782458246  0.40794246204620 -0.24387764856486
 1 -11.15195193669367  1.52720450575057 -0.30250209540954
 1 -12.62633610671067 -1.81908192189219  2.25168306300630
 1 -11.07228489808981 -2.29660885588559  1.39583286588659
 1 -12.43451708530853 -3.31312041934193 -0.14208934683468
 1 -10.10333573487349 -0.49206753115312  2.72483110701070
 1 -10.58013818041804  1.21662473947395  2.80280500240024
 1 -11.63922151445144 -0.05686226722672  3.40668484628463
 1 -13.85633683548355  0.43202920522052  0.42515898619862
 1 -13.62475824642464  0.17855946334633  2.20381438343834
 1 -12.97817650305030  1.85243886568657  1.84580506380638
 1  12.44799216591659  2.13776872637264  0.04304214741474
 1  12.96369079617962  1.79406344524452  1.54423202440244
 1 -12.65905938453845 -1.86137293379338 -2.25243943464346
 1  13.53090267506751 -0.51532127792779  1.04677501340134
 1 -9.37127949364936 -1.18333319231923  0.16815437543754
 1  13.26897204130413 -1.56055909520952 -1.22648780478048
 1  13.09723614111411  0.16760533843384 -1.71175109890989
 1  9.35088178577858  2.16135618741874  1.54825007240724
 1  9.86051791339134  2.56589919231923 -0.15288837333733
 1  10.70979465276528  3.03683865556556  1.37972412341234
 1  11.79017185848585 -0.26639388798880  2.72625904730473
 1  10.11792676327633  0.08951641064106  2.37433056115612
 1  11.06588748784878  1.47777557435744  2.91061600460046
 1 -10.12068456645665  0.50182009270927 -2.87062445814581
 1 -11.91625068136814  1.35372137063706 -2.48201526682668
 1 -11.36346419151915 -0.26243499479948 -3.42688044564456
 1 -14.64926820012001 -2.41025997859786 -0.54005220902090
 1  8.63805287328733  0.33954417961796  0.37931057725773
 1 -8.84438960786079  1.77439909270927 -0.13654897529753
 1  11.41574730923092 -2.59336083208321 -1.68845169666967
 1  10.08649151555156 -1.41141724342434 -2.13306924092409
 1  11.70544983868387 -1.28633172327233 -2.88674462256226
 1  15.28418759905991  1.05482358215822  0.57537550645065
 1  9.56273604990499 -2.55829891159116  0.06672022952295
 1 -5.71154561556156 -1.06417356805681  0.15099249604961
 1 -7.37803670177018 -1.11001297449745  0.94585683808381
 1 -7.31069730493049 -1.25285373357336 -0.66448466326633
 1 -6.42845513201320  2.58154694979498 -0.50537373907391
 1  6.28186173517352 -3.61651507410741  1.40628032373237
 1  6.50172751795180 -3.92426761456146 -0.29371896309631
 1  7.91918181558156 -4.01521770637064  0.54739170647065
 1  6.63772219911991 -0.11321856125613 -0.15283740564056
 1 -4.22593482508251  0.56726639183918 -0.21745780338034
 1  4.55367897139714 -2.27143639663966  0.50909324852485
 1 -4.51328737443744  3.61227920972097 -0.75438509400940
 1  4.26760683688369  0.67929526842684 -0.37945716311631
 1 -1.33769352755275  3.98404985168517 -1.87950622252225
 1 -1.18701153955396  4.15794295159516 -0.08324028382838
 1 -2.64319380748075  4.92596501200120 -0.70325861956196
 1 -2.05443432383238  0.62933955945595 -0.71482621262126
 1  2.27584662676268  1.40457444664466 -0.60343735883588
 1  1.74655318301830 -1.98735513791379  1.42451082958296
 1  1.07208227952795 -2.34292358345835 -0.78919020412041
 1  3.46591934133413 -2.78337612481248 -0.28754299729973
 1  0.24384026892689  2.52879271897190 -0.66583357485749
 1 -0.20519341534153 -0.48186835663566  0.01639098409841

