%nproc=4
%Mem=4GB
# td=(NStates=1) CAM-B3LYP/6-31G(d,p) 

TD

0 1
 8 -14.28696457165717 -2.02148052975298  0.43219347464746
 8  14.74589642644264  0.94425201180118 -0.13932333643364
 6 -11.72110497009701 -0.04898882398240  1.26758157815782
 6 -10.94873183568357  0.31441421242124 -0.03636992419242
 6 -12.13051853245324 -1.42267675207521  1.40501834313431
 6 -12.83659705320532 -2.06778784358436  0.23961811271127
 6 -11.63390867976798 -0.35735321362136 -1.28816430633063
 6  11.21864519511951  1.01002264476448  1.08299857955796
 6 -10.90517199039904  0.42797453625363  2.40061711241124
 6 -13.06301246364636  0.86181182808281  1.37012808960896
 6  12.68911609210921  1.43553297979798  0.71556894309431
 6 -12.53265425132513 -1.43469133693369 -1.10548331703170
 6  13.57631925282528  0.28268594119412  0.27785510441044
 6  10.69307878217822 -0.00088949914992 -0.11087750265027
 6 -9.47613637753775 -0.07527037523752 -0.01508150055005
 6  12.95752372997300 -0.17146436583658 -1.06623220952095
 6  11.46428951775177 -0.52322736803680 -0.98400345914591
 6  10.25288217381738  2.28607791979198  1.08474118751875
 6  11.13833466596660  0.31135031043104  2.40138069936994
 6 -11.29035353285329  0.23350499199920 -2.62971522972297
 6 -8.53244934523452  0.75856083848385 -0.27688131063106
 6  9.29687461676168 -0.38552632843284  0.13925400920092
 6  11.06263620912091 -1.43147611441144 -2.13601320602060
 6 -7.08343966686669  0.47826506830683 -0.18018010731073
 6  8.82954941134113 -1.73594339183918 -0.02200734173417
 6 -6.65348677017702 -1.02964172107211 -0.08108521992199
 6  7.41710019751975 -2.14995786778678  0.05437437513751
 6 -6.14471424742474  1.46415999049905 -0.48653050965097
 6  7.25327852205220 -3.60621434363436  0.32961317951795
 6  6.45879314831483 -1.24801509020902  0.02944060166017
 6 -4.79399337303730  1.33363690289029 -0.36407732113211
 6  5.06476732263226 -1.45988383128313  0.12114433423342
 6 -4.10427179957996  2.51468449464946 -0.57179836883688
 6 -2.65615605370537  2.61034899249925 -0.60975372317232
 6  3.98145211071107 -0.50538104420442 -0.19491900830083
 6  2.65044209280928 -0.81956642814281 -0.14772972557256
 6 -2.00852940314031  3.93481806440644 -0.85866501390139
 6 -1.82078916441644  1.54123686808681 -0.20083610001000
 6  1.79364790979098  0.35821738323832 -0.19169773167317
 6  2.12810613171317 -2.10683347064706  0.20287265516552
 6 -0.36208846774677  1.56384770607061 -0.46874023382338
 6  0.40406523732373  0.40285195299530 -0.15050831163116
 1 -11.10873761526152  1.24210599589959 -0.41513335853585
 1 -12.81060453355335 -1.59012902660266  2.36234412911291
 1 -11.18754642424242 -2.09800899589959  1.42225550815082
 1 -12.63100673427343 -3.15649475677568  0.14575943804380
 1 -9.78984438573857  0.00747242284228  2.35600422432243
 1 -10.80303046964696  1.59673275027503  2.32829755165517
 1 -11.40875846814681  0.29054247324732  3.43587776557656
 1 -13.56790799259926  0.49939594189419  0.54290076037604
 1 -13.60933670427043  0.66428803620362  2.24391839383938
 1 -12.62351103650365  1.96655027682768  1.12610309360936
 1  12.59583695039504  2.23259820932093 -0.02976513331333
 1  13.03601802890289  1.92033607250725  1.62012961416142
 1 -12.84790826942694 -2.06901369786979 -1.84365855655565
 1  13.84882446724673 -0.60210995679568  1.15097543344334
 1 -9.41163352905290 -1.39799465846585  0.05631319131913
 1  13.52131727582758 -1.13150618991899 -1.37717287328733
 1  13.06959337683768  0.60678925682568 -1.92877280108011
 1  9.24803150075008  2.07049710151015  1.56517176457646
 1  10.35785764736474  2.60853345574557 -0.07316040054005
 1  10.73935760906090  3.10031500320032  1.59028517951795
 1  11.65227806910691 -0.69188643724372  2.71734815621562
 1  10.03597856845684  0.18775623462346  2.49965309340934
 1  11.30483138223822  0.85317311411141  3.16264120712071
 1 -10.11354385238524  0.18186809750975 -2.59378677437744
 1 -11.39946900320032  1.52804880338034 -2.60325739103910
 1 -11.81413925902590 -0.34152290359036 -3.40122788038804
 1 -14.69747302060206 -2.27995694829483 -0.24518272207221
 1  8.71079014701470  0.32234245944594  0.57199984618462
 1 -8.53710887978798  1.86487814061406 -0.41412673307331
 1  10.92544827932793 -2.58289978597860 -2.13396624812481
 1  10.08225109150915 -1.14588068976898 -2.60809674367437
 1  11.84192348604861 -1.28397148724872 -2.82712866096610
 1  15.10333951425143  1.17444554435444  0.76208417731773
 1  9.57452722902290 -2.50825390709071 -0.41758820132013
 1 -5.61509597059706 -1.38441559225923 -0.14083668686869
 1 -6.82998189628963 -1.50607258045805  0.96913916631663
 1 -7.34732096729673 -1.55337378557856 -0.89131734653465
 1 -6.69265155165517  2.27839663476348 -0.68885208690869
 1  7.08631218021802 -3.74863828642864  1.35698539423942
 1  6.32015936113611 -3.96001118891889 -0.13518310951095
 1  8.09631952935294 -4.09152533713371 -0.00449348204821
 1  6.95322374927493 -0.21131837123712 -0.15229735163516
 1 -4.30075230683068  0.30013967916792 -0.22870892849285
 1  4.50572417591759 -2.60689994299430  0.19596193539354
 1 -4.40868691439144  3.50925890769077 -0.75447510301030
 1  4.18181825802580  0.37087442634263 -0.27366658405841
 1 -1.29906966516652  3.95288673537354 -1.64418269016902
 1 -1.48286112451245  4.43231038833883 -0.06088804860486
 1 -2.79034852295230  4.60996341184118 -1.32685097879788
 1 -2.13068194859486  0.64356098159816 -0.04584931493149
 1  2.20799984208421  1.16994098329833 -0.54556157125713
 1  2.18492702040204 -2.28109451185119  1.14513289178918
 1  0.88822389368937 -2.16004529562956 -0.27334861996200
 1  2.63392614201420 -2.74897268446845 -0.60188443144314
 1  0.04385026992699  2.39907974767477 -0.97433442494249
 1 -0.01382427842784 -0.42328249804980  0.24332367736774

