%nproc=4
%Mem=4GB
# td=(NStates=1) CAM-B3LYP/6-31G(d,p) 

TD

0 1
 8 -14.20469634483448 -1.92565094679468  0.29926018131813
 8  14.83418525532553  0.78364595119512 -0.07659706380638
 6 -11.79601246084609 -0.03498742384238  1.22147696769677
 6 -10.92970993349335  0.29057182818282 -0.02464875207521
 6 -11.98204368496850 -1.57158164256426  1.36719456075608
 6 -12.79581297479748 -2.13061412621262  0.21860601150115
 6 -11.61313660256025 -0.37418489678968 -1.17154264416442
 6  11.06097942854285  1.02182382488249  1.07929820952095
 6 -10.91336280948095  0.48279001780178  2.53901095179518
 6 -13.10909707210721  0.74890053695370  1.19679075587559
 6  12.55482266276628  1.51064049054906  0.65739312551255
 6 -12.28971995789579 -1.55123299109911 -1.13071584028403
 6  13.50766238713871  0.36096376897690  0.41064838373837
 6  10.68817829212921 -0.17860727092709  0.00627421252125
 6 -9.59718848274828 -0.01219406760676  0.07085709330933
 6  12.98426640424042 -0.31678889828983 -0.77868345464546
 6  11.55675876467647 -0.61671671697170 -0.85395045384538
 6  10.13831071667167  2.17157646964696  0.90241295469547
 6  10.95452628512851  0.50997017241724  2.48993955525553
 6 -11.24820931843184  0.21285292679268 -2.58092035023502
 6 -8.44569066936694  0.81546652905291 -0.05248887138714
 6  9.24559948924892 -0.39012678847885 -0.03420333653365
 6  11.18362830833083 -1.49400236703670 -2.04790439513951
 6 -7.04099542244224  0.46044328612861  0.00838874957496
 6  8.76905336173617 -1.68528832633263 -0.01529667066707
 6 -6.70725214671467 -1.01505026192619  0.19144203280328
 6  7.33968245574557 -2.13700657265727 -0.03024408670867
 6 -6.16730650665066  1.55305888038804 -0.20396225282528
 6  7.26281947614761 -3.58185190739074  0.19812003020302
 6  6.36503377237724 -1.15449573827383 -0.17737007940794
 6 -4.73432740644064  1.44146768596860 -0.23107402080208
 6  5.01375222112211 -1.55125296819682 -0.19898767896790
 6 -3.93572494489449  2.65245827202720 -0.56182737173717
 6 -2.56065650375038  2.69519747734773 -0.66690943874387
 6  3.98892285778578 -0.57731823792379 -0.11879139553955
 6  2.66500354895490 -0.74652912441244 -0.20053500610061
 6 -1.95318386858686  4.05059964256426 -0.85788493589359
 6 -1.82208929442944  1.55643838823882 -0.60243626002600
 6  1.76589513451345  0.28271983348335 -0.35372393429343
 6  2.11202452355236 -2.12378516581658  0.06271863976398
 6 -0.45650790969097  1.59594091539154 -0.45508886868687
 6  0.35704053485349  0.31544321212121 -0.44156741754175
 1 -11.24225096659666  1.42086387168717 -0.14276612181218
 1 -12.39286275937594 -1.91401141484148  2.32827072177218
 1 -11.08555622522252 -2.13995319031903  1.45339862246225
 1 -12.38026165976598 -3.22672177947795  0.22678754085409
 1 -10.11475687698770 -0.30490881528153  2.84796342024202
 1 -10.54837500410041  1.42239531653165  2.25323004490449
 1 -11.72366995929593  0.37995141414141  3.48261243904390
 1 -13.82708391019102  0.41040704300430  0.24676114641464
 1 -13.81199697029703  0.59760136753675  2.05004900690069
 1 -12.72353103850385  1.91991561336134  1.18709919321932
 1  12.59160652735273  2.21600655015502 -0.16957911471147
 1  12.95590001710171  2.22528656755676  1.29957755895590
 1 -12.54874835343534 -1.95097189368937 -1.91760595129513
 1  13.45727531233123 -0.19824957075708  1.32370270617062
 1 -9.35263762946295 -1.12860771977198  0.12728028802880
 1  13.62874801890189 -1.29283232253225 -1.00565572157216
 1  13.14512092959296  0.17401597949795 -1.82097202100210
 1  9.05475217281728  1.91351140294029  1.12133738113811
 1  10.28533039463946  2.85743834623462 -0.12787587208721
 1  10.41271494479448  3.05119009070907  1.56431258225823
 1  11.58481132243224 -0.29597684628463  2.79780620202020
 1  9.90528549914991  0.39411687068707  2.58335146324632
 1  11.08904980408041  1.68935673247325  3.02055699869987
 1 -10.25672817081708  0.37064697539754 -2.63948134383438
 1 -11.83724278057806  1.20920691919192 -2.98066513181318
 1 -11.55674351945195 -0.60546929822982 -3.32775053265327
 1 -14.68013128642864 -2.49073802640264 -0.39783798759876
 1  8.75081414941494  0.45042526772677  0.36844949114912
 1 -8.55920108900890  1.94867652045205 -0.18935425582558
 1  11.79932566706671 -2.47802929892989 -1.89736258775878
 1  10.18174104050405 -1.60643674537454 -2.14066000000000
 1  11.39214850855086 -0.91288437853785 -3.06658260636064
 1  15.43090227052705  0.86995509530953  0.78205617451745
 1  9.46325610191019 -2.35717879957996  0.08100165766577
 1 -5.73044750575057 -1.18344549524952  0.27626502330233
 1 -7.39940883898390 -1.27626960016002  1.22569482188219
 1 -7.21739797499750 -1.79375782398240 -0.49501771657166
 1 -6.52636492299230  2.48033682878288 -0.43631683338334
 1  7.25424897389739 -3.72793621622162  1.30660035573557
 1  6.44962230743074 -4.05660084788479 -0.17259685088509
 1  8.16453635103510 -4.22371855645565 -0.24191722442244
 1  6.55295372227223 -0.13625086448645 -0.46526864876488
 1 -4.23565579717972  0.53623328852885 -0.12175823342334
 1  4.66974057755776 -2.60645989898990  0.04952729192919
 1 -4.53614966066607  3.76246422822282 -0.66656631213121
 1  4.44431450765076  0.32730006890689 -0.35187440484048
 1 -1.20842060026003  4.06125757245725 -1.56622489438944
 1 -1.60785362376238  4.64391154845485  0.08661670187019
 1 -2.81227071517152  4.67802021752175 -1.19484777847785
 1 -2.23798267866787  0.50965759125913 -0.59467419741974
 1  2.21574061616162  1.40610459965997 -0.53986100120012
 1  1.94167269496950 -2.32318872127213  1.23502188068807
 1  0.94037910921092 -2.14862415351535 -0.36681796689669
 1  2.67992074147415 -2.82786057325733 -0.39670391339134
 1  0.09436532143214  2.46126596629663 -0.49256624812481
 1 -0.33880677667767 -0.50761093089309 -0.35195585058506

