%nproc=4
%Mem=4GB
# td=(NStates=1) CAM-B3LYP/6-31G(d,p) 

TD

0 1
 8 -14.17053292849285 -2.02256063776378  0.48636889218922
 8  14.67468930573057  0.89600718731873  0.10424102000200
 6 -11.77228008760876  0.07342341724172  1.23586840684068
 6 -10.94013097559756  0.20835360636064 -0.13964025122512
 6 -12.08081356195620 -1.43774825922592  1.45212305360536
 6 -12.75071846534654 -2.06930799559956  0.22943709460946
 6 -11.45773106200620 -0.61336881518152 -1.33290878077808
 6  11.16667999859986  0.93098474097410  1.06192647234723
 6 -11.19174064726473  0.67758949774978  2.41789884058406
 6 -13.07833399579958  0.92993864076408  1.07054813161316
 6  12.59356653715372  1.50268969546955  0.73952133833383
 6 -12.28224921082108 -1.64831269906991 -1.10110287898790
 6  13.39680130103010  0.41025869846985  0.38555587448745
 6  10.64910438473847  0.00797138693869 -0.05114152905291
 6 -9.49057782168217 -0.09561240944094 -0.00028002040204
 6  12.93106108370837 -0.10735795519552 -1.03531911821182
 6  11.46726981578158 -0.57396244154415 -1.01443650245024
 6  10.15610249584958  2.16501581358136  1.07758047144714
 6  11.12016284878488  0.24437361276128  2.43679424072407
 6 -11.17911240874087  0.05690733223322 -2.65259751795180
 6 -8.40822692299230  0.79560454285429 -0.21835545804580
 6  9.32666759605961 -0.49043681948195  0.18824890869087
 6  11.07653759925993 -1.24554752155216 -2.31552115681568
 6 -7.03986530943094  0.54190143194319 -0.09016110541054
 6  8.86219267566757 -1.77220701820182 -0.11696683768377
 6 -6.59717113861386 -0.85660441734173  0.40592348094809
 6  7.48260674817482 -2.15795866786679  0.04461339903990
 6 -6.16931670767077  1.55188876337634 -0.17614947154715
 6  7.12489568376838 -3.63115683788379  0.05049526772677
 6  6.47216448544854 -1.25003529222922 -0.14287663006301
 6 -4.77109108280828  1.48790232943294 -0.25316623002300
 6  5.02714356025603 -1.65565340824082 -0.15766354655466
 6 -3.98005937833783  2.59316234243424 -0.52930411941194
 6 -2.61472191029103  2.70401835943594 -0.59092183998400
 6  3.97787175267527 -0.62488299439944 -0.09632914931493
 6  2.63226027462746 -0.74336880838084 -0.09451440404040
 6 -1.93949249944994  4.02811739433943 -1.07805695309531
 6 -1.79637672317232  1.54140688508851 -0.37623363976398
 6  1.77781632663266  0.30545210671067 -0.20598916081608
 6  1.97203052415242 -2.13821660896090  0.19239160706071
 6 -0.42511477037704  1.48725004630463 -0.55084844464446
 6  0.37087191799180  0.37710937873787 -0.31412467326733
 1 -10.92258900040004  1.14137592289229 -0.28072991819182
 1 -12.73752722582258 -1.71313132683268  2.33785167986799
 1 -11.02244991459146 -1.77863705870587  1.72117540014001
 1 -12.32726636023602 -3.34814392169217  0.19246410851085
 1 -10.26459186048605  0.04923659925993  2.72248087198720
 1 -10.87053722032203  1.80807388438844  2.33764848674868
 1 -11.83894148644865  0.58200161916192  3.39070324812481
 1 -13.46311751355135  0.79413541584158 -0.02489601930193
 1 -13.79089486008601  0.62920452785279  1.84275827782778
 1 -12.82038072347235  1.99144276607661  1.05097558085809
 1  12.61641900860086  2.24510946044605  0.00589843304330
 1  12.90956538363836  1.95954999389939  1.65861346254625
 1 -12.83351683028303 -2.23996079257926 -1.97451164186419
 1  13.20727031183118 -0.28901864766477  1.23754409030903
 1 -9.26612897859786 -1.28942380138014  0.21906946694669
 1  13.78775391949195 -0.86637967726773 -1.29352450845085
 1  13.00755717321732  0.77070564846485 -1.67083700750075
 1  9.15160185778578  1.73915396719672  1.29471471887189
 1  10.38058992059206  2.83182578497850  0.32690960646065
 1  10.38916258955896  2.91641661336134  1.76139229022902
 1  11.65071791309131 -0.71552880148015  2.18695511691169
 1  9.98354332493249  0.19654711371137  2.78117124522452
 1  11.66642754185419  1.01728952575258  3.22970791379138
 1 -10.13270576857686  0.20744065476548 -2.90506790249025
 1 -11.76353540984099  0.98882488098810 -2.55350241554155
 1 -11.62208005310531 -0.41514026532653 -3.53702145974597
 1 -14.72606587988799 -2.60989994259426 -0.09445764956496
 1  8.56451551955196  0.28163838903890  0.37204985118512
 1 -8.69921509040904  1.72524417721772 -0.68599391979198
 1  11.20178591309131 -2.15321681768177 -2.06717956945695
 1  9.93601646804681 -1.33218932063206 -2.22280821482148
 1  11.53166245994599 -1.00209329942994 -3.29078502660266
 1  15.09849903020302  1.08899699949995  0.97243521242124
 1  9.32917269356936 -2.82233531523152 -0.24938138063806
 1 -5.65656011701170 -1.07055420612061  0.41842923972397
 1 -6.87824672277228 -1.05448742194219  1.58110036243624
 1 -7.03972020722072 -1.46913536173617 -0.20498871367137
 1 -6.40274256075608  2.51111990709071 -0.41699490119012
 1  6.35166871587159 -3.98689211181118  0.82988268396840
 1  6.62220956615661 -3.97511269906991 -1.01036062726273
 1  8.15809570697070 -4.10979716431643  0.13514048134814
 1  6.72457088398840 -0.28198543794379 -0.21747386928693
 1 -4.17393962556256  0.60852051725173 -0.13111916951695
 1  4.87925152865287 -2.72095134813481 -0.32273993479348
 1 -4.44053009870987  3.59395737753775 -0.80225988148815
 1  4.37915799199920  0.44135147404740 -0.19313853125313
 1 -1.67033679187919  4.20305175187519 -2.17140541244124
 1 -0.96888972737274  4.27028418571857 -0.39721168096810
 1 -2.59210869896990  4.74333674917492 -1.03043133683368
 1 -2.26078495889589  0.62438906440644 -0.02025675567557
 1  2.20122916501650  1.34722871207121 -0.40217723282328
 1  2.79449797749775 -2.84258066046605  0.95822420092009
 1  1.01590666196620 -2.36875616671667  0.81239995489549
 1  2.09988273767377 -2.77794558175818 -1.01699594259426
 1  0.24758064296430  2.34212405210521 -0.74466145764576
 1 -0.23537643364336 -0.56724689448945 -0.41308196319632

