%nproc=4
%Mem=4GB
# td=(NStates=1) CAM-B3LYP/6-31G(d,p) 

TD

0 1
 8 -14.17569344454445 -1.91003938563856  0.37154741004100
 8  14.83333517031703  0.93439102570257 -0.15840524462446
 6 -11.75751861146115  0.10005608050805  1.24959977997800
 6 -11.09533649614962  0.30389316031603 -0.00623691089109
 6 -12.01211669226923 -1.39594407880788  1.47580542184218
 6 -12.73266666016602 -2.11407247204720  0.28234238513851
 6 -11.59539482838284 -0.40025750405041 -1.25285077497750
 6  11.25414874547455  0.94062570507051  1.13118339803980
 6 -10.95662713591359  0.74870660946095  2.52877992869287
 6 -13.12692885528553  0.90698634553455  1.15399647644764
 6  12.62146932743274  1.39849927642764  0.82814020022002
 6 -12.32062304820482 -1.54605247304730 -1.09434220292029
 6  13.58888050895090  0.33759143174317  0.25662298119812
 6  10.66400587488749  0.02718330813081 -0.00619703460346
 6 -9.58909767366737 -0.09400224842484  0.04898490609061
 6  13.00450842844284 -0.29918713811381 -1.00968655495550
 6  11.56493958275827 -0.39701474677468 -0.98108316711671
 6  10.32625951155116  2.18789810181018  1.24521723512351
 6  11.28281911441144  0.09453862926293  2.50515107640764
 6 -11.15912040954095  0.00999264076408 -2.64284654285429
 6 -8.52702880318032  0.71056603900390 -0.19820344284428
 6  9.36282121142114 -0.43276105190519  0.11364144794479
 6  11.05696564206421 -1.15218818561856 -2.21983158785879
 6 -7.14016533943394  0.40453769556956 -0.15577766706671
 6  8.77252370877088 -1.69928972647265 -0.07280242124212
 6 -6.71778319981998 -1.02003075997600  0.13687657625763
 6  7.46509499699970 -2.00206307830783  0.01411034873487
 6 -6.24481425742574  1.47098067256726 -0.26230808740874
 6  7.17634082828283 -3.47746146834683  0.16657687588759
 6  6.33452072107211 -1.15265555425543  0.02002966056606
 6 -4.78196216991699  1.36378991819182 -0.31519243264326
 6  4.95089593549355 -1.51759960286029 -0.01969975017502
 6 -3.96331770417042  2.47754078027803 -0.49534072307231
 6 -2.60501093919392  2.57956591419142 -0.69576232403240
 6  3.90111407690769 -0.55893639973997 -0.20328984538454
 6  2.51883893249325 -0.86388085958596 -0.18004295689569
 6 -2.02369091929193  3.88736331893189 -1.02194134153415
 6 -1.80336742224222  1.49625236963696 -0.50130614701470
 6  1.67575612061206  0.36466802830283 -0.28018658055806
 6  2.06494981608161 -2.24014680198020  0.13261562946295
 6 -0.39066132503250  1.54427574887489 -0.52054541434143
 6  0.26896172697270  0.36174784258426 -0.34930819161916
 1 -11.09307604910491  1.33077486278628 -0.47813965916592
 1 -12.42674614771477 -1.41049106280628  2.47176507120712
 1 -11.09084675427543 -1.84197339233923  1.63457674027403
 1 -12.27944157775778 -3.14747385468547  0.40206506860686
 1 -10.00518591989199  0.19761143674367  2.59392801670167
 1 -10.71392155875588  1.84111718871887  2.34889961186119
 1 -11.48998659095910  0.63588700770077  3.44921909970997
 1 -13.58785998779878  0.44550055235524  0.34548101840184
 1 -13.74103987458746  0.68286989438944  2.11555555755576
 1 -13.06093477887789  1.92782640444044  0.80915139843984
 1  12.39972733943394  2.13938888838884  0.04929277247725
 1  12.92184661176118  1.78940297919792  1.90966856805681
 1 -12.62201568016802 -2.04628142464246 -1.87150134083408
 1  13.73608319311931 -0.48629837563756  1.04147448334833
 1 -9.23133549924992 -1.26442130113011  0.14932249224923
 1  13.53580872497250 -1.23214625392539 -1.18731388738874
 1  13.28318473597360  0.41769034693469 -1.72413233703370
 1  9.13353005060506  2.01315136693669  1.75938118551855
 1  10.14716657825783  2.69637223962396  0.33966088158816
 1  10.79230290359036  2.86276124782478  1.86412256325633
 1  11.73480632193219 -1.11084833343334  2.53889031043104
 1  10.08163313391339 -0.14555709670967  2.79321244934493
 1  11.90654155325532  0.57530532733273  3.35763070607061
 1 -10.11242374037404 -0.16960705000500 -2.74891228692869
 1 -11.22347140344034  1.10256625512551 -2.62625969126913
 1 -11.81789963506350 -0.46567531883188 -3.54875263286329
 1 -14.73505677897790 -2.60705965856586 -0.32196039983998
 1  8.77433650165016  0.25436566176618  0.82136478267827
 1 -8.44115928482848  1.64220587338734 -0.24866018641864
 1  11.20143587808781 -2.24700619661966 -1.78876172767277
 1  10.18043090949095 -0.86388248994900 -2.51738767276728
 1  11.45051434513451 -0.98530162026203 -3.14254020212021
 1  15.17880706100610  1.75984408420842  0.52633060196020
 1  9.54345412171217 -2.48408148984899 -0.28508495099510
 1 -5.69107356835684 -1.08826597729773  0.03234063086309
 1 -7.12263116121612 -1.21256322952295  1.04694694709471
 1 -7.17334356955696 -1.87538598679868 -0.61317953275328
 1 -6.64926721322132  2.37163595869587 -0.24657785948595
 1  6.80385393439344 -3.60140356295630  1.07822751845185
 1  6.34172151735174 -3.84196938473847 -0.52528211941194
 1  8.03633353075307 -4.04940112471247  0.15455242254225
 1  6.45542396929693  0.00413317391739 -0.34516663856386
 1 -4.27118935053505  0.52030169536954 -0.13649970757076
 1  4.87622122562256 -2.38169742274227  0.26501884108411
 1 -4.61331737743774  3.36307428922892 -0.83283293879388
 1  4.22999307550755  0.41806914581458 -0.48065728312831
 1 -1.56694645284528  3.89997144384438 -1.96367463936394
 1 -1.41510434883488  4.14953211051105 -0.24005596539654
 1 -2.68995848394839  4.68700111561156 -1.25448374207421
 1 -2.22304118451845  0.46341296679668 -0.27366209620962
 1  2.10722976507651  1.37628161736174 -0.24232124722472
 1  2.63486201390139 -2.80632703510351  0.81312969146915
 1  1.01057612891289 -2.27554684578458  0.44331304620462
 1  2.27133988338834 -2.83835162236224 -0.76476071907191
 1  0.18759464436444  2.46506634633463 -0.64820181168117
 1 -0.12717561356136 -0.64195436523652 -0.50950160516052

