%nproc=4
%Mem=4GB
# td=(NStates=1) CAM-B3LYP/6-31G(d,p) 

TD

0 1
 8 -14.13966984218422 -1.93325170687069  0.72363261856186
 8  14.84026586338634  0.99912749934993  0.10541113701370
 6 -11.72035489508951 -0.01554547964796  1.39915473547355
 6 -11.03671063356336  0.36152892389239 -0.02507879507951
 6 -11.85597107770777 -1.54708919331933  1.50072791409141
 6 -12.69719311281128 -2.13198426322632  0.47161131203120
 6 -11.66867215611561 -0.39239671797180 -1.16793228312831
 6  11.13294662526252  0.90503214571457  1.25318559825983
 6 -10.81896336953695  0.60941268006801  2.50477752845285
 6 -13.06086224862486  0.82171781868187  1.46947802460246
 6  12.58024520502050  1.51522094859486  1.00897828402840
 6 -12.30205119101910 -1.52638050585058 -0.85363813251325
 6  13.56845846674667  0.40659833243324  0.41239855875588
 6  10.75494496879688 -0.06371578177818  0.07195078017802
 6 -9.60268903280328  0.01935908770877 -0.02870286268627
 6  12.98683666126613 -0.14639185858586 -0.84421000730073
 6  11.49313240204020 -0.47950299559956 -0.85556061486149
 6  10.16354323992399  2.13669298129813  1.28208092149215
 6  11.19701053355335  0.22496167156716  2.61215177647765
 6 -11.44984948244825  0.05818746024602 -2.48431068926893
 6 -8.54965106540654  0.85510049244925 -0.30183380588059
 6  9.25905083438344 -0.39939771557156  0.01529161296130
 6  11.13931387688769 -1.38134110091009 -1.97987759245925
 6 -7.11236255915592  0.56638388018802 -0.28013010231023
 6  8.76752320872087 -1.62691248874887 -0.03289843084308
 6 -6.70675209670967 -0.90649940684068 -0.17225433683368
 6  7.41281976947695 -2.08253112511251 -0.05860692299230
 6 -6.25885566156616  1.57960153465347 -0.42013386998700
 6  7.08154134833483 -3.49385310751075  0.26263648184818
 6  6.30530779977998 -1.16754704340434 -0.24406674907491
 6 -4.84769874357436  1.51334487368737 -0.38620953435344
 6  4.94282512841284 -1.57223506640664 -0.18642642284228
 6 -3.95955732813281  2.53030605680568 -0.70054124312431
 6 -2.62873331143114  2.49970792839284 -0.81452420022002
 6  3.92734670017002 -0.64717522362236 -0.36665618201820
 6  2.58554560316032 -0.83603807530753 -0.45058001060106
 6 -1.85936448664866  3.92967755035504 -0.97832698009801
 6 -1.76785387088709  1.40290303470347 -0.64607062346235
 6  1.76132467746775  0.26346790829083 -0.52097065896590
 6  2.11607492859286 -2.24047683498350 -0.32135976807681
 6 -0.42654491339134  1.41555287658766 -0.63278663846385
 6  0.37194202500250  0.29078074587459 -0.58370163096310
 1 -11.14264100560056  1.50613239853985 -0.21896374157416
 1 -12.34385785888589 -1.94069408310831  2.56490438513851
 1 -10.89936760636063 -2.07728692369237  1.32113539613961
 1 -12.57236086968697 -3.13667277457746  0.18018288038804
 1 -9.86862226352635  0.04841651725173  2.59582820672067
 1 -10.53046321292129  1.56926000300030  2.25944066596660
 1 -11.31319891219122  0.57166058505851  3.39171334913491
 1 -13.75423662546254  0.56885288758876  0.55312178247825
 1 -13.43545931653165  0.60960256765677  2.52324632663266
 1 -12.75311399679968  1.83452707450745  1.32152263556356
 1  12.47285465216522  2.28798374787479  0.30980882408241
 1  13.11827625472547  1.84310834973497  1.95772337353735
 1 -12.79777325592559 -1.97312410891089 -1.80274446514651
 1  13.57225681048105 -0.42255200100010  1.14098443434343
 1 -9.50815318101810 -0.99713457245725  0.20264782478248
 1  13.51727687178718 -0.98652169146915 -1.07048220422042
 1  13.13914033153315  0.62757133503350 -1.73391331513151
 1  9.10429712731273  1.70806085788579  1.68548379577958
 1  10.17899976157616  2.82707530993099  0.21699861536154
 1  10.37499117241724  2.91498647034703  2.03347949894989
 1  11.87731057235724 -0.49383663226323  2.70536695809581
 1  10.19281425202520 -0.11171371237124  3.01452458055806
 1  11.65564646374637  1.16388418521852  3.29284422742274
 1 -10.19079157715772  0.21875178587859 -2.50629802550255
 1 -11.58315737203720  1.28032403090309 -2.63104016931693
 1 -11.87262510761076 -0.45862461376138 -3.30007776537654
 1 -14.64879815311531 -2.14123307590759 -0.02667087088709
 1  8.49156822482248  0.21819204440444  0.28853149934994
 1 -8.63302847174718  1.84815646844684 -0.38357367776778
 1  11.86079181368137 -2.37785928192819 -1.94804765626563
 1  10.13283615001500 -1.34969107080708 -2.35863179717972
 1  11.76751604530453 -0.89587267736774 -2.81330727882788
 1  15.18923810411041  1.23004110391039  0.89825779467947
 1  9.45151492779278 -2.43772685438544 -0.36211265376538
 1 -5.68545300630063 -1.26910406110611 -0.06848945214521
 1 -7.15855475357536 -1.47257923112311  0.78363061546155
 1 -7.16097233243324 -1.63562201040104 -0.81765998079808
 1 -6.50521280778078  2.69616841194120 -0.47176037773777
 1  6.72175572457246 -3.78822224482448  1.28044774047405
 1  6.26205355055506 -3.83013820162016 -0.50230982218222
 1  8.00861075847585 -4.15467165176518  0.26343331063106
 1  6.34156258315832 -0.00971821122112  0.01431931003100
 1 -4.27207943954395  0.61914157935794 -0.11054711231123
 1  4.66083968746875 -2.61288054105410  0.03330566976698
 1 -4.47444349004900  3.55125310711071 -0.81341099659966
 1  4.29030910711071  0.50247758665867 -0.35808502590259
 1 -1.47219697789779  3.87745919261926 -1.87436570847085
 1 -1.36826966536654  4.16873403070307 -0.07293925372537
 1 -2.57081656975698  4.84160657615762 -1.02335062876288
 1 -2.17996687708771  0.58780540604060 -0.59546427642764
 1  2.31371041314131  1.24237822702270 -0.52529954505451
 1  1.84108263596360 -2.21442784518452  0.97841622012201
 1  1.02586765806581 -2.60277956905691 -0.93388467356736
 1  2.93606635603560 -3.12091987918792 -0.63452769576958
 1  0.20952683758376  2.44176401610161 -0.70814780628063
 1 -0.34681757775778 -0.74828499829983 -0.59149980498050

