%nproc=4
%Mem=4GB
# td=(NStates=1) CAM-B3LYP/6-31G(d,p) 

TD

0 1
 8 -14.16290216541654 -2.15947432913291  0.54940519581958
 8  14.99146098289829  0.77516510311031 -0.02093149724973
 6 -11.89223208280828  0.09356543144314  1.20086490649065
 6 -11.07831479397940  0.34246701770177 -0.18427471467147
 6 -11.94120960156016 -1.48261274567457  1.34043188448845
 6 -12.69363275677568 -2.18111917671767  0.21427557845785
 6 -11.58314360326032 -0.52572005030503 -1.27582307220722
 6  11.30104343494349  0.97592923542354  0.99207948764876
 6 -11.22057353055306  0.72466420522052  2.36081313201320
 6 -13.30738690109011  0.83826947384738  1.17920899769977
 6  12.67186436693669  1.49982940944094  0.65481286748675
 6 -12.42978396429643 -1.51735960376038 -1.05984875357536
 6  13.62821444234423  0.34711238383838  0.16220353925393
 6  10.82065153945395 -0.07592700290029 -0.03541995689569
 6 -9.61160992489249  0.09900705250525 -0.00300029242924
 6  13.04911288888889 -0.23071029042904 -1.06048163446345
 6  11.62594568336834 -0.52212725802580 -0.98925398419842
 6  10.46979386498650  2.25683499549955  1.09053176657666
 6  11.17002783528353  0.29082825822582  2.35204576587659
 6 -11.24795929342934  0.23158479998000 -2.54278653685369
 6 -8.50933703400340  0.92895787818782 -0.17575119761976
 6  9.37825275457546 -0.41075885168517  0.03344342814281
 6  11.07126707220722 -1.44359732653265 -2.13194279897990
 6 -7.16635795869587  0.48747598939894 -0.35894798409841
 6  8.85690214661466 -1.56845664316432  0.00611547054705
 6 -6.86512793429343 -0.96724548144814  0.00083297189719
 6  7.52791127862786 -1.94687755975598  0.03650258795880
 6 -6.29124890089009  1.55341891639164 -0.38285014161416
 6  7.25469866406641 -3.45744946714671  0.27818803700370
 6  6.39158642764276 -1.11713200190019  0.07477513511351
 6 -4.86861083478348  1.38137167636764 -0.42155306870687
 6  5.02526337223722 -1.47378522142214  0.13677589738974
 6 -4.02815418781878  2.50651367756776 -0.45987717671767
 6 -2.65162560066007  2.50220817841784 -0.46858960676068
 6  3.99181314681468 -0.55184569066907 -0.03486300270027
 6  2.58808585718572 -0.76639111061106 -0.08727367996800
 6 -2.04616316651665  3.94263884648465 -0.61801094849485
 6 -1.84937202270227  1.34476722112211 -0.38578459485949
 6  1.73300184518452  0.23641520302030 -0.32560112201220
 6  2.11929525062506 -2.23347613491349  0.12281464936494
 6 -0.41464372327233  1.34905622692269 -0.41481484128413
 6  0.33094792559256  0.22948461626163 -0.42803606440644
 1 -11.30177691919192  1.46601838713871 -0.48379022422242
 1 -12.42460593369337 -1.75852586628663  2.24237213191319
 1 -10.82844051365137 -1.88828802380238  1.50261354395440
 1 -12.43472710631063 -3.23992309960996  0.20085494759476
 1 -10.09464486578658  0.10682235783578  2.46370499439944
 1 -10.85653582018202  1.70595367236724  2.26189091099110
 1 -11.83263085538554  0.65932935193519  3.36359053685369
 1 -14.04602580438044  0.37592359465947  0.54514098439844
 1 -13.79271504210421  0.73485509290929  2.17871187318732
 1 -12.97674636003600  1.91105472727273  0.74692517581758
 1  12.50478784548455  2.20223517301730 -0.12433459025903
 1  13.20316474357436  2.09196323522352  1.36032363356336
 1 -12.78334181278128 -2.00004680118012 -2.02396658735874
 1  13.46346593139314 -0.37577732353235  0.91205154105411
 1 -9.27981034673467 -0.99179403840384  0.06790435043504
 1  13.76546169026903 -1.10804384368437 -1.41496665266527
 1  13.19928634613461  0.33726230413041 -1.92927285108511
 1  9.48441513911391  1.97930798259826  1.65497074447445
 1  10.20005186678668  2.59570217261726  0.16049296479648
 1  10.99648332163216  2.87072204390439  1.79114526552655
 1  11.73528636993700 -0.65178242684268  2.31758818021802
 1  10.16248121872187 -0.02445498649865  2.43610673877388
 1  11.58615951505150  0.90846864366437  3.14636957995800
 1 -10.17174967296730  0.20795070577058 -2.49297669336934
 1 -11.73608266456646  1.27415341384138 -2.37822488778878
 1 -11.78465631073107 -0.44386313761376 -3.26130388798880
 1 -14.53819709300930 -2.14941389398940 -0.44266247004700
 1  8.62532160016002  0.42903312851285  0.17418006420642
 1 -8.72878804770477  2.06132778557856 -0.29946526692669
 1  11.65761149564957 -2.31375287128713 -2.13217606910691
 1  9.94984785118512 -1.51659776147615 -2.09237517151715
 1  11.30380967466747 -0.86839993009301 -3.06718266636664
 1  15.35147432773277  1.06758485828583  0.80081805070507
 1  9.55235501180118 -2.34440752245224 -0.30472691519152
 1 -5.72591705270527 -1.12218936963696  0.35892328912891
 1 -7.61787068516852 -1.24726669986999  0.91890414281428
 1 -7.07584381958196 -1.65282373057306 -0.88526674147415
 1 -6.68333061956196  2.62605140024002 -0.66031923362336
 1  6.38613216221622 -3.90193361596160  1.14579427512751
 1  6.66897424262426 -3.93076826462646 -0.51332092329233
 1  8.24589448684868 -4.03572975757576  0.42064903220322
 1  6.33508193509351  0.06138889948995 -0.01277339923992
 1 -4.39557178877888  0.48175784098410 -0.49427548514851
 1  4.82263586708671 -2.50708996199620  0.39755209440944
 1 -4.51896794249425  3.57210519231923 -0.42765242074207
 1  4.11315139133913  0.45374271317132 -0.18577779517952
 1 -1.41975173337334  4.19656110281028 -1.46556482838284
 1 -1.69661249964997  4.13909106640664  0.37293533373337
 1 -3.11181066916692  4.71158357385739 -0.61815010871087
 1 -2.45551443184318  0.30375700120012 -0.62055678567857
 1  1.90791983408341  1.33401739093909 -0.43101011611161
 1  2.60905943364336 -2.59411581398140  1.03090146864686
 1  1.00584565586559 -2.29369866096610  0.18336705160516
 1  2.43913666306631 -3.11074886208621 -0.37073131613161
 1 -0.03961807690769  2.46111595129513 -0.58373536503650
 1 -0.08972186818682 -0.78331850165017 -0.13757441244124

