%nproc=4
%Mem=4GB
# td=(NStates=1) CAM-B3LYP/6-31G(d,p) 

TD

0 1
 8 -14.11850772597260 -1.91124950665066  0.62633288858886
 8  14.71529336613661  1.00446803340334 -0.03423282738274
 6 -11.66636949654966 -0.03896782188219  1.33948876887689
 6 -10.94787174967497  0.31939471047105  0.06975068786879
 6 -11.94645012561256 -1.52164664906491  1.48102594389439
 6 -12.75107850135014 -2.00239130393039  0.25213936483648
 6 -11.54248953785378 -0.30469794809481 -1.22727821772177
 6  11.13909724032403  0.97267891039104  1.12070234993499
 6 -10.89454092729273  0.52284402320232  2.53750080078008
 6 -12.94948111051105  0.97674332123212  1.27168824562456
 6  12.42730991149115  1.58056748324832  0.81091847804780
 6 -12.38562954885489 -1.39863773157316 -1.03565633433343
 6  13.47717933883388  0.51527920052005  0.31712903180318
 6  10.64371384568457 -0.01292070227023 -0.03255967086709
 6 -9.53264202810281 -0.11881472967297  0.06407641524152
 6  12.92178015561556 -0.07968518791879 -0.97911349764977
 6  11.54032712151215 -0.48945399069907 -0.89605466426643
 6  10.21045793139314  2.15093440544054  1.23401611501150
 6  11.04167500000000  0.24487366276628  2.46403696499650
 6 -11.13257775527553  0.17135877737774 -2.59062132033203
 6 -8.48830493079308  0.72983796619662 -0.24994861736174
 6  9.23051798109811 -0.45488326412641  0.00957104090409
 6  11.06009595509551 -1.30628359515952 -2.13531313601360
 6 -7.08345966886689  0.38375561736174 -0.23908599789979
 6  8.76442289868987 -1.68620841834183 -0.03509865086509
 6 -6.62221364286429 -0.96622537943794 -0.14003111451145
 6  7.43994248174817 -2.19513238523852  0.07152609030903
 6 -6.17416719271927  1.47186076057606 -0.42222407900790
 6  7.16934012821282 -3.61263498569857  0.29456967516752
 6  6.32673994299430 -1.31942223092309 -0.01954429682968
 6 -4.76065003870387  1.42060559975998 -0.55537645104510
 6  4.95495634153415 -1.59094693759376  0.07426964676468
 6 -3.92962433483348  2.55726875307531 -0.67142833183318
 6 -2.50548098619862  2.57207516511651 -0.71186393419342
 6  3.93597756325633 -0.62975348144814 -0.18383790019002
 6  2.57212426102610 -0.85618008950895 -0.26469142174217
 6 -1.90419897009701  3.91605618821882 -0.74462360976098
 6 -1.79327641314131  1.38550129452945 -0.61376739313931
 6  1.73352189718972  0.26809837133713 -0.41962052395240
 6  1.95787910901090 -2.21087387468747 -0.02373000510051
 6 -0.43003526242624  1.42549387068707 -0.57615097489749
 6  0.30048487928793  0.28089975777578 -0.34578783958396
 1 -10.97203394489449  1.27026881218122 -0.12016386158616
 1 -12.44150762386239 -1.84949496319632  2.44823271797180
 1 -10.89337700730073 -1.94407360236024  1.58639192179218
 1 -12.37583121672167 -3.02520162746275  0.25566042814281
 1 -9.95837123842384 -0.10088841324132  2.64721334523452
 1 -10.67908807540754  1.50842391939194  2.34002872477248
 1 -11.54494208650865  0.44361778077808  3.52003618141814
 1 -13.57140834263426  0.78672467476748  0.40743721402140
 1 -13.51782755335534  0.94181578897890  2.18195219721972
 1 -12.87300598599860  2.10943456525653  1.27554803810381
 1  12.40429779647965  2.32725767526753 -0.05086724352435
 1  12.68251267836784  2.02989702860286  1.76719432063206
 1 -12.81658513711371 -1.92517931443144 -2.01183537423742
 1  13.56916650145015 -0.32399214501450  0.91413174907491
 1 -9.18622098779878 -1.18137299629963  0.09070663066307
 1  13.60827597169717 -0.78782182148215 -1.15198035403540
 1  12.95041145864587  0.74549312721272 -1.85959588338834
 1  9.13059975757576  2.11050110191019  1.45575082248225
 1  10.06428829042904  2.63011561396140  0.21258817431743
 1  10.55043871717172  3.10245521722172  1.77367351835184
 1  12.03044588588859 -0.43771101970197  2.61986840824082
 1  10.12629760036004 -0.29205174617462  2.60480360846085
 1  11.26208710781078  1.01721951875188  3.31216615961596
 1 -10.00202270027003  0.46536644734473 -2.54081147684769
 1 -11.40023908020802  1.19966596509651 -2.87902496779678
 1 -11.61230907600760 -0.39153790509051 -3.38083584118412
 1 -14.53057633093309 -1.70617957055706 -0.23804200800080
 1  8.75392446044604  0.51303152835284  0.16755940214021
 1 -8.70759592849285  1.78941059385939 -0.36600192059206
 1  11.37675340984099 -2.28395989198920 -2.04885773727373
 1  9.89698256465647 -1.13115921762176 -2.20778671267127
 1  11.66714600830083 -0.97811090119012 -2.97034298239824
 1  15.16098527882788  1.23907200700070  0.71625959485949
 1  9.50822059835984 -2.45557863956396 -0.01739818231823
 1 -5.42679714071407 -0.93981113181318  0.21395879267927
 1 -7.25613451155116 -1.54814678787879  0.69914216661666
 1 -6.95484171937194 -1.49455790399040 -0.93653186798680
 1 -6.57996028252825  2.41368016311631 -0.62891609330933
 1  6.95610915991599 -3.70889431203120  1.35643533923392
 1  6.40200754595460 -4.22320750855086 -0.43832342354235
 1  8.17340723812381 -3.98873505810581  0.06585355265527
 1  6.64716314321432 -0.14960219961996 -0.05558768066807
 1 -4.32236446804680  0.41283094829483 -0.46616267386739
 1  4.61398500200020 -2.63972322532253  0.13205554475448
 1 -4.48470451615162  3.41889987178718 -0.76090574607461
 1  4.50491056725673  0.22737007590759 -0.44003322072207
 1 -1.15560531873187  3.84549599629963 -1.42043031493149
 1 -1.41842468086809  4.16312346964696  0.06386442664266
 1 -2.51603109120912  4.61878429392939 -0.96101439513951
 1 -2.26280516091609  0.28350497599760 -0.68384311431143
 1  2.23190223232323  1.21406539573957 -0.39560657575758
 1  2.28216674437444 -2.49249565196520  0.82320069856986
 1  0.75797086838684 -2.28203749484949  0.09822853775378
 1  2.22597534693469 -2.90731851905191 -0.82763700670067
 1  0.03709959485949  2.26784662436244 -0.62791978347835
 1 -0.11218411441144 -0.59978014781478 -0.08920957595760

