%nproc=4
%Mem=4GB
# td=(NStates=1) CAM-B3LYP/6-31G(d,p) 

TD

0 1
 8 -14.38249412461246 -1.79633801550155  0.65842609790979
 8  14.87384922172217  1.08761634823482  0.18379897579758
 6 -11.75304816441644  0.06133220812081  1.32244706470647
 6 -11.00429739223922  0.27632040304030  0.03893760656066
 6 -12.03697917851785 -1.36620110451045  1.52440028132813
 6 -12.99375276877688 -1.96682774757476  0.37138128902890
 6 -11.76623191209121 -0.33528100640064 -1.14904039393939
 6  11.24714804540454  0.99413105560556  1.14995527522752
 6 -10.86169764296430  0.55523726252625  2.62211926262626
 6 -13.04717087948795  0.82233788068807  1.53077415421542
 6  12.61868904940494  1.56189561606161  0.95181256745675
 6 -12.58495948184819 -1.42750061786179 -0.98351111981198
 6  13.58083970487049  0.49522719531953  0.58313563246325
 6  10.82222169646965  0.05775636543654  0.04391797689769
 6 -9.47381614551455 -0.10960380858086 -0.08518851125113
 6  13.13501147874787 -0.08937615701570 -0.79247483378338
 6  11.63458654745475 -0.52639768506851 -0.80219527832783
 6  10.22151903750375  2.21317062906291  1.24957767116712
 6  11.13582441494149  0.35667484288429  2.48939950125013
 6 -11.51031552905290  0.20403204470447 -2.52123438163816
 6 -8.60057615791579  0.83958894129413 -0.22989661216122
 6  9.39626455575558 -0.43138091389139  0.13358344214421
 6  11.39301924742474 -1.39111207800780 -2.02086169086909
 6 -7.19181050395040  0.46139338113811 -0.17119920922092
 6  8.93327978437844 -1.65496529402940 -0.08908404940494
 6 -6.89225064656466 -0.89885864276428 -0.17558466986699
 6  7.52608109560956 -2.11273414541454 -0.14373543584358
 6 -6.23738351435143  1.56911048554855 -0.34252610921092
 6  7.30455364956496 -3.60157387958796  0.31450166836684
 6  6.46120338933893 -1.25287557625763 -0.35110745314531
 6 -4.88614258795880  1.43894743394339 -0.42094300770077
 6  5.11443228912891 -1.56941478437844 -0.30142792299230
 6 -4.02138351075108  2.52883590979098 -0.66955814481448
 6 -2.73370380848085  2.54844280188019 -0.73560630843084
 6  4.05105907140714 -0.62284279037904 -0.41784130053005
 6  2.59856690529053 -0.93320779227923 -0.43618857145715
 6 -1.92798134833483  3.81493607620762 -0.97657680508051
 6 -1.91262834833483  1.32857560196020 -0.61371738813881
 6  1.76495504050405  0.14943650515052 -0.54889345124512
 6  2.18121144224422 -2.36720950825083 -0.18692632473247
 6 -0.51254351325132  1.30600192149215 -0.70681404120412
 6  0.31165599639964  0.15839750755076 -0.47820108090809
 1 -10.97923466496650  1.38892067736774 -0.24113595879588
 1 -12.49020249334933 -1.40844085778578  2.47949584428443
 1 -11.14753242284228 -1.92374156915692  1.35109839243924
 1 -12.57530116371637 -2.99631873917392  0.19438430053005
 1 -9.96452185348535 -0.02986131053105  2.88480710461046
 1 -10.61783194979498  1.59142221922192  2.25844056595660
 1 -11.44416200850085  0.52986640564056  3.67588176597660
 1 -13.77198840064006  0.53671967426743  0.67139360966097
 1 -13.60861663226323  0.64017562496250  2.36182018401840
 1 -12.91717040244024  1.97543116491649  1.68032851615162
 1  12.53861122782278  2.41070602010201  0.05870371357136
 1  12.83493792089209  2.32709674857486  1.85353295449545
 1 -12.94072755135514 -1.87017381388139 -1.93920811151115
 1  13.81283086788679 -0.24188393419342  1.20250058595860
 1 -9.32860522622262 -1.13814867386739 -0.20805324532453
 1  13.71322646674668 -1.09587262656266 -1.00777593359336
 1  13.39712613011301  0.61548012591259 -1.46923684748475
 1  9.23360005760576  1.87549760156016  1.48783403080308
 1  10.23656551815182  2.79653225562556  0.27266418191819
 1  10.43720739403940  2.78071304300430  2.04500065106511
 1  11.64032687398740 -0.44133138173817  2.60363678507851
 1  10.08799376997700  0.09509696869687  2.70725385348535
 1  11.21536243534353  1.14579237603760  3.15779072207221
 1 -10.43802630063006  0.41866177687769 -2.66092348804880
 1 -11.91207026332633  1.22910890939094 -2.86027309260926
 1 -11.62743058815881 -0.67498624992499 -3.32898065566557
 1 -14.71395466876688 -2.12436138873887 -0.10422862666267
 1  8.80756982498250  0.34347457265727  0.42786543274327
 1 -9.02822799169917  1.92202385518552 -0.20762608300830
 1  11.81590732523252 -2.45750724672467 -1.84076692819282
 1  10.25126799319932 -1.67380348204820 -2.19914584858486
 1  11.97075636933693 -0.94891798189819 -3.02264821292129
 1  15.39919910021002  1.30533863366337  1.06263423232323
 1  9.66725650195020 -2.41649473117312 -0.24160060256026
 1 -5.82166662766277 -1.15134228492849 -0.25937854105411
 1 -7.11338023612361 -1.50768274147415  0.65249750215022
 1 -7.40095633083308 -1.34927337553755 -0.96053426822682
 1 -6.47679996649665  2.54888368346835 -0.38995219691969
 1  6.84103765276528 -3.66861028362836  1.26965666136614
 1  6.60840818601860 -4.10532572037204 -0.47089668086809
 1  8.30422031943194 -4.16731291589159  0.45196216351635
 1  6.61403983088309 -0.30848808820882 -0.50701282318232
 1 -4.42444467606761  0.30387005220522 -0.34301035863586
 1  4.82728633213321 -2.65032428542854 -0.12467012781278
 1 -4.46928297399740  3.62701068286829 -0.58629828532853
 1  4.32845292149215  0.47023436233623 -0.50806002340234
 1 -1.46655641384138  3.94454590129013 -1.97988626052605
 1 -1.10642348074808  3.78995615291529 -0.16771873167317
 1 -2.76111559965997  4.62904532003200 -0.91504979867987
 1 -2.50346922732273  0.43775040054005 -0.36346107610761
 1  2.13552259435944  1.22714670387039 -0.56552356745675
 1  2.55493402110211 -2.76043244564456  0.79862824132413
 1  1.04568964026403 -2.42508179927993 -0.14868615371537
 1  2.58062081148115 -2.97284507170717 -1.19088333133313
 1  0.11273715861586  2.07034687438744 -0.96122311381138
 1 -0.01927482348235 -0.97510768056806 -0.20590124512451

