%nproc=4
%Mem=4GB
# td=(NStates=1) CAM-B3LYP/6-31G(d,p) 

TD

0 1
 8 -14.19784565976598 -1.92141052275228  0.23339359465947
 8  14.92501433823382  0.81647923452345  0.05860645654565
 6 -11.92966582618262 -0.01996592169217  1.28000282028203
 6 -11.09143610611061  0.40639341034103 -0.03754004120412
 6 -12.19095457605760 -1.47569205360536  1.28106594789479
 6 -12.92634602810281 -1.98265933073307 -0.01616746584658
 6 -11.77790307920792 -0.18641611991199 -1.25284077397740
 6  11.22081541214121  1.13542518501850  0.86548682838284
 6 -11.19287076027603  0.32230396919692  2.47552460316032
 6 -13.17037319971997  0.86309195609561  1.26227730453045
 6  12.63321050155016  1.55654508100810  0.53595098129813
 6 -12.54056504240424 -1.31646951475148 -1.28533130183018
 6  13.61475309620962  0.32971064366437  0.30170748964896
 6  10.70550002430243 -0.00092950315032 -0.13723013791379
 6 -9.62214097799780  0.00358751055106  0.00547055465547
 6  13.22259023662366 -0.39471669106911 -1.00670625692569
 6  11.66926001480148 -0.57186223152315 -0.94454951375138
 6  10.21794868046805  2.35951526352635  0.72900561396140
 6  11.22909374187419  0.67476665206521  2.27696825812581
 6 -11.41128562606261  0.64275591709171 -2.54937719591959
 6 -8.55838193849385  0.77241222362236 -0.23977760026003
 6  9.38208313761376 -0.25864364016402 -0.13279319551955
 6  11.23659360486048 -1.57693065986599 -2.04713431813181
 6 -7.20693201610161  0.36765400720072 -0.19063115241524
 6  8.84472092849285 -1.48634843234323 -0.10277541854185
 6 -6.90272169366937 -1.07920667756776  0.07317020562056
 6  7.49433792129213 -2.09702257425743 -0.00940200250025
 6 -6.24870464646465  1.39989356385639 -0.32663452005201
 6  7.29166236043604 -3.49852357455746  0.17668788698870
 6  6.42372964196420 -1.22983327202720 -0.00062240464046
 6 -4.82457643134313  1.27842138133813 -0.26906782018202
 6  5.07996884278428 -1.53041088398840  0.06467868766877
 6 -4.02679405180518  2.36338936513651 -0.52524371337134
 6 -2.55431586968697  2.42861081868187 -0.48189093689369
 6  4.11331529702970 -0.56000650675067 -0.09523904030403
 6  2.77226427502750 -0.79235370687069  0.11788683608361
 6 -1.97973652385239  3.68678326092609 -0.75063421082108
 6 -1.79505659115912  1.30887363176318 -0.35589160556056
 6  1.79711825682568  0.21111267276728 -0.08338690059006
 6  2.27166048714871 -2.17797058435844  0.40129249714971
 6 -0.40951321022102  1.36503782508251 -0.27267062686269
 6  0.35907073787379  0.13337500530053 -0.03845710651065
 1 -11.36266300780078  1.44113589888989  0.05254340914091
 1 -12.65295876897690 -1.88108812251225  2.19753764846485
 1 -10.96618428802880 -1.92507170217022  1.11446472907291
 1 -12.61036467006701 -3.20412952025203  0.00162502460246
 1 -10.36498189948995 -0.30191851625162  2.77377600150015
 1 -10.79896006260626  1.34809788678868  2.25857057895790
 1 -11.72551014331433  0.28758217721772  3.42013619141914
 1 -13.93543474527453  0.89570557285729  0.40413688398840
 1 -13.82739851045105  0.42613422082208  2.07807180918092
 1 -12.87318600400040  1.99484310611061  1.34621510481048
 1  12.70744811151115  2.00789573907391 -0.70111226802680
 1  12.88716314341434  2.38211225012501  1.20341794299430
 1 -12.91100457905791 -1.72202899939994 -2.19580377107711
 1  13.69499908470847 -0.27999774557456  1.17613794969497
 1 -9.47297966366637 -1.06497135613561  0.21880944094409
 1  13.80949609370937 -1.32816585588559 -1.08985414141414
 1  13.58673509100910  0.24769334723472 -1.82831275507551
 1  9.19735643324332  2.23607365916592  1.08847409480948
 1  10.03893575517552  2.70159276167617 -0.43856694119412
 1  10.74086776007601  3.18969394109411  1.27036318731873
 1  11.80263310461046 -0.28525577417742  2.56534295569557
 1  10.04337930853085  0.88270572957296  2.72384551265127
 1  11.80624152325232  1.37439523632363  2.86159110211021
 1 -10.30220271827183  0.47905781648165 -2.76408380408041
 1 -11.88149720602060  1.49625562406241 -2.67605467076708
 1 -11.97380522562256  0.12150339903990 -3.39234699229923
 1 -14.78340161346135 -2.25656460906091 -0.59826803060306
 1  8.70258932693269  0.57070729592959 -0.08702605640564
 1 -8.78534370327033  1.91515316811681 -0.31751707210721
 1  11.66825255975598 -2.61469296529653 -1.70149300080008
 1  10.29018188458846 -1.72112821452145 -2.35707164116412
 1  11.72719201290129 -1.33212630273027 -2.87655360346035
 1  15.23901308160816  1.17494559435944  0.90723869276928
 1  9.67460723702370 -2.20406348804881 -0.18707515001500
 1 -5.89143360436044 -1.12213936463646  0.36924432123212
 1 -7.26656555465547 -1.23489546274627  1.16588884128413
 1 -6.99209544474447 -1.78252670087009 -0.52089030383038
 1 -6.55524781128113  2.36778557365737 -0.31813501520152
 1  7.35519906890689 -3.65758918151815  1.47838753445345
 1  6.11001834703470 -4.03323851165117 -0.16525611681168
 1  8.25662555995600 -4.07850403500350 -0.42726575927593
 1  6.52520094699470 -0.05088232763276  0.02458033613361
 1 -4.30022225382538  0.40606027122712 -0.04249030663066
 1  4.82315591909191 -2.55041429442944  0.57734007320732
 1 -4.63868991469147  3.34498248004800 -0.68671832733273
 1  4.36497657385739  0.55666300520052 -0.43746296369637
 1 -1.33542330053005  3.64190563726373 -1.73912218411841
 1 -1.33455629402940  4.24260141744174  0.05802384258426
 1 -2.74602409050905  4.58216063156316 -0.88267656135614
 1 -2.14405328572857  0.41820844634463 -0.11125585558556
 1  2.20629967206721  1.24168815801580 -0.41770878597860
 1  3.07545607330733 -2.72779918231823  1.12174055255526
 1  1.31903697499750 -2.34887417851785  1.00970968586859
 1  2.66194894429443 -2.85844363156316 -0.48395263826383
 1  0.00749663456346  2.25486532623262 -0.45231222272227
 1 -0.16851974797480 -0.73914408420842  0.17307665266527

