%nproc=4
%Mem=4GB
# td=(NStates=1) CAM-B3LYP/6-31G(d,p) 

TD

0 1
 8 -14.10409628482848 -1.77429581128113  0.50338059335934
 8  14.64147598439844  1.28440602720272  0.05175577147715
 6 -11.70952381198120  0.12055813071307  1.38981380138014
 6 -10.89343630613061  0.33656642764276  0.01684539733973
 6 -11.93355883648365 -1.40890537493749  1.50480832213221
 6 -12.68810220372037 -1.91793285808581  0.30547469836984
 6 -11.57975326422642 -0.29754723302330 -1.11071656155616
 6  10.99047237783778  1.07327897039704  1.10088036773677
 6 -10.96762823602360  0.54671641044104  2.55856290699070
 6 -13.04071023342334  0.87557320422042  1.26557763456346
 6  12.33563074357436  1.72169159565957  0.81089847604761
 6 -12.36340732663266 -1.37307517531753 -1.02506527522752
 6  13.31649327022702  0.68695636823682  0.36745406430643
 6  10.57796727102710  0.02973356315632  0.06613019811981
 6 -9.41706046994699 -0.12052490069007  0.01985199279928
 6  12.80044802240224 -0.00239745914591 -0.93060864716472
 6  11.41270435923592 -0.53730877617762 -0.85484054285429
 6  9.97850473607361  2.15223453545355  1.24834754815482
 6  11.03467429992999  0.29790896629663  2.52828338963896
 6 -11.16243074057406  0.36165780728073 -2.39810206840684
 6 -8.37923402370237  0.69727470987099 -0.20191381388139
 6  9.22335726502650 -0.54243201900190  0.20810089388939
 6  11.06991693719372 -1.37625059185919 -2.00284988968897
 6 -6.96602792569257  0.42487972977298 -0.26460855015502
 6  8.78855531193119 -1.75928572607261  0.09685454445445
 6 -6.54459588108811 -0.95365412231223  0.03388627722772
 6  7.38629711721172 -2.24562743474347 -0.06824788708871
 6 -6.17511728772877  1.42202577707771 -0.41690354695470
 6  7.26518971317132 -3.83902762496250 -0.00936071787179
 6  6.44813208220822 -1.39812010071007 -0.25853819621962
 6 -4.74156813051305  1.42622616181618 -0.42043295669567
 6  5.01642248814881 -1.68901674457446 -0.17382516271627
 6 -3.93636500890089  2.54918794499450 -0.69208039703970
 6 -2.49477991609161  2.54663262086209 -0.75147789558956
 6  4.00941490699070 -0.70465097119712 -0.29805932233223
 6  2.68833588218822 -0.92517698919892 -0.25574052665267
 6 -1.88313686388639  3.90989557215722 -1.02231137853785
 6 -1.77309439493949  1.43671641604160 -0.50170618701870
 6  1.72448099309931  0.11951351285129 -0.47070563246325
 6  2.13135645674567 -2.29919270657066  0.05318768666867
 6 -0.36750900980098  1.31367268856886 -0.70512387218722
 6  0.35572040284028  0.25390705850585 -0.40764402520252
 1 -10.72703944544454  1.35638742404240 -0.19946179137914
 1 -12.67852132523252 -1.67964797849785  2.41945984068407
 1 -11.07588525812581 -1.83671286628663  1.71304458705871
 1 -12.62983661726173 -3.01300040734073  0.21245610771077
 1 -10.00797619891989 -0.11038936333633  2.61062968686869
 1 -10.68360852745275  1.66045912291229  2.53213793569357
 1 -11.68729632193219  0.34841826082608  3.44962914071407
 1 -13.40679188098810  0.39551555385539  0.23079955025503
 1 -13.79880565116512  0.59801140854085  2.03387738973897
 1 -12.89671835723572  1.92305592739274  1.34334481778178
 1  12.26163353005301  2.57717266676668 -0.07016917371737
 1  12.81601602870287  2.14647868676868  1.67408500970097
 1 -12.84674815341534 -1.73804060056006 -2.05156934763476
 1  13.33603318811881 -0.28746849264927  1.15321565746575
 1 -9.27570993669367 -1.18706356535654  0.12240980098010
 1  13.38678382248225 -0.82492553185319 -1.24080923692369
 1  12.96219263676368  0.68012659055906 -1.77710763456346
 1  8.85572226982698  2.01625167696770  1.52923817121712
 1  9.92023388498850  2.54920752315232  0.23731064656466
 1  10.21168484178418  2.85290026172617  2.10704685568557
 1  11.64856769806981 -0.75828307690769  2.55761218261826
 1  10.23720869146915 -0.14317685868587  2.66914004210421
 1  11.34014491359136  1.02008980578058  3.35901084408441
 1 -10.13241573957396  0.70268017871787 -2.44444183988399
 1 -11.53276233253325  1.25782178067807 -2.56113317861786
 1 -11.32238008310831 -0.34007275857586 -3.26977473507351
 1 -14.44958823212321 -2.43815276787679 -0.14271247504750
 1  8.40097916591659  0.42526275147515  0.43640628682868
 1 -8.48747391629163  1.81085273807381 -0.40470579097910
 1  11.26118185268527 -2.35549704570457 -1.68498134963496
 1  9.85891875827583 -1.36916301800180 -2.31827776177618
 1  11.57223651735173 -0.91686477657766 -3.00735668376838
 1  15.01207038733873  1.37210531033103  0.94110207910791
 1  9.61307108340834 -2.62159524122412 -0.11283772627263
 1 -5.43100756175618 -0.98740589128913  0.23951134793479
 1 -7.06554545264526 -1.40640261346135  1.02718497089709
 1 -6.81007724292429 -1.72603105130513 -0.84852306710671
 1 -6.36181846834683  2.57715651075107 -0.23283648534853
 1  7.10225377437744 -4.42723614621462  1.14512420812081
 1  6.59649699489949 -4.26222140994099 -0.61490108130813
 1  8.30836073347335 -4.33035922052205 -0.30261329402940
 1  6.76596502340234 -0.27598483788379  0.08054593269327
 1 -4.18373060466047  0.62564222942294 -0.47345340294029
 1  4.62223582708271 -2.75872512551255 -0.05374303510351
 1 -4.59856590229023  3.33296127792779 -0.95602525802580
 1  4.19772984918492  0.34024136303630 -0.36265548294830
 1 -1.23736349454945  4.03548499519952 -2.11053932583258
 1 -1.21927476587659  4.13400055735574 -0.21546350615061
 1 -2.56205569366937  4.48698111361136 -0.99072736643664
 1 -2.27023590399040  0.47571419691969 -0.48963369336934
 1  2.08109715181518  1.01099508870887 -0.46113312841284
 1  2.12002052975298 -2.59337573997400  1.05330370887089
 1  0.87905297659766 -2.42487177827783 -0.39862114721472
 1  2.86742949234923 -3.12320010721072 -0.46577082008201
 1  0.15441132603260  2.23450329002900 -0.91720871237124
 1 -0.35096799279928 -0.86218638843884 -0.12759341434143

