%nproc=4
%Mem=4GB
# td=(NStates=1) CAM-B3LYP/6-31G(d,p) 

TD

0 1
 8 -14.21558743394339 -2.00982936463646  0.18526878217822
 8  14.79490132693269  0.91686927352735 -0.00533993809381
 6 -11.81447430703070  0.03512958785879  1.31904672467247
 6 -11.01517848034804  0.29600237123712 -0.00615690289029
 6 -12.13702918351835 -1.43595808020802  1.34914275557556
 6 -12.74579797329733 -2.10934199899990  0.13158730963096
 6 -11.55210049894989 -0.35455293359336 -1.19903539343934
 6  11.10133346394639  1.01330297279728  0.99892017171717
 6 -11.08823029622962  0.61941368016802  2.53013006370637
 6 -13.16885304770477  0.87518316521652  1.13350442724272
 6  12.47639481998200  1.62198162466247  0.76387377357736
 6 -12.17608859475948 -1.52053992179218 -1.15322809150915
 6  13.53292491339134  0.44546221882188  0.34763208210821
 6  10.71595106940694 -0.00169958015802 -0.07559397429743
 6 -9.55868463236324 -0.05775862406241  0.13646365396540
 6  12.95869384698470 -0.14882210161016 -0.96084167046705
 6  11.51746483528353 -0.46201124642464 -1.07746280508051
 6  10.10792767836784  2.15969528152815  1.08448116151615
 6  11.09162999549955  0.36485566096610  2.40273083438344
 6 -11.15326982448245  0.15930757225723 -2.55627788598860
 6 -8.53084918521852  0.74744972737274 -0.07589121162116
 6  9.25992092139214 -0.41966974277428  0.08493857765777
 6  11.13246319181918 -1.47460042684268 -2.12422202690269
 6 -7.13466478937894  0.48293553535354 -0.04862695199520
 6  8.86576303270327 -1.74067386488649 -0.14494963596360
 6 -6.68164958645865 -0.79898865576558  0.48374126272627
 6  7.41868035553555 -2.04733760576058 -0.08952001430143
 6 -6.24294407040704  1.55483905840584 -0.40249210581058
 6  7.22892608680868 -3.66782050425042  0.02275249344934
 6  6.44571184018402 -1.23174346304630 -0.08605094749475
 6 -4.79813378707871  1.43967750695069 -0.36809772317232
 6  5.01390223612361 -1.52546038893889  0.05114733453345
 6 -3.95766713911391  2.57597062326233 -0.55005619461946
 6 -2.61927236533653  2.59137709530953 -0.64050679847985
 6  4.09752371787179 -0.63762426852685 -0.03264278067807
 6  2.66885393399340 -0.89144361586159 -0.04811976457646
 6 -1.91061961216122  3.87755233783378 -0.97043619101910
 6 -1.76643372887289  1.45747849224922 -0.51278729512951
 6  1.79613815881588  0.18671023252325 -0.33297185908591
 6  2.14531785288529 -2.23338612591259  0.19566193409341
 6 -0.36894915381538  1.46233755505551 -0.46800015981598
 6  0.36995182598260  0.20432210001000 -0.29787304810481
 1 -11.03854059555955  1.51793357865787  0.01876003080308
 1 -12.71011448454845 -1.62392240594059  2.34971286598660
 1 -11.11820949054905 -1.83616281128113  1.45812909550955
 1 -12.30207384098410 -3.24042314961496 -0.03216835473547
 1 -10.09244464576458  0.15890756635664  2.81225984988499
 1 -10.95460562716272  1.74875795279528  2.41436615851585
 1 -11.96345393769377  0.82676609560956  3.39379355715572
 1 -13.52977417921792  0.45460146244624  0.22870934123412
 1 -13.85260103070307  0.98521012841284  2.00002400440044
 1 -12.98924761016102  1.85709933173317  1.01947243054305
 1  12.42500986768677  2.24412936243624 -0.17192934973497
 1  12.80674510161016  2.03354739363936  1.59556715791579
 1 -12.71426490509051 -1.99994679117912 -2.09252344304430
 1  13.24128371317132 -0.27781752755276  1.16946728262826
 1 -9.27204957065707 -1.10335519451945  0.57850541054105
 1  13.48692383648365 -0.98493153245325 -0.96274143014301
 1  13.30537695519552  0.72530110801080 -1.64335425922592
 1  9.19436613421342  2.04444449624962  1.58544379177918
 1  9.92049391099110  2.65115771817182  0.05174208970897
 1  10.56974064736474  2.92228720042004  1.59533568456846
 1  11.81820466176618 -0.74470171877188  2.56349277067707
 1  10.08694366496650  0.03021048004800  2.44088721682168
 1  11.08865976507651  1.12085988278828  3.23134807780778
 1 -10.35229772777278  0.25155506620662 -2.77717511321132
 1 -11.62617167346735  1.22978897739774 -2.62503956925693
 1 -11.57115496059606 -0.56890564186419 -3.26694445204520
 1 -14.49602287558756 -2.01688064066407 -0.86615481928193
 1  8.59119818781878  0.38616884208421  0.35084773097310
 1 -8.72497766666667  1.68804045684568 -0.47668298869887
 1  11.20306604110411 -2.47517901390139 -1.72581543304330
 1  10.05465833223322 -1.55576167786779 -2.36169210321032
 1  11.64479377307731 -1.30316340644064 -3.10047599569957
 1  15.40258943924392  1.09818791859186  0.79774774367437
 1  9.69943972027203 -2.36442952465247 -0.20074651715172
 1 -5.69118357935794 -0.72095924662466  0.56033343014301
 1 -7.30011890999100 -1.17143911711171  1.34631688408841
 1 -6.93657989318932 -1.72465091329133 -0.18757697249725
 1 -6.72350463696370  2.56897569266927 -0.73012621432143
 1  7.14664821382138 -3.93735715831583  1.12564225992599
 1  6.40156750195020 -3.88305349314932 -0.64382397359736
 1  8.05280517791779 -4.43480966556656 -0.23421645434543
 1  6.57246567346735 -0.06848408780878 -0.05004712661266
 1 -4.29897212881288  0.46629629482948 -0.28515457305731
 1  4.82429603310331 -2.49185843884388  0.32781512071207
 1 -4.44757080278028  3.76292427422742 -0.37383703920392
 1  4.37220729692969  0.27304464336434  0.01911269386939
 1 -1.26736649484948  3.81445289198920 -1.82739101100110
 1 -1.06112895129513  3.97223438073808 -0.08653061286129
 1 -2.63166265436544  4.79132154765477 -0.70878917261726
 1 -2.26729560996100  0.49564619011901 -0.44755948594860
 1  2.39711875397540  1.13648763796380 -0.40481749684968
 1  2.26189471717172 -2.29815621802180  1.19974835333533
 1  0.99538460976098 -2.27440673177318  0.00760947584758
 1  2.73007575697570 -2.86911469866987 -0.42507675067507
 1 -0.01361547664766  2.52069190889089 -0.61659865136514
 1 -0.05413830983098 -0.61869203900390  0.06179552455246

