%nproc=4
%Mem=4GB
# td=(NStates=1) CAM-B3LYP/6-31G(d,p) 

TD

0 1
 8 -14.24274014921492 -2.03781216291629  0.50864111941194
 8  14.85205704250425  0.59384697129713  0.27986858275828
 6 -11.65388824842484 -0.02631655675568  1.31696651665167
 6 -10.92412937543754  0.22956572757276  0.07924163696370
 6 -11.96126160676068 -1.52431691609161  1.43283112441244
 6 -12.85193858735874 -2.19806087088709  0.26945109600960
 6 -11.61333662256226 -0.51787926622662 -1.14091958185819
 6  11.08894222482248  0.97468911141114  1.02576285598560
 6 -11.01665313851385  0.49622136093609  2.51562861356136
 6 -12.99237539993999  0.71921756865687  1.30320139693969
 6  12.49389657015702  1.43705313181318  0.79387677387739
 6 -12.45966695259526 -1.55463333113311 -1.00593336203620
 6  13.42563418431843  0.20850852345235  0.46012333123312
 6  10.57590706500650 -0.06436584678468  0.01483506860686
 6 -9.44410317421742 -0.09015186338634  0.00639064666467
 6  12.99468744634463 -0.38504572397240 -0.85687127342734
 6  11.48088117691769 -0.54129917521752 -0.90966602540254
 6  10.27349423502350  2.35017432943294  0.94349706310631
 6  10.88263909640964  0.57469664506451  2.51910247154715
 6 -11.20934543204321  0.07691933343334 -2.49578183638364
 6 -8.47999409970997  0.82467745014501 -0.18221184368437
 6  9.23027795709571 -0.43119089488949 -0.03413332953295
 6  11.16619656515651 -1.38928189498950 -2.11486109080908
 6 -7.11682300520052  0.51416865866587 -0.13509559885989
 6  8.82511896829683 -1.67205700320032 -0.10596573757376
 6 -6.62716413791379 -0.92215097199720  0.07034992359236
 6  7.38046653415342 -2.08351122312231 -0.03102416471647
 6 -6.21274105010501  1.49528310281028 -0.49449130573057
 6  7.05687888208821 -3.62753647584758  0.25387560576058
 6  6.40001727072707 -1.13953424212421 -0.24436677907791
 6 -4.76305027872787  1.47124066326633 -0.46161707510751
 6  4.99462030793079 -1.46383422632263 -0.13369114931493
 6 -3.98137951035104  2.63386641284128 -0.64286547554755
 6 -2.56868730683068  2.76342430003000 -0.65367811561156
 6  4.04506847234723 -0.53677418351835 -0.31329084548455
 6  2.63722077067707 -0.77796226772677 -0.23936888948895
 6 -2.02465101530153  4.09462404500450 -0.81600074747475
 6 -1.71789887538754  1.65517826222622 -0.49401541794179
 6  1.78207675267527  0.39566112761276 -0.34372293419342
 6  2.15904922602260 -2.07055984328433 -0.03816144824482
 6 -0.39296155505551  1.58412973427343 -0.60733409320932
 6  0.31571640244024  0.42092376017602 -0.44504776557656
 1 -11.10015675717572  1.29912169746975 -0.14824666986699
 1 -12.52622609570957 -1.93903391709171  2.21029892459246
 1 -11.06834450405040 -2.19048824382438  1.31725500810081
 1 -12.80159379297930 -3.38758786608661  0.33146800890089
 1 -10.07033243454346  0.01821349694970  2.68140676457646
 1 -10.72661282788279  1.45611868886889  2.53032775467547
 1 -11.67560515281528  0.37555097409741  3.44851902970297
 1 -13.43794499629963  0.80411641394139  0.39765623592359
 1 -13.58297406800680  0.43843545094509  2.14016801880188
 1 -12.63716240164016  1.85213883568357  1.32443292659266
 1  12.73987135383538  1.98174312381238 -0.04442659945995
 1  13.13564799189919  1.56862090099010  1.78578617981798
 1 -12.75999947854786 -2.10253705020502 -2.04463865456546
 1  13.58847843264327 -0.62179192499250  1.00644097999800
 1 -9.01368373407341 -1.06036089508951  0.21971953195320
 1  13.50270541464146 -1.37972101140114 -1.10680583658366
 1  13.21637805530553  0.45891446934693 -1.71947187098710
 1  9.20178687628763  2.35098515031503  1.25147039443944
 1  10.42273413501350  2.69679228162816 -0.19838292279228
 1  10.59467314061406  3.11927689938994  1.58233438443844
 1  11.35747858915892 -0.39802705130513  2.73037945934593
 1  9.72425739633963  0.33756121512151  2.72007513561356
 1  11.38534943404340  1.40757855465547  3.29929487248725
 1 -10.05276777477748  0.13906381708171 -2.54157155285529
 1 -11.49757881418142  1.08182418091809 -2.67871493679368
 1 -11.38727657275728 -0.47328607990799 -3.37576533413341
 1 -14.75841911521152 -1.96830578317832 -0.48425662946295
 1  8.52284135213521  0.34456468166817  0.09488213441344
 1 -8.71659682858286  1.81556320912091 -0.40114543494349
 1  11.18604433893389 -2.47371886788679 -1.67910076157616
 1  10.17507037343734 -1.35257135883588 -2.31070700470047
 1  11.94637393109311 -1.25416850695069 -2.96059200730073
 1  15.27512669296930  1.16556465626563  0.88386635553555
 1  9.45226500280028 -2.52053513521352 -0.35547198969897
 1 -5.50433489448945 -0.93475062576258  0.10899829662966
 1 -7.00584948304830 -1.40248222142214  0.98095034743474
 1 -6.91644787998800 -1.61170961916192 -0.66454466926693
 1 -6.57562984948495  2.46999579467947 -0.50137333903390
 1  6.59040258925893 -3.69704312691269  1.23078277397740
 1  6.43240058525853 -4.15393058085809 -0.58207779897990
 1  8.00432032943294 -4.05251143574357  0.26965393269327
 1  6.84754318121812 -0.17265450485048 -0.23571569346935
 1 -4.25683791539154  0.73634329952995 -0.23207926552655
 1  4.79232283578358 -2.48736798979898  0.04410674987499
 1 -4.52497854355435  3.43733171497150 -0.86473612911291
 1  4.48292836903690  0.56725406430643 -0.42766198359836
 1 -1.25483524172417  4.18554000070007 -1.71063933583358
 1 -1.36166900530053  4.31906906420642  0.08309634983498
 1 -2.75897538563856  4.92775519101910 -0.91204949864987
 1 -2.21309018941894  0.65685231073107 -0.35819054905491
 1  2.33486252835283  1.45850984018402 -0.37493450855086
 1  2.76163469116912 -2.42236863926393  0.86667504600460
 1  1.06517158845885 -1.92317160826083  0.16841555645565
 1  2.65888863826383 -2.74495228242824 -0.75909015201520
 1  0.30104598949895  2.61730156985699 -0.63983097459746
 1 -0.11921481748175 -0.56762693249325 -0.22434308930893

