%nproc=4
%Mem=4GB
# td=(NStates=1) CAM-B3LYP/6-31G(d,p) 

TD

0 1
 8 -14.07105298049805 -2.07440582228223  0.81668192349235
 8  14.75315715251525  0.81214880148015  0.37865846174617
 6 -11.64683754335434  0.09941601650165  1.34420924092409
 6 -10.86609357185719  0.27256002700270 -0.02079836703670
 6 -11.90280576117612 -1.28809329372937  1.60845868716872
 6 -12.65156855035504 -2.16831789658966  0.49849400030003
 6 -11.59693498239824 -0.46036351465146 -1.14755024492449
 6  10.97022035263526  0.91352299479948  1.25508578827883
 6 -10.77285875907591  0.64613635243524  2.56287333803380
 6 -13.02074823722372  0.81799744664466  1.32274335113511
 6  12.51121830233023  1.45085451195120  1.07054444064406
 6 -12.37435842174217 -1.54053192099210 -0.84735750445044
 6  13.42234385528553  0.30652832543254  0.49040635953595
 6  10.73358283258326 -0.08949836003600  0.10460404550455
 6 -9.49972873677368 -0.15674852305231 -0.02267225962596
 6  12.93595157275728 -0.07467468686869 -0.85390097639764
 6  11.49608269706971 -0.38821386668667 -0.90209526832683
 6  10.10269715531553  2.18326763876388  1.40368308170817
 6  10.86714754725472  0.04939411481148  2.59525008630863
 6 -11.50591508900890  0.09129077057706 -2.52253451165117
 6 -8.39976607690769  0.59841482388239 -0.25492911541154
 6  9.29321425072507 -0.40898867466747  0.09814989878988
 6  11.02139208470847 -1.14687765456546 -2.13586319101910
 6 -7.01946326922692  0.42452969476948 -0.28072016131613
 6  8.80918737513751 -1.68972877037704 -0.25230037103710
 6 -6.47506892839284 -0.88636739363936  0.14098698729873
 6  7.45477396489649 -2.12038491049105 -0.11591265356536
 6 -6.24197397339734  1.51932550705070 -0.65975783238324
 6  7.12854604880488 -3.52469619181918  0.10047026522652
 6  6.30943821282128 -1.19688997769777 -0.39866220862086
 6 -4.80018399209921  1.54605814501450 -0.66258717211721
 6  5.01871271717172 -1.52962080498050 -0.41670945114511
 6 -4.02451382378238  2.70511353755376 -0.89040022902290
 6 -2.59888032613261  2.68564652225223 -0.84531727952795
 6  4.01521548704870 -0.64537504360436 -0.42210172657266
 6  2.55817286588659 -0.79643411491149 -0.23716866946695
 6 -1.98424697489749  4.05154973757376 -1.05333448084808
 6 -1.84494157965797  1.49225196959696 -0.64228024442444
 6  1.79289783478348  0.37678924042404 -0.43652221412141
 6  2.13072639373937 -2.14997778507851 -0.05516314841484
 6 -0.40121238013801  1.51611293259326 -0.61680504030403
 6  0.34756958775878  0.41504317211721 -0.38548180898090
 1 -11.03326006750675  1.20355214051405 -0.35182702790279
 1 -12.49869334243424 -1.28772878657866  2.71858975367537
 1 -10.99374704430443 -1.97537673267327  2.10633391599160
 1 -12.14350798439844 -3.14329343664366  0.50113497559756
 1 -10.01812721402140  0.05363703930393  2.57516614051405
 1 -10.41307147374738  1.71823490049005  2.49789451135113
 1 -11.52769036133613  0.50223364236424  3.54335851365137
 1 -13.48382958475847  0.40885688798880  0.44117058735874
 1 -13.64427019761976  0.55506711411141  2.21785578757876
 1 -12.65513419881988  1.85746936873687  1.19783026632663
 1  12.36629399609961  2.31854680418042  0.33834167736774
 1  12.92810723782378  1.73341738063806  2.14566216741674
 1 -12.79164264286429 -2.25932272877288 -1.40468465916592
 1  13.34116370117012 -0.49737948374837  1.10062039793979
 1 -9.31365373107311 -1.09607446644664  0.05465302530253
 1  13.40113525762576 -0.97034007330733 -1.49001415741574
 1  13.14094051155116  0.76726530443044 -1.50724064786479
 1  9.14959165676568  2.06438649044905  1.60364561196120
 1  10.06422828442844  2.64162676507651  0.46893380888089
 1  10.81022469576958  2.71053602530253  1.93505965696570
 1  11.56716955825583 -0.72337958655866  2.63924034543454
 1  9.89221419201920 -0.69869241024102  2.71029415751575
 1  10.88970987008701  0.73590138693869  3.53512845584558
 1 -10.36640913891389  0.11793170387039 -2.71771916761676
 1 -11.79769882618262  1.14505050355035 -2.75003206850685
 1 -11.91685953105310 -0.62211096239624 -3.31978973657366
 1 -14.51790506380638 -2.28909786238624  0.04782657885789
 1  8.50285935393539  0.28606883208321  0.59105175137514
 1 -8.84701987088709  1.73921557435744 -0.66833215361536
 1  11.08474420892089 -2.30499199519952 -1.95359821132113
 1  9.89487235363536 -1.01554765646565 -2.51114704870487
 1  11.66835612931293 -1.02039512961296 -3.05697164526453
 1  15.34095327562756  1.15075317511751  1.14547251615161
 1  9.29674945124512 -2.64154723642364 -0.30582702520252
 1 -5.45659012001200 -0.99818696939694  0.07216461326133
 1 -6.96311520962096 -1.09403137633763  1.09630188258826
 1 -6.80039627482748 -1.67942639083908 -0.45977419221922
 1 -6.77124941144114  2.27931672677268 -0.97577077877788
 1  6.71724527352735 -3.64113753635364  1.07096679237924
 1  6.59026637183718 -4.12913810161016 -0.74574416561656
 1  7.81608150555055 -4.18132431703170  0.34015098239824
 1  6.55855428232823 -0.28164540394039 -0.61125324722472
 1 -4.27860009160916  0.65291495669567 -0.43113917151715
 1  4.84920852435244 -2.62185143814381 -0.18773643444344
 1 -4.58419446514651  3.69792777457746 -1.20017967346735
 1  4.36105618181818  0.36265360426043 -0.41845106250625
 1 -1.14170392859286  3.81145259195920 -1.88370664256426
 1 -1.59111194959496  4.39050620792079 -0.01470343014301
 1 -2.71841132923292  4.70842325782578 -1.56562485618562
 1 -2.36782566296630  0.75640226572657 -0.51406613661366
 1  2.29299834193419  1.15338932813281 -0.71977899299930
 1  2.76569509720972 -2.74333073547355  0.72384076257626
 1  1.01009608090809 -2.32319161026103 -0.01534281938194
 1  2.41057380678068 -2.82299008620862 -1.03470771377138
 1  0.04418030293029  2.56826666636664 -0.97887487898790
 1 -0.09917281328133 -0.68880905070507 -0.13215387038704

