%nproc=4
%Mem=4GB
# td=(NStates=1) CAM-B3LYP/6-31G(d,p) 

TD

0 1
 8 -14.16445232043204 -2.01793017471747  0.65576583188319
 8  14.86405824262426  0.93981156775678  0.19398999489949
 6 -11.72848570817082  0.21257733263326  1.22197701770177
 6 -11.01137810031003  0.27968073907391 -0.13814010121012
 6 -11.93958943954395 -1.30821530593059  1.54914275557556
 6 -12.64413780728073 -2.05748681348135  0.42332648354835
 6 -11.67637292619262 -0.53436091439144 -1.28659414931493
 6  11.16805013561356  0.97802944544454  1.09517979767977
 6 -10.89373084628463  0.81521326012601  2.42191924262426
 6 -13.14112027442744  0.99625527242724  1.22795387218722
 6  12.57729490999100  1.52089151565157  0.88007539373937
 6 -12.37250823672367 -1.61771963976398 -0.93642641134113
 6  13.53235485638564  0.44065173777378  0.44185150405041
 6  10.74446392069207  0.03042363216322 -0.00009642454245
 6 -9.60547931183118 -0.06562941114111 -0.03017300970097
 6  13.03659163676368 -0.14928214761476 -0.83984957125713
 6  11.59252234103410 -0.58375342064206 -0.93903896269627
 6  10.24636152175218  2.24123343534353  1.25906862026203
 6  11.04847568006801  0.18461763716372  2.45918647994799
 6 -11.28008250575058 -0.09573793229323 -2.68289054725473
 6 -8.50707680798080  0.70280526292629 -0.21653527602760
 6  9.28298322762276 -0.34625240104010  0.01873195699570
 6  11.17482742824282 -1.34973794059406 -2.17622722742274
 6 -7.15050637353735  0.45129237103710 -0.15596768606861
 6  8.86697315371537 -1.70088988648865 -0.09655479647965
 6 -6.69511093259326 -0.94191294819482  0.08362125072507
 6  7.36485497299730 -2.10378325032503 -0.02246330863086
 6 -6.20820059605961  1.52969654415442 -0.37102895949595
 6  7.21165435963596 -3.60198392059206 -0.02163194499450
 6  6.40399766876688 -1.22972326102610 -0.19201154355436
 6 -4.82686666036604  1.36922046124612 -0.37459837323732
 6  5.00601144704470 -1.55760360326033 -0.19691747194720
 6 -4.01049242164216  2.56109913611361 -0.44588577757776
 6 -2.60534097219722  2.58325628322832 -0.55157790559056
 6  3.97390135563556 -0.65696620272027 -0.32760227662766
 6  2.51951900050005 -0.89177364886489 -0.28632358495850
 6 -2.05981453165317  3.97505208780878 -0.87550669806981
 6 -1.77144422992299  1.51853459785979 -0.45135115151515
 6  1.77932647764776  0.22732429392939 -0.48579714161416
 6  2.00026334743474 -2.27795058235824 -0.09783741584158
 6 -0.43625588448845  1.55140646194619 -0.49450281008101
 6  0.35678050885089  0.32626429422942 -0.44838809960996
 1 -11.18092483398340  1.21664344964496 -0.50862270747075
 1 -12.53053652675267 -1.40075008870887  2.51590948564856
 1 -11.09307697729773 -1.72317151215122  1.88236151875188
 1 -12.49322295589559 -3.08856796409641  0.40350521262126
 1 -10.04750015131513  0.05074675027503  2.64307293119312
 1 -10.86147631423142  1.86364944194419  2.31764648654866
 1 -11.58306589888989  1.04455787478748  3.31993617141714
 1 -13.67519872167217  0.46690269256926  0.32184865516552
 1 -13.65389115971597  0.81175278267827  2.20142414441444
 1 -12.96308499389939  1.97559118091809  1.01305178847885
 1  12.63293065976598  2.44314926442644  0.14584242744274
 1  12.83862828992899  1.97807184608461  1.80064766596660
 1 -12.69308278687869 -2.30781757825783 -1.77292148284828
 1  13.83649323412341 -0.32022176797680  1.24930526642664
 1 -9.43819618531853 -1.23802866186619  0.12543010301030
 1  13.74242938703870 -0.88730176947695 -1.13659881588159
 1  13.26889330683068  0.58505708360836 -1.59037896169617
 1  9.22300899849985  2.14835488728873  1.47118236563656
 1  10.39487134873487  2.67222982538254  0.26376329182918
 1  10.66820049334933  2.98300327202720  1.82072822382238
 1  11.57017985928593 -0.68401565016502  2.69061548294829
 1  10.01370634123412 -0.12808534953495  2.66657978607861
 1  11.30234113321332  0.87184498129813  3.30385532853285
 1 -10.19482198019802 -0.09984007330733 -2.76900429612961
 1 -11.63093214951495  0.93769976847685 -2.91772883818382
 1 -11.60716856195620 -0.75381413271327 -3.54281203880388
 1 -14.63875714901490 -2.29077803040304 -0.22279048284828
 1  8.62342141014101  0.58016824202420  0.14927757395740
 1 -8.81541671057106  1.71431308410841 -0.30501582198220
 1  11.33405914041404 -2.45386688268827 -1.76668952045205
 1  10.11348421482148 -1.38875497719772 -2.39913584758476
 1  11.80895018871887 -1.01915500560056 -3.02957890599060
 1  15.22808198849885  1.32165026482648  0.97895586448645
 1  9.63949372567257 -2.57387046874687 -0.14514095659566
 1 -5.62341680268027 -1.16861401210121  0.36353375017502
 1 -7.37697659575958 -1.40590256345635  1.01103335573557
 1 -6.99711594679468 -1.65228367656766 -0.66155437023702
 1 -6.62499478597860  2.51414020912091 -0.66400960266027
 1  6.72701625062506 -3.76023944654465  0.95647534323432
 1  6.54569191439144 -4.08116330413041 -0.60345993719372
 1  8.03746364376438 -4.41767795239524  0.04174114141414
 1  6.86496492339234 -0.28266550595060 -0.31004312621262
 1 -4.27559979157916  0.43262292749275 -0.14524058165817
 1  4.71197480098010 -2.74335358835884 -0.24510217101710
 1 -4.66186223192319  3.37002498429843 -0.39120877637764
 1  4.22427250345035  0.42399973887389 -0.39364858225823
 1 -1.77821757995800  4.16584803150315 -1.80491876377638
 1 -1.17095993439344  4.23348050535053 -0.01349330913091
 1 -2.74376386448645  4.88163057855786 -0.77324561826183
 1 -2.10404928532853  0.47649427492749 -0.21300603060306
 1  2.24880392249225  1.18586257545755 -0.50817783288329
 1  2.19338786648665 -2.72900930333033  0.89510788928893
 1  0.80804587588759 -2.19730902200220 -0.38334962006201
 1  2.40860360976098 -2.89301708890889 -0.87394163716372
 1  0.00876676157616  2.54200404010401 -0.42443943544354
 1 -0.16057895389539 -0.43454362416242 -0.42900355535554

