%nproc=4
%Mem=4GB
# td=(NStates=1) CAM-B3LYP/6-31G(d,p) 

TD

0 1
 8 -14.12068794399440 -2.29504788648865  0.40144039933993
 8  14.81743358015802  0.83708129472947 -0.08864826892689
 6 -11.82958581818182  0.11426750165016  1.22505732573257
 6 -11.04473143564356  0.28798156915692 -0.12566885408541
 6 -11.95712119271927 -1.39451393579358  1.47014485578558
 6 -12.64116751025102 -2.14687575237524  0.25919006990699
 6 -11.53278856775677 -0.61922940124012 -1.27082257215722
 6  11.09252258285828  1.08934057655766  1.01045132483248
 6 -11.16439791299130  0.73132487128713  2.43530058075808
 6 -13.25802196459646  0.82813846074607  1.06358743554355
 6  12.53824100460046  1.54635406190619  0.62265965216522
 6 -12.29118010391039 -1.63308117591759 -1.14111688038804
 6  13.48949056995700  0.33771144374437  0.39000631953195
 6  10.63103257755776 -0.06581599179918 -0.00199661456146
 6 -9.57291605550555 -0.01958480668067  0.04421442904290
 6  12.99525750335033 -0.41784900430043 -0.88838442474247
 6  11.50792388118812 -0.72805785108511 -0.79810486928693
 6  10.10455734133413  2.27623693569357  0.91990470387039
 6  11.09793062556256  0.52991216661666  2.43854441574157
 6 -11.07963246074607 -0.10884924342434 -2.67464972317232
 6 -8.53945004530453  0.89372435483548 -0.14477810031003
 6  9.25713064236424 -0.47094487028703  0.07372745654565
 6  11.16832677817782 -1.78874184098410 -1.83410301500150
 6 -7.10279160206021  0.56603384518452 -0.01856394569457
 6  8.84513096949695 -1.70695049254925 -0.22575771677168
 6 -6.63537495899590 -0.90742949984999  0.21992488108811
 6  7.41809029652965 -2.11576444844484 -0.04829589188919
 6 -6.22748252425242  1.62468604310431 -0.25922777937794
 6  7.06875006920692 -3.62542626482648 -0.13713349514952
 6  6.36155342434243 -1.27121741044104 -0.06243858625863
 6 -4.79986396009601  1.54533807300730 -0.20473138653865
 6  5.01180202610261 -1.44134197709771 -0.19844762496250
 6 -4.03005437783778  2.64433745994599 -0.50016120512051
 6 -2.58872931103110  2.66924488208821 -0.52679542734273
 6  4.10283424892489 -0.50184069016902 -0.26325584198420
 6  2.58804585318532 -0.68614308580858 -0.20070502310231
 6 -1.91205975617562  3.98683326592659 -0.60549969736974
 6 -1.79518660416042  1.57817056145615 -0.32619863626363
 6  1.79231777677768  0.48584014551455 -0.21737029892989
 6  2.11770509160916 -2.10755354265427 -0.12781041314131
 6 -0.35493775267527  1.56598792009201 -0.17138049784978
 6  0.40837566836684  0.35792746054605 -0.22109537033703
 1 -11.06787352885288  1.32102388768877 -0.32616446164616
 1 -12.54722819591959 -1.61091110481048  2.40124801950195
 1 -10.79213688328833 -1.68944813981398  1.29639292189219
 1 -12.04520815441544 -3.09912902020202  0.21939680178018
 1 -10.05009041034103  0.31938361396140  2.64511313521352
 1 -10.95405557215722  1.69080215721572  1.96320104200420
 1 -11.60149774207421  0.93020643964396  3.32848702650265
 1 -13.72328353015302  0.56950295259526 -0.02433596329633
 1 -14.03051882248225  0.54220582798280  1.86841084308431
 1 -12.99664835023502  1.95974959675968  0.84766524982498
 1  12.56878424512451  2.03341829132913 -0.28827098389839
 1  12.64238866596660  2.30246428532853  1.48527612881288
 1 -12.52477595619562 -2.29490628712871 -2.06655084578458
 1  13.55136472127213 -0.34016376217622  1.12996333223322
 1 -9.35546791249125 -1.10334519351935  0.44738229822982
 1  13.40023516761676 -1.39236227552755 -0.96600175617562
 1  13.33827024452445  0.04948352625262 -1.91235115891589
 1  9.06415311291129  2.16200625242524  1.26772201960196
 1  9.92198406000600  2.50124272667267  0.01449836533653
 1  10.33451712501250  3.06607157885789  1.49653580458046
 1  11.70124296559656 -0.12690993959396  2.34162058345835
 1  10.09364433503350  0.39367682668267  2.56435956405641
 1  11.20437133623362  1.24032182898290  3.02496743974397
 1 -10.01369386738674 -0.11281137043704 -2.66822421812181
 1 -11.31797085338534  0.96968296679668 -3.01699876517652
 1 -11.35995384048405 -0.83640239153915 -3.51518927652765
 1 -14.47813108640864 -2.46005495809581 -0.49969817361736
 1  8.43692276027603  0.23600382558256  0.36511915811581
 1 -8.82719788868887  1.69994164696470 -0.71091641204120
 1  11.33719945444544 -2.89578107410741 -1.44146699819982
 1  10.09609247564756 -1.67853395509551 -2.22302823682368
 1  11.95591488518852 -1.61607469756976 -2.72980892899290
 1  15.25513469376938  1.36230433023302  0.62274024292429
 1  9.54086386268627 -2.62853593529353 -0.48048449094910
 1 -5.49230369136914 -0.87491464216422  0.45170256705671
 1 -7.04345324342434 -1.46965893909391  0.95145739813981
 1 -6.95032126732673 -1.41115956415642 -0.62419063386339
 1 -6.56908919541954  2.53288208330833 -0.36801000270027
 1  6.53356690569057 -4.11714513711371  0.87273696939694
 1  6.59012635783578 -3.92241742954295 -1.17618720992099
 1  7.92795269266927 -4.50973715831583  0.02037900520052
 1  6.76387481438144 -0.10324756415642 -0.17598972087209
 1 -4.50778300990099  0.61081074627463 -0.01573763136314
 1  4.68712231573157 -2.41975122812281 -0.15505316611661
 1 -4.65106115181518  3.58469645144514 -0.39870952645265
 1  4.44031410761076  0.60066740564056 -0.16542575997600
 1 -0.87915767396740  3.82322376907691 -1.32564083598360
 1 -1.57877071547155  4.34618177547755  0.40178821902190
 1 -2.75322481058106  4.84562697819782 -0.99159745344534
 1 -2.13722260266027  0.62456908240824 -0.25503023302330
 1  2.16554559665967  1.55434942414241 -0.41207822292229
 1  2.56522505020502 -2.52869927232723  0.83890226872687
 1  1.17365243654365 -2.17527681878188  0.13578229312931
 1  2.42823557295730 -2.59928771597160 -0.91877612061206
 1  0.00518640354035  2.73799363906391 -0.29154614611461
 1 -0.19759265526553 -0.52302247204720 -0.21916257125713

