%nproc=4
%Mem=4GB
# td=(NStates=1) CAM-B3LYP/6-31G(d,p) 

TD

0 1
 8 -14.05451132633263 -2.16888527022702  0.69291954725473
 8  14.79983181998200  1.05986357295730 -0.01005040914091
 6 -11.67030989058906  0.05619169406941  1.27670249024903
 6 -10.98648561106111  0.27050982198220 -0.09105539273927
 6 -11.75937141774177 -1.44723920832083  1.40564840614061
 6 -12.70883427692769 -2.18914997979798  0.28939309020902
 6 -11.66587187608761 -0.38506598489849 -1.24396988688869
 6  11.09811314191419  0.92330397289729  1.18827910761076
 6 -10.83087456065607  0.70849258805881  2.38663571427143
 6 -13.06326248864887  0.77769341624162  1.34425550235023
 6  12.49616679717972  1.46605603210321  0.90756814301430
 6 -12.42164315021502 -1.49523739153915 -1.00852362106211
 6  13.49321094199420  0.40454812741274  0.28708602750275
 6  10.75063453775378 -0.07421683188319  0.06007959305931
 6 -9.49503826772677  0.02899005080508 -0.10346033843384
 6  12.95815379297930 -0.15886310571057 -0.93909949624962
 6  11.54115720452045 -0.44288933423342 -0.89660471927193
 6  10.17098398399840  2.16181549354935  1.28057077047705
 6  11.10762159465946  0.35354452985299  2.58271883318332
 6 -11.44278877637764  0.15924756625663 -2.66681894009401
 6 -8.46839293959396  0.86027100950095 -0.17969159165917
 6  9.28445337463746 -0.56837461326133  0.11247133093309
 6  11.14838478397840 -1.26114908170817 -2.21158076277628
 6 -7.12450377327733  0.55694293609361 -0.24018610791079
 6  8.74754121052105 -1.79595939343934 -0.23979912091209
 6 -6.70664208570857 -0.82822157905791  0.07637052565257
 6  7.40796928442844 -2.18963183518352 -0.09868093039304
 6 -6.15642541854185  1.59274284878488 -0.41257311391139
 6  7.05885908010801 -3.66069979217922  0.03298351655166
 6  6.37008427742774 -1.33368365706571 -0.25084742714271
 6 -4.72023599729973  1.42378591779178 -0.42378329172917
 6  4.99758060396040 -1.62282012491249 -0.15842362256226
 6 -3.95573694609461  2.54846787298730 -0.61009219821982
 6 -2.56645708380838  2.57094505210521 -0.67803055085509
 6  3.98428239373937 -0.55026553265327 -0.01545106150615
 6  2.61491854045405 -0.84607907940794  0.04322937033703
 6 -1.91847039723972  3.93642822542254 -1.05207435483548
 6 -1.90454754025403  1.45647839223922 -0.52952896929693
 6  1.68208675367537  0.34438600010001 -0.22736129802980
 6  2.12955627672767 -2.19662244954495  0.27508987688769
 6 -0.42854511341134  1.45234655595560 -0.60478383818382
 6  0.28894372517252  0.34065573337334 -0.31674493529353
 1 -11.16112285378538  1.32886467176718 -0.23838568376838
 1 -12.13637711081108 -1.88727874157416  2.45281317601760
 1 -10.67389505910591 -1.89121831683168  1.40136341894189
 1 -12.38149178277828 -3.18797790509051  0.28897375947595
 1 -9.78372377367737  0.38323999959996  2.30127875177518
 1 -10.96247641424142  1.74437751475148  2.15492021392139
 1 -11.45079267156716  0.57602102110211  3.26294047184718
 1 -13.61191239303930  0.49712571487149  0.41968843914391
 1 -13.30546631723172  0.37438904630463  2.43704770677068
 1 -12.91226991239124  1.98388201000100  1.42969345264527
 1  12.56320368706871  2.16652160166017  0.22552039523952
 1  12.72432685978598  1.94944898379838  1.73373097429743
 1 -12.81498497709771 -1.98426522302230 -2.01704589528953
 1  13.67706729152915 -0.56127587338734  1.05071540744074
 1 -9.11965433113311 -1.09569442844284 -0.08407084708471
 1  13.19818496259626 -1.04060710001000 -1.45356051205120
 1  13.23336975447545  0.78693727162716 -1.73259318311831
 1  9.17981467906791  1.79218927072707  1.38496374377438
 1  10.15079694129413  2.34055665806581  0.17527444294429
 1  10.62988666196620  3.02367733943394  1.77560371137114
 1  11.79370221152115 -0.56427367596760  2.70973739513951
 1  10.15422039263926 -0.04411695269527  2.80394352245225
 1  11.67794869396940  1.15323312011201  3.18273321632163
 1 -10.34954745274528  0.49506941764176 -2.90153754945495
 1 -12.04032308860886  1.06040203870387 -2.81775884118412
 1 -11.74926277137714 -0.48610736203620 -3.54974273187319
 1 -14.78882215551555 -1.87639659225923 -0.23546174997500
 1  8.55570463846385  0.03774399959996  0.60164281048105
 1 -8.83298846774677  1.90824247704771 -0.40284560496050
 1  11.61575731023102 -2.35882737873787 -2.16107895939594
 1  9.97050991739174 -1.23520962266227 -2.20749668366837
 1  11.30540983468347 -0.65897898799880 -3.06370231833183
 1  14.95100428072807  1.71762986278628  0.70048801770177
 1  9.49465924222422 -2.57083016471647 -0.60783722622262
 1 -5.71050551155115 -1.00979813051305  0.35453285008501
 1 -7.41553045114511 -1.27824979817982  0.96745899829983
 1 -7.08493472867287 -1.47219566776678 -0.64832304710471
 1 -6.48178046454645  2.63193198829883 -0.73707690939094
 1  7.05389893889389 -3.73034645724572  1.22117181288129
 1  6.09983732893289 -3.96357154495449 -0.38090768196820
 1  7.85523542094209 -4.38581476607661 -0.28361139383938
 1  6.51979040594059 -0.34531177057706 -0.54172629452945
 1 -4.58551078267827  0.40067973317332 -0.07623368096810
 1  4.64158776227623 -2.60548980198020  0.11476381558156
 1 -4.66540258595860  3.46500448224822 -0.75291494699470
 1  4.25965604180418  0.52566990589059 -0.28700791819182
 1 -1.17401715991599  3.86217766446645 -1.80065833773377
 1 -1.40929376777678  4.22813997129713 -0.19320127992799
 1 -2.64499398749875  4.53171558705870 -1.29854814851485
 1 -2.21920080048005  0.50674730023002 -0.21782651265127
 1  2.05062410451045  1.41817580678068 -0.27777479257926
 1  2.62023055075508 -2.50244664706471  1.02076045454545
 1  0.97384245554555 -2.17694698579858  0.40754946984698
 1  2.38179092849285 -2.76577436463646 -0.61916615961596
 1  0.01789767466747  2.36706654635464 -0.95207219871987
 1 -0.16292918891889 -0.64404457425743 -0.39588024302430

