%nproc=4
%Mem=4GB
# td=(NStates=1) CAM-B3LYP/6-31G(d,p) 

TD

0 1
 8 -14.13830970617062 -1.90209859155916  0.65400565586559
 8  14.70421225802580  1.09202678927893  0.24206480238024
 6 -11.73149600920092  0.17858393329333  1.32111693169317
 6 -10.98381534403440  0.36899967096710 -0.03408969616962
 6 -11.95038051865187 -1.27626211061106  1.58214605590559
 6 -12.66864025752575 -2.05491655645565  0.44224837573757
 6 -11.54945023392339 -0.46874435273527 -1.17129261916192
 6  11.08925225582558  0.97550919341934  1.19577985768577
 6 -10.85103657685769  0.76952869166917  2.43297034773477
 6 -13.14745090749075  0.89382502940294  1.16367744454445
 6  12.45859303980398  1.52935236173617  0.90174756095610
 6 -12.28300928682868 -1.57680554835484 -0.92644541324132
 6  13.46665828672867  0.46152382498250  0.42687000590059
 6  10.58820829512951  0.02704329412941  0.06738032313231
 6 -9.54702346624662  0.00208736053605  0.13167317491749
 6  12.92382035963596 -0.07135435483548 -0.92848843514351
 6  11.45644873367337 -0.40944598989899 -0.84645970477048
 6  10.08649553515352  2.13976328832883  1.27656036943694
 6  11.06444727722772  0.15788496389639  2.52709327062706
 6 -11.30131462896290  0.06158780028003 -2.57144940314031
 6 -8.45524162446245  0.71524650705070 -0.21698532103210
 6  9.13705863516352 -0.39636741254125  0.09067915171517
 6  11.16505645114511 -1.36914988178818 -2.03711331603160
 6 -7.00432175507551  0.50497773957396 -0.16259834913491
 6  8.74768122452245 -1.56649644714471 -0.18384352535254
 6 -6.60964238573857 -0.86098485538554  0.20163305190519
 6  7.40763925142514 -2.10507337933793 -0.13774483678368
 6 -6.18640841684168  1.51855543004300 -0.54079593619362
 6  7.16078927312731 -3.54712843504350 -0.21160094189419
 6  6.36266353535354 -1.13489377807781 -0.14037638003800
 6 -4.76502047574758  1.47232077127713 -0.58231914531453
 6  4.98598944484448 -1.55548339123912 -0.19942772297230
 6 -3.92245361776178  2.45152817901790 -0.67263845284528
 6 -2.50924136223622  2.50768872647265 -0.71223397119712
 6  3.97212117761776 -0.72734324042404 -0.29016853325333
 6  2.57862491109111 -0.93158763026303 -0.27061201380138
 6 -1.88006655685569  3.81649623222322 -0.82607175457546
 6 -1.73558064356436  1.34377712211221 -0.54588060446045
 6  1.77105565056506  0.13707526902690 -0.33123168506851
 6  2.05779910101010 -2.23938672597260 -0.14292192429243
 6 -0.31956421532153  1.32102342364236 -0.57123048284828
 6  0.32720755155516  0.09886155395540 -0.46841010181018
 1 -10.75362210371037  1.40021180648065 -0.28720056525653
 1 -12.60610408350835 -1.37296731043104  2.50636853155316
 1 -11.02553022262226 -1.78841803680368  1.68801208380838
 1 -12.46330996459646 -3.23039214651465  0.47658252035204
 1 -9.85632103340334  0.34225590119012  2.61069969386939
 1 -10.59472963956396  1.79805288228823  2.03578830073007
 1 -11.40919851215122  0.91870528952895  3.47073125092509
 1 -13.62170337213721  0.27396339863986  0.26246271657166
 1 -13.84549031963196  0.59701130853085  2.08869287128713
 1 -12.97400608600860  1.86071969376938  1.01446192949295
 1  12.35234260096009  2.42384733423342  0.12419026222622
 1  12.99509393649365  2.02176621552155  1.88956655785579
 1 -12.69298277687769 -2.13749054555456 -1.79978416911691
 1  13.49585917071707 -0.43412315811581  0.96922725862586
 1 -9.34896726242624 -1.02594745374537  0.65197275727573
 1  13.63497864196420 -1.04614765406541 -1.19780493649365
 1  13.26777319481948  0.72467104500450 -1.51290121392139
 1  9.06248294589459  1.85045509730973  1.66580182758276
 1  10.17851971357136  2.53247584998500  0.25616253175317
 1  10.41161483478348  3.00414538623862  2.08492464346435
 1  11.89456229752975 -0.53606085468547  2.56072249364937
 1  10.10207517811781 -0.29101164216422  2.79957308540854
 1  11.45201610071007  0.89580737753775  3.26693163616362
 1 -10.21043354135414 -0.08804889418942 -2.70967836353635
 1 -11.59705876217622  1.22121812031203 -2.78801586688669
 1 -11.66859470457046 -0.60968972027203 -3.36619437703770
 1 -14.78397167046705 -2.33938289088909  0.07288908510851
 1  8.36559562756276  0.37663788898890  0.54276692289229
 1 -8.85093026192619  1.62957461026103 -0.85461078147815
 1  11.20679641414142 -2.41738323432343 -1.89224207570757
 1  10.14090695709571 -1.15919202090209 -2.51443737773777
 1  11.99815910961096 -1.19865295539554 -2.84936088418842
 1  14.85011419171917  1.46818491829183  1.20481845074507
 1  9.52743251955196 -2.20135321702170 -0.50379682218222
 1 -5.63869833083308 -0.99065621632163 -0.00456305950595
 1 -7.09299819791979 -1.23849582278228  1.24246649904991
 1 -7.14556079127913 -1.45691413961396 -0.57593580838084
 1 -6.68638092459246  2.32822161726173 -0.94227742944294
 1  6.98058160716072 -4.07773119571957  0.74749444514451
 1  6.14038138333833 -3.68492368016802 -0.89343893509351
 1  8.16307620502050 -4.15363154775478 -0.38191122382238
 1  6.49019744664466 -0.15144238363836 -0.18601072297230
 1 -4.33078531013101  0.50481014621462 -0.15385144274427
 1  4.72754635813581 -2.61505075807581  0.11645398459846
 1 -4.27397344304430  3.55043302510251 -0.92407206270627
 1  4.30253032923292  0.24670200910091 -0.32581179857986
 1 -1.27837759595960  3.70879232593259 -1.70045831773177
 1 -1.25374821322132  4.07934509180918  0.11034907510751
 1 -2.48455794389439  4.62229464496450 -1.09166746044604
 1 -2.02899177957796  0.29888651415142 -0.59818454845485
 1  2.41418046014602  0.96380036923692 -0.66000301540154
 1  2.65279380708071 -2.76615301770177  0.74116249474948
 1  0.95712078337834 -2.43631292239224 -0.12952423752375
 1  2.13081583098310 -2.93641142834283 -1.08222246524652
 1  0.15075095999600  2.25332517221722 -0.79740673217322
 1 -0.21435433143314 -0.83315348514852 -0.27019767476748

