%nproc=4
%Mem=4GB
# td=(NStates=1) CAM-B3LYP/6-31G(d,p) 

TD

0 1
 8 -14.04480035523552 -2.23386176787679  0.08822907820782
 8  14.76615845264526  0.71705929252925 -0.08056746084608
 6 -11.82145500510051 -0.10084400950095  1.36005082508251
 6 -10.95659262176218  0.32340511151115  0.07056076887689
 6 -11.99580506110611 -1.58363284768477  1.29189703100310
 6 -12.66064945844585 -2.19778084288429 -0.02532838193819
 6 -11.42610789968997 -0.36664414271427 -1.24052954285429
 6  11.17102043264326  0.97440908340834  0.96395667536754
 6 -11.13028450165016  0.37225896469647  2.68374542524252
 6 -13.12499866226623  0.66466211311131  1.16813789058906
 6  12.54740192069207  1.46592601910191  0.61826921312131
 6 -12.06868785468547 -1.55260312811281 -1.18167093579358
 6  13.47112873377338  0.32452012461246  0.26017333623362
 6  10.64452392669267 -0.04155356555656 -0.08168458335834
 6 -9.55193395729573 -0.05535838403840  0.17256726432643
 6  13.04599257685769 -0.45247246664666 -0.98538412471247
 6  11.46693978277828 -0.65575062036204 -0.90719577837784
 6  10.25525241084108  2.20038935093509  1.06211892529253
 6  11.21251208370837  0.40377955335534  2.36316687798780
 6 -11.21523602110211  0.32789443094309 -2.50718297649765
 6 -8.58908500880088  0.88974395679568  0.14022039953995
 6  9.28000292959296 -0.36993476927693  0.11008109190919
 6  11.05751569706971 -1.67404037083708 -1.98226783148315
 6 -7.15088641154115  0.60093733553355  0.07703561426143
 6  8.77567402380238 -1.62420221772177  0.13297815681568
 6 -6.54591601310131 -0.82923168006801  0.07869075767577
 6  7.41797028452845 -2.08511138313831  0.13544248194819
 6 -6.28102787878788  1.60145371987199 -0.11070292689269
 6  6.97907110131013 -3.51560528272827  0.48305852405241
 6  6.33487075607561 -1.23785407410741 -0.20241258365837
 6 -4.81160513421342  1.46685022422242 -0.42295320872087
 6  4.93430427632763 -1.50547839073907 -0.02914069426943
 6 -4.09383075547555  2.62145517171717 -0.63640482948295
 6 -2.61850228832883  2.71591954955496 -0.67120986878688
 6  3.99880384588459 -0.54495500160016 -0.43957347374737
 6  2.62710975957596 -0.68014248574857 -0.25758071067107
 6 -2.09190774097410  4.02373695629563 -1.14703385078508
 6 -1.78359544504450  1.67574031843184 -0.28309432583258
 6  1.77341588658866  0.41269283078308 -0.51587014891489
 6  2.16869019011901 -1.92504529182918  0.08926129402940
 6 -0.41758401730173  1.51021234253425 -0.48027138693869
 6  0.37866269706971  0.49397106490649 -0.14914817561756
 1 -10.81288803030303  1.34989677497750  0.20200835563556
 1 -12.58608208130813 -1.70596060976098  2.15541343604360
 1 -10.99561723132313 -1.94731392639264  1.53223650625062
 1 -12.32032566616662 -3.26692579987999  0.02196705880588
 1 -10.34753015431543 -0.30486881128113  2.78762738663866
 1 -10.75582574917492  1.32583566056606  2.67199192109211
 1 -11.81427902020202  0.22939635863586  3.57573175097510
 1 -13.49784098589859  0.28027402970297  0.18074454475447
 1 -13.98860463106311  0.38826043344334  2.07115111711171
 1 -13.08691737713771  1.87877149894989  1.36151663496350
 1  12.64008137483748  2.16075102460246 -0.20963312011201
 1  12.96123055015502  1.87303134203420  1.53436103730373
 1 -12.36285976457646 -1.93474027052705 -2.22444663536354
 1  13.24506409120912 -0.48868861466147  1.08029836573657
 1 -9.11376374207421 -1.13194805380538  0.50437799779978
 1  13.68381352545255 -1.06053909320932 -1.25912106810681
 1  13.28450486798680  0.13034161206121 -1.83112303610361
 1  9.38515521312131  1.96921697349735  1.62407765516552
 1  9.99599146074607  2.76037864026403  0.09942685818582
 1  10.64778845214521  2.88361333303330  1.62752890389039
 1  11.81158399969997 -0.65862311091109  2.38564498589859
 1  10.29780475107511  0.17229468846885  2.92782591069107
 1  11.68019891899190  1.03248104490449  3.15123006600660
 1 -10.05912841084108  0.44991490219022 -2.71517891359136
 1 -11.66897595389539  1.33933993249325 -2.42711977727773
 1 -11.47466531163116 -0.20531928322832 -3.32630038763876
 1 -14.39438271157116 -2.66741569416942 -0.70634883868387
 1  8.44438350635063  0.45564578977898  0.06896954315432
 1 -8.90647581648165  1.81144279707971 -0.11429675007501
 1  11.20791652615262 -2.70313180918092 -1.63288614011401
 1  9.88157102350235 -1.65121122282228 -2.00336627062706
 1  11.53727302100210 -1.43261635173517 -2.96327227532753
 1  15.28618779907991  1.11340944074407  0.68106607550755
 1  9.63274305060506 -2.65077815951595  0.25204876237624
 1 -5.38579304030403 -0.89003615431543  0.13607100390039
 1 -6.91673057115712 -1.45192716591659  0.95628788118812
 1 -7.00116635183518 -1.70461891009101 -0.53329154395440
 1 -6.75516780328033  2.63999279437944 -0.06658986068607
 1  6.75781933093309 -3.48271169376938  1.54980467616762
 1  6.34288163336334 -3.89670485828583 -0.20640023122312
 1  8.04340423782378 -3.99838602320232  0.47604457175718
 1  6.62200062696270 -0.22860009940994 -0.48036015791579
 1 -4.31554378597860  0.58082774797480 -0.20015607320732
 1  4.55486909040904 -2.48634788778878  0.27638997819782
 1 -4.63906995269527  3.48111609340934 -0.88606826232623
 1  4.47238731493149  0.40037737663766 -0.89804902230223
 1 -1.47487724592459  4.10696214291429 -2.20958923082308
 1 -1.25293813221322  4.42510966826683 -0.35123708350835
 1 -2.79313880198020  4.73507592309231 -1.23729202290229
 1 -2.19775865626563  0.87564418991899  0.50376564656466
 1  2.44190323242324  1.20697468666867 -0.88580559565957
 1  2.30375890359036 -1.95357175957596  1.29275765426543
 1  1.04874994629463 -2.16397568866887 -0.19557084218422
 1  2.81996474587459 -2.84691247844784 -0.31953619661966
 1 -0.08433254835484  2.49541938163816 -0.87020401190119
 1 -0.06051894789479 -0.35549571937194  0.14322366736674

