%nproc=4
%Mem=4GB
# td=(NStates=1) CAM-B3LYP/6-31G(d,p) 

TD

0 1
 8 -14.22159803500350 -2.15899428112811  0.47952820812081
 8  14.99056089288929  0.47160474707471  0.31819241514151
 6 -11.72158501810181 -0.02149607470747  1.26051087108711
 6 -11.09022598509851  0.22165493649365 -0.09500578777878
 6 -12.00829631023102 -1.57806229062906  1.37245508680868
 6 -12.80297369086909 -2.26437750255026  0.21931608250825
 6 -11.70815610451045 -0.50111759005901 -1.17061255115512
 6  11.20609393999400  0.97589923242324  0.94047432713271
 6 -10.91713318651865  0.37777951675168  2.58357540824082
 6 -13.01845800820082  0.74216986388639  1.34568564536454
 6  12.68422560306031  1.34369379587959  0.74603198939894
 6 -12.47217820372037 -1.57610547834783 -1.12765553425343
 6  13.63439506040604  0.16970464306431  0.51988930783078
 6  10.81649112341234 -0.03015242544254 -0.08474488938894
 6 -9.54481324522452 -0.08967181538154 -0.02440243264326
 6  13.23912188978898 -0.41808902830283 -0.86820240654065
 6  11.67480056885688 -0.59635468076808 -1.05656071487149
 6  10.32571945754575  2.31334064606461  0.78240095349535
 6  10.98720955345535  0.29820899629963  2.37515807710771
 6 -11.36367086458646  0.12173381488149 -2.61653391159116
 6 -8.57746384668467  0.84151913431343 -0.27168079057906
 6  9.27623255255526 -0.41707948374837 -0.21752166836684
 6  11.26199614511451 -1.55949891669167 -2.12533213791379
 6 -7.16225754865487  0.52288953075308 -0.16275836513651
 6  8.79689614601460 -1.64891468896890 -0.18215335633563
 6 -6.74061548304831 -0.86546530343034  0.15390827942794
 6  7.42405089258926 -1.98949182118212  0.06535547324732
 6 -6.24550432643264  1.48549212371237 -0.40239209580958
 6  7.06792998719872 -3.42609633183318  0.14563478167817
 6  6.44176144514451 -1.07730801950195 -0.12154449684969
 6 -4.87271124482448  1.47896143534353 -0.43716462986299
 6  5.05351619751975 -1.37947579047905 -0.07224500470047
 6 -4.12273364576458  2.61344437063706 -0.65587677667767
 6 -2.65082552065206  2.73154111171117 -0.69674242204220
 6  4.00801476697670 -0.37009751585159 -0.07800731713171
 6  2.55399244784478 -0.59511398289829  0.01585663306331
 6 -2.03550210041004  4.06496107870787 -0.90720986838684
 6 -1.88591567706771  1.66031877627763 -0.47906392279228
 6  1.68511705670567  0.53736529802980 -0.10930949284929
 6  2.08299162026203 -2.06304909220922  0.27521988988899
 6 -0.42960521942194  1.66568789008901 -0.48739209900990
 6  0.26952178297830  0.52400406820682 -0.24205746654665
 1 -11.07286402790279  1.25765755105511 -0.39172101730173
 1 -12.42342581568157 -1.76462647634763  2.47262515721572
 1 -11.01887955755575 -2.22774196919692  1.53768705130513
 1 -12.42279591319132 -3.24615372267227  0.21427628972897
 1 -9.80753615491549 -0.11606993139314  2.53677230113011
 1 -10.98189835643564  1.58447152415242  2.78242296419642
 1 -11.45602319461946 -0.14950153115311  3.52053623142314
 1 -13.87862906470647  0.58756475877588  0.58318478877888
 1 -13.47607337793779  0.85228683608361  2.24567856985699
 1 -12.63345203060306  1.93471709350935  1.05736621992199
 1  12.96127349404940  2.24488943844384  0.03085092829283
 1  13.08933336043604  1.68699273817382  1.80495809700970
 1 -13.00707418601860 -1.90624742124212 -2.00674486518652
 1  13.34511409620962 -0.41178092389239  1.34681501740174
 1 -9.46344871057106 -1.14793965296530  0.03843140314031
 1  13.61828697279728 -1.50824386368637 -0.71752690869087
 1  13.65174159165917  0.21826040394039 -1.64448437223722
 1  9.28849554715472  2.27675772757276  0.99487473487349
 1  10.45646750835084  2.80881348374837 -0.22579566406641
 1  10.54018769206921  3.07490246194619  1.53709986098610
 1  11.77586042734274 -0.47411466006601  2.72014843624362
 1  9.80507547814781  0.12628008700870  2.21004413251325
 1  11.06237713681368  0.99405720252025  3.18522346534653
 1 -10.42072457045705 -0.13229331863186 -2.55600299599960
 1 -11.97177623392339  1.09152515101510 -2.71248831413141
 1 -11.59194703980398 -0.56464521582158 -3.57692545014501
 1 -14.68743201650165 -2.38038699129913 -0.39070727452745
 1  8.78643771177118  0.40909113431343 -0.06392374617462
 1 -8.85389055795580  1.88454010681068 -0.31463678407841
 1  11.62895863036304 -2.51892338833883 -2.01704455595560
 1  10.27499036543654 -1.31747784948495 -2.41505743974397
 1  11.99069836353635 -1.48351144124412 -3.10458640674067
 1  15.28155733603360  0.93825192499250  0.94714268316832
 1  9.53759353565357 -2.41703478517852 -0.38137457995800
 1 -5.69461392239224 -0.85275242594259  0.28245564236424
 1 -7.26520541864186 -1.13373534673467  1.06588884128413
 1 -7.12410864606461 -1.60588903710371 -0.62159037383738
 1 -6.60412269876988  2.45250404550455 -0.45317851955196
 1  6.42601615061506 -3.72559598219822  0.98881857755776
 1  6.42267961316132 -3.83723891169117 -0.77276686788679
 1  7.93699359675968 -4.03206939153915  0.47006397369737
 1  6.75658408530853  0.00909366996700 -0.09255137703770
 1 -4.29578180978098  0.48783844904490 -0.21087714531453
 1  5.01652525602560 -2.44810406340634  0.11043338253825
 1 -4.58108415411541  3.49529751155116 -0.85294494999500
 1  4.33667374357436  0.57699503840384 -0.29154837223722
 1 -1.72196195439544  4.31433287998800 -1.97935620752075
 1 -1.11215405380538  3.97249440674067 -0.07434939473947
 1 -2.78573806190619  4.93569598509851 -0.53180147384738
 1 -2.40709959035904  0.73186981248125 -0.27894262426243
 1  2.36184522662266  1.31088507770777 -0.29746676177618
 1  2.63534206190619 -2.59805620802080  0.96946532503250
 1  0.92164723602360 -1.95126441754175  0.57539625452545
 1  2.26371912131213 -2.38749653685369 -0.87735197819782
 1  0.28820470537054  2.50345018471847 -0.60690768226823
 1 -0.25345824182418 -0.43109327912791 -0.19379003400340

