%nproc=4
%Mem=4GB
# td=(NStates=1) CAM-B3LYP/6-31G(d,p) 

TD

0 1
 8 -14.06779265446545 -2.00261864356436  0.44012426772677
 8  14.88897073387339  0.62471005760576  0.20950154605461
 6 -11.72897575717572 -0.05354928002800  1.27103192319232
 6 -10.91696865936594  0.24500727172717 -0.00317660486049
 6 -11.82318779937994 -1.59705418981898  1.44469231053105
 6 -12.68716210971097 -2.26041710651065  0.25534968586859
 6 -11.55208049694970 -0.29617709600960 -1.18622411231123
 6  11.17829115971597  0.96642828532853  1.05042532223222
 6 -10.85973744694469  0.38118985778578  2.45104215491549
 6 -13.13469963236324  0.60568621552155  1.42541361816182
 6  12.68349553005300  1.36037546404640  0.87339472567257
 6 -12.28878986488649 -1.46838470627063 -0.98273104180418
 6  13.52904452535254  0.22535020762076  0.46266358525853
 6  10.68689816411641 -0.00922033223322 -0.01560797569757
 6 -9.54202296619662 -0.02277512571257  0.03710371797180
 6  13.08422640024002 -0.42513973337334 -0.93850943724372
 6  11.50058314711471 -0.51472651795180 -0.94793985278528
 6  10.28349523512351  2.25036434843484  0.92506521992199
 6  10.95114594709471  0.34131330673067  2.43580414171417
 6 -11.30696519401940  0.24489613111311 -2.59196145434543
 6 -8.50764686498650  0.80758574097410 -0.05107873037304
 6  9.25920084938494 -0.36677445324532  0.03885396919692
 6  11.12706265176518 -1.47206017281728 -2.02727233193319
 6 -7.11580290319032  0.47385462726273 -0.07063915321532
 6  8.79678613501350 -1.68033783128313 -0.01368650965097
 6 -6.70035145664566 -0.93483224012401  0.14321721032103
 6  7.38846733423342 -2.06530940294029  0.00786972467247
 6 -6.31417119311931  1.57345091959196 -0.23771562816282
 6  7.19140233443344 -3.52536625882588  0.29777999619962
 6  6.32831010001000 -1.18811910061006 -0.21207354975498
 6 -4.90887486118612  1.57555109430943 -0.45298621202120
 6  4.90233107900790 -1.38954679757976  0.00316253605361
 6 -4.09653102550255  2.66829985618562 -0.53578476747675
 6 -2.73307374547455  2.66719467706771 -0.73854660246025
 6  4.04794876037604 -0.43035354145415 -0.46938645504550
 6  2.61812886148615 -0.67964243574357 -0.27075202780278
 6 -2.16217476767677  4.03195777837784 -0.98860800820082
 6 -1.81012809830983  1.59749249364936 -0.73146916331633
 6  1.77919646464646  0.38184974647465 -0.50484904680468
 6  2.06249957105711 -2.02846563386339  0.19297166506651
 6 -0.40426268516852  1.52448376967697 -0.73314667446745
 6  0.39193402420242  0.43035470327033 -0.47745100590059
 1 -10.97552429392939  1.36342812811281 -0.01783362856286
 1 -12.43480695379538 -1.87327734143414  2.20195809050905
 1 -10.88130580018002 -2.01688088308831  1.61320460306031
 1 -12.54213784738474 -3.38901800910091  0.20500536263626
 1 -9.89945534683469 -0.28372669706971  2.49822844674467
 1 -10.44351451805181  1.41336441344134  2.42626734863486
 1 -11.37702529482948  0.53162658165817  3.47552172997300
 1 -13.65455665746575  0.48105410771077  0.46724319461946
 1 -13.71716748734874  0.23655526292629  2.23448745074508
 1 -12.98531721712171  1.76477009880988  1.38492897619762
 1  12.77805517221722  2.20614556405641  0.13459130233023
 1  12.94587901500150  1.72567660656066  1.93647124832483
 1 -12.82603608220822 -1.84532132863286 -1.92446663736374
 1  13.61263084788479 -0.57776752255226  1.15812614851485
 1 -9.18159052475248 -1.03883874287429 -0.05262770277028
 1  13.57442258635863 -1.49790282958296 -0.65341049704970
 1  13.49612603010301  0.16513509140914 -1.86162608640864
 1  9.13687038463846  2.04738479027903  1.20024527192719
 1  10.27812967456746  2.87845044744474  0.07074398989899
 1  10.54951862516251  3.17587255895589  1.72780893189319
 1  11.61122396369637 -0.37563481208121  2.60429685108511
 1  10.07917288788879 -0.06503904490449  2.60383351145115
 1  11.13239413851385  1.06137393419342  3.19489443244324
 1 -10.14419691769177  0.18836874757476 -2.78984638033803
 1 -11.94614367066707  1.12228822732273 -2.60420748604861
 1 -11.69450729582958 -0.44134288558856 -3.32596035363536
 1 -14.70696396969697 -2.26988594119412 -0.40679888368837
 1  8.84634370237024  0.58685891109111  0.34419706590659
 1 -8.89265443434343  1.85476712951295 -0.28529384978498
 1  11.42286802130213 -2.43218471447145 -1.63499635113511
 1  10.04940780718072 -1.32277837953795 -2.30645657965797
 1  11.87363665736574 -1.50974406450645 -2.78620456855686
 1  15.36126530683068  0.89479757955796  1.09489745864586
 1  9.46464624092409 -2.23110619231923 -0.38239468196820
 1 -5.64436889788979 -1.28844599529953  0.48106550335034
 1 -7.24228312641264 -1.55695766896690  0.95543779617962
 1 -7.04362059725973 -1.53042149034903 -0.64461267606761
 1 -6.82999528602860  2.48204699979998 -0.42734593629363
 1  6.60124367336734 -3.60372379497950  1.34045374107411
 1  6.73588093329333 -4.12128731653165 -0.62223181438144
 1  8.02368226562656 -4.02656884148415  0.38222518981898
 1  6.36718514541454 -0.12070931033103 -0.41806392829283
 1 -4.62571480308031  0.61382104730473 -0.51048710631063
 1  4.47812141564156 -2.38097735073507  0.27987032623262
 1 -4.83635968166817  3.44355233703370 -0.71588124362436
 1  4.38052812901290  0.63342068096810 -0.64365358275828
 1 -1.47813757195720  4.10018146484648 -1.79335760766077
 1 -1.61144398279828  4.21802896019602  0.02109014921492
 1 -3.05832532063206  4.70592300780078 -0.99136743044304
 1 -2.15137401780178  0.46732335783578 -0.41152588258826
 1  2.25238428052805  1.37510149934993 -0.63490050515052
 1  2.27809633733373 -2.36260266266627  1.29421780028003
 1  0.95696076737674 -1.96565585668567  0.12352106700670
 1  2.32833558295830 -2.82170995819582 -0.44909915291529
 1  0.08351423632363  2.50507034673467 -0.87820481198120
 1 -0.09349224522452 -0.66113628342834 -0.47247790279028

