%nproc=4
%Mem=4GB
# td=(NStates=1) CAM-B3LYP/6-31G(d,p) 

TD

0 1
 8 -14.19712558775877 -1.92539092079208  0.53033328862886
 8  14.83417525432543  1.07832541914191  0.23138373427343
 6 -11.80716357595760  0.06871294619462  1.31588640864086
 6 -11.01322828532853  0.31556432743274 -0.08263455065507
 6 -11.98450393099310 -1.39933441784178  1.42589043034303
 6 -12.82667606110611 -2.01616268106811  0.35275942684268
 6 -11.68972426132613 -0.30675815411541 -1.22437792769277
 6  11.08725205580558  0.97734937743774  1.07358763846385
 6 -10.96661813501350  0.57401914071407  2.60855790649065
 6 -13.09824598699870  0.94994064096410  1.32717379417942
 6  12.48784596509651  1.55803523002300  0.85186257245725
 6 -12.33522450835084 -1.51381924972497 -1.00246301500150
 6  13.55827744864486  0.50113778637864  0.45072239113911
 6  10.67748722302230  0.01261185098510 -0.00559697459746
 6 -9.54960372427243 -0.02219506770677  0.04406441404140
 6  12.98674665226523 -0.04659187858786 -0.86265185148515
 6  11.57804089288929 -0.47970301560156 -0.82846790559056
 6  10.06221310691069  2.09643895589559  1.08693140654065
 6  11.06275710821082  0.24120329572957  2.37873843514351
 6 -11.40275477297730  0.07116875837584 -2.62933519171917
 6 -8.54202030233023  0.81927691009101 -0.02424604710471
 6  9.18818374767477 -0.39575735153515 -0.00804072027203
 6  11.24144408990899 -1.38358132493249 -2.00776038073807
 6 -7.06616793969397  0.54976221802180 -0.15410750005000
 6  8.81976843324333 -1.61615141264126 -0.00688582958296
 6 -6.70358177967797 -0.96557531443144 -0.03083019441944
 6  7.46847533503350 -2.13691656365637 -0.07792885518552
 6 -6.21388116411641  1.53231680618062 -0.26902875947595
 6  7.16627982218222 -3.61743546574657  0.17170738893889
 6  6.44614188318832 -1.28695898459846 -0.33298564096410
 6 -4.77230120382038  1.44061760096010 -0.47635854925493
 6  4.96556740264026 -1.63487133003300 -0.15228300850085
 6 -3.98377975037504  2.49868289448945 -0.65496668566857
 6 -2.60578101620162  2.59887784538454 -0.65876862466247
 6  4.02245621112111 -0.63323382948295 -0.44578409480948
 6  2.63749079767977 -0.92068654015402 -0.21390634323432
 6 -1.82607115731573  3.85939052165216 -0.86516566396640
 6 -1.79122620812081  1.45975872027203 -0.43643966036604
 6  1.79706825182518  0.23010457195720 -0.52062062396240
 6  2.19161248234823 -2.30051283858386  0.09890225812581
 6 -0.37259951885189  1.35821714301430 -0.54669802960296
 6  0.43935876667667  0.29034070187019 -0.56724998579858
 1 -11.11212795429543  1.48578036333633 -0.20780262546255
 1 -12.49673314641464 -1.75232524622462  2.36312420712071
 1 -10.95878354795479 -1.84502369736974  1.51673495609561
 1 -12.67010064366437 -3.17661676897690  0.11315617771777
 1 -10.16089149044905  0.04236591219122  2.90617924182418
 1 -10.57916808340834  1.63716679367937  2.40536525842584
 1 -11.76165375767577  0.85340875987599  3.40514469226923
 1 -13.75947714951495  0.69422542484248  0.45210168046805
 1 -13.47066283688369  0.67796940434043  2.42820682268227
 1 -12.74327301270127  1.99264288608861  1.29968045134513
 1  12.62819018571857  2.16484143364336 -0.07567972477248
 1  12.69386381348135  2.13162720162016  1.77471507270727
 1 -12.60629410801080 -2.13736053255326 -1.85367955865587
 1  13.65105469026903 -0.20084983078308  1.14782511841184
 1 -9.46103846954695 -1.01112597159716 -0.14965740574057
 1  13.49540468456846 -0.95018805810581 -1.13936909290929
 1  13.29509592709271  0.48138671657166 -1.66121604540454
 1  8.94269096669667  1.60815086688669  1.17959320672067
 1  10.04952681428143  2.58654125652565 -0.02296538103810
 1  10.44207788108811  3.02836780848085  1.73270942194219
 1  11.79623246454646 -0.54709195779578  2.29351577297730
 1  10.02744771537154 -0.11412395339534  2.58449157725773
 1  11.33791469056906  0.75752354915492  3.31015595859586
 1 -10.37714021202120  0.42906281698170 -2.73023041874187
 1 -11.92475153145315  1.03013901240124 -2.93937100240024
 1 -11.72934077917792 -0.74764351565156 -3.23959171677168
 1 -14.64639791309131 -2.15970492309231 -0.26987519131913
 1  8.38140720872087  0.21924214941494  0.22005465166517
 1 -8.70057522642264  1.85623727652765 -0.12168748914892
 1  11.74527026152615 -2.32182367836784 -2.03921677317732
 1  10.17907077347735 -1.39670577227723 -1.82274820882088
 1  11.46943623732373 -0.91599468956896 -2.87173312141214
 1  15.00463964426443  1.60344844464446  1.07550551945195
 1  9.58896867316732 -2.41861494319432  0.25257881538154
 1 -5.68694315531553 -1.07639479017902  0.05257265406541
 1 -7.20037893599360 -1.40880285348535  0.80689294169417
 1 -7.08208444364436 -1.56268471667167 -0.87679589438944
 1 -6.56931921842184  2.54182297739774 -0.41137433913391
 1  6.55874942394239 -3.85928935153515  1.12427212291229
 1  6.67808515371537 -4.16225141294129 -0.67714730593059
 1  8.37543744114411 -3.94961114571457  0.46520348764877
 1  6.85733416031603 -0.36573381278128 -0.41104322622262
 1 -4.26517874947495  0.36459612481248 -0.39566562416242
 1  4.66674027752775 -2.57995724872487 -0.06608426922692
 1 -4.38994504020402  3.56821480328033 -1.02215187068707
 1  4.41837191339134  0.17994533343334 -0.81446066346635
 1 -1.33963372157216  3.78715016171617 -1.81276954885489
 1 -1.00237307570757  3.95140229752975 -0.15237719751975
 1 -2.63140262836284  4.61747416291629 -0.88095638933893
 1 -2.30140902130213  0.29618624412441 -0.36553128312831
 1  2.45273431553155  1.06580056925693 -0.68112512761276
 1  3.17252578027803 -3.08597499989999  0.75253363186319
 1  0.94172924422442 -2.18589788088809  0.75249396429643
 1  1.77661041044104 -2.85908369556956 -1.10493473647365
 1 -0.01702581768177  2.36989682938294 -0.82743973547355
 1 -0.12979587558756 -0.70511068086809 -0.38127878287829

