%nproc=4
%Mem=4GB
# td=(NStates=1) CAM-B3LYP/6-31G(d,p) 

TD

0 1
 8 -14.19487536273627 -1.81634001570157  0.49217947324732
 8  14.82873471027103  0.76963455005501  0.31441203710371
 6 -11.75738859845985  0.13163923882388  1.28380320032003
 6 -10.94715167766777  0.30146291729173 -0.00030631783178
 6 -12.02922840344034 -1.37104158855886  1.42259010031003
 6 -12.79080247374737 -2.04455552035204  0.21927607850785
 6 -11.51983727262726 -0.43327080538054 -1.19027451735174
 6  11.01265459605960  0.97265890839084  1.15641592129213
 6 -10.92451392459246  0.65990772957296  2.54165121582158
 6 -13.08997515991599  0.92194784168417  1.19656073287329
 6  12.54994217471747  1.50166959345935  0.87534492069207
 6 -12.31231221712171 -1.42360022782278 -1.10934370307031
 6  13.47819944084408  0.36773444604460  0.39318663756376
 6  10.54508398269827 -0.01598100830083 -0.07795421032103
 6 -9.42845160906091 -0.11481432963296  0.12653266086609
 6  12.95075305290529 -0.12407962736274 -1.01733732003200
 6  11.51976506530653 -0.47757280258026 -0.91898695749575
 6  10.13128001360136  2.17925723772377  1.30486319971997
 6  10.98835966846685  0.27055623102310  2.40724128542854
 6 -11.12384688218822 -0.01350970947095 -2.56418867706771
 6 -8.36774287458746  0.73169815221522 -0.15579920242024
 6  9.15899082838284 -0.33722149794980  0.09309939373937
 6  11.10387033253325 -1.19229219601960 -2.28257786248625
 6 -7.05006632953295  0.39424666646665 -0.05911800110011
 6  8.86035249164916 -1.66051584908491 -0.23020816181618
 6 -6.63224464596460 -0.98141689858986  0.40310319891989
 6  7.44860334783478 -2.07146001800180 -0.21875293759376
 6 -6.20319009500950  1.42402597709771 -0.35737759435944
 6  7.15809900410041 -3.53262698489849 -0.03523330513051
 6  6.34787205620562 -1.21605189388939 -0.28588093049305
 6 -4.82002597629763  1.40313385258526 -0.34429534293429
 6  4.98148899479948 -1.54605244814481 -0.11268904910491
 6 -3.98885025742574  2.49563258945895 -0.75203639263926
 6 -2.54855529362936  2.52998095569557 -0.73374612241224
 6  4.00150411591159 -0.52699320542054 -0.34286380278028
 6  2.64632168076808 -0.75462993449345 -0.04534948754875
 6 -1.95145369556956  3.81748633123312 -1.05847499489949
 6 -1.75575266076608  1.34398714311431 -0.58892490889089
 6  1.71880042504250  0.25524708620862 -0.30036859875988
 6  2.09576289738974 -2.08121090839084  0.28200056795680
 6 -0.41114337323732  1.40143146444644 -0.59687304710471
 6  0.33649848064806  0.32168383618362 -0.19268252905291
 1 -10.88896563806381  1.39071085638564 -0.30318216341634
 1 -12.65293876697670 -1.49455946964697  2.22170006470647
 1 -11.15775344494449 -2.01605080008001  1.55829911251125
 1 -12.46302993659366 -3.19432854015401  0.20986584868487
 1 -10.00678607990799  0.27220889648965  2.70610923482348
 1 -10.83236340294029  1.55491856885689  2.20995571747175
 1 -11.60594818711871  0.72295571457146  3.34781895969597
 1 -13.52525372717272  0.64818082038204  0.23654012431243
 1 -13.62439821042104  0.66039764716472  2.11715571757176
 1 -12.93587227262726  1.99489311111111  1.18137862116212
 1  12.31603897059706  2.12554750425043  0.00424826802680
 1  12.81755618271827  2.03628766766677  1.87498509970997
 1 -12.53466694529453 -2.14126092259226 -1.98534272497250
 1  13.40025961076108 -0.64860460626063  1.26250658655866
 1 -9.32412477817782 -1.23266812581258  0.27193475347535
 1  13.65893103720372 -0.71566460576058 -1.39438459445945
 1  13.07721413891389  0.74955353325333 -1.72096202000200
 1  8.96631332893289  2.01757180898090  1.57337258465847
 1  9.74165602720272  2.44236683908391  0.27997491299130
 1  10.65541921522152  2.96630160186019  1.94267041804180
 1  11.58809165046505 -0.56184343294329  2.35842226362636
 1  9.97625259585958 -0.46707924892489  2.60171329942994
 1  11.23384428352835  0.96478427522752  3.15890083308331
 1 -9.99037153515352 -0.00251034033403 -2.65332272797280
 1 -11.53689274557456  1.06461245974597 -2.84051111641164
 1 -11.45107295239524 -0.55452420372037 -3.51981973957396
 1 -14.73273654695470 -1.70032898549855 -0.34259246304630
 1  8.49610867886789  0.30007023222322  0.57646029222922
 1 -8.77790295919592  1.72843449624963 -0.53118843924392
 1  11.58612434693469 -2.22751424742474 -2.25843869536954
 1  10.12889575597560 -1.13088919061906 -2.41764769876988
 1  11.37246654035404 -0.68663175327533 -3.10336628472847
 1  15.08778795909591  1.18976707650765  1.04800276917692
 1  9.72927270357036 -2.14921800350035 -0.49989643214321
 1 -5.57067152815281 -1.06772392309231  0.55465286208621
 1 -7.12047094519452 -1.26336831003100  1.33144539693969
 1 -6.73307954315431 -1.88650709890989 -0.28016623142314
 1 -6.61177346384638  2.39709850495049 -0.58598179987999
 1  6.76606015501550 -3.83987741034103  0.90992068776878
 1  6.52867021222122 -4.03377856565657 -0.74530412161216
 1  8.09353925132513 -4.08312449704971 -0.02750578327833
 1  6.64646307320732 -0.08501574097410 -0.66029815171517
 1 -4.34555678727873  0.47655732093209 -0.18337439503950
 1  4.67783138663866 -2.47394664766477  0.28294063326333
 1 -4.35327137283728  3.34755273707371 -1.05016467196720
 1  4.32666274247425  0.38861620052005 -0.70737995539554
 1 -1.17545730393039  3.75819726642664 -1.82524079597960
 1 -1.30157299569957  4.11132829012901 -0.26649860966097
 1 -2.68690817891789  4.28884129962996 -1.47340563426343
 1 -2.15000388078808  0.22446907240724 -0.21995672567257
 1  2.30521956405641  1.18302229142914 -0.72864988008801
 1  2.39487801550155 -2.38669507190719  1.23840221872187
 1  0.98402347364736 -2.23251254235424  0.20122883778378
 1  2.30317306670667 -3.01220900810081 -0.43078732173217
 1  0.08723460836084  2.22322216191619 -1.00065705720572
 1 -0.16132902890289 -0.73100327012701  0.06117546254625

