%nproc=4
%Mem=4GB
# td=(NStates=1) CAM-B3LYP/6-31G(d,p) 

TD

0 1
 8 -14.12418829402940 -2.07205558725873  0.58033828912891
 8  14.81853369016902  0.79959754635464  0.25610620652065
 6 -11.74073693329333  0.05155123002300  1.33646846684668
 6 -11.00536749924993  0.32847561856186 -0.03517980518052
 6 -11.95529100970097 -1.49861434583458  1.43497133843384
 6 -12.71013440694069 -2.17424848964896  0.37196134703470
 6 -11.69383467236724 -0.37220469876988 -1.16937242714271
 6  11.14119745034503  0.95045668816882  1.05411569126913
 6 -10.98899037223722  0.63690542934293  2.52782983368337
 6 -13.10746690909091  0.86570221712171  1.24226530333033
 6  12.52649983048305  1.53193261976198  0.90455784198420
 6 -12.38751973787379 -1.46878474627463 -0.99666243494349
 6  13.45019664056406  0.35626329892989  0.35974329322932
 6  10.69092856715672  0.01291188098810  0.02868645374537
 6 -9.53144190809081 -0.10322317051705  0.09335934353435
 6  12.92287026462646 -0.11659887928793 -0.98396398269827
 6  11.45391848064806 -0.41779682498250 -1.01660671947195
 6  10.16613349894990  2.12397170917092  1.07050976437644
 6  10.97350818331833  0.21096027142714  2.43438399969997
 6 -11.29200369786979  0.27992963446345 -2.49571182938294
 6 -8.52452855315532  0.78691367376738 -0.19982360486049
 6  9.25612054135414 -0.43302107790779  0.12847293109311
 6  11.12809275477548 -1.27464043084308 -2.16372597729773
 6 -7.01474279717972  0.47244448624862 -0.29660174947495
 6  8.82903936033603 -1.65275507300730 -0.02423756475648
 6 -6.77774919641964 -0.96887564446445 -0.17051416281628
 6  7.41361984948495 -2.15215808780878 -0.12630369266927
 6 -6.14460423642364  1.47933150765076 -0.38615047164716
 6  7.07737093129313 -3.57666138833883 -0.11349113091309
 6  6.43519078807881 -1.17701799049905 -0.14423676607661
 6 -4.70889486318632  1.45367890709071 -0.51684259765977
 6  5.03603444934493 -1.43658150105011 -0.13743152335234
 6 -3.96636800920092  2.60823384958496 -0.68162935193519
 6 -2.53205364346435  2.56847480508051 -0.85086783458346
 6  4.08010197569757 -0.57103760986099 -0.04652416881688
 6  2.63368041664166 -0.79519399089909  0.06712175957596
 6 -1.82597114731473  3.89131371397140 -1.10826997439744
 6 -1.86273335883588  1.38552129652965 -0.69899591599160
 6  1.75932447744774  0.29316087758776 -0.19995855775578
 6  2.18912223332333 -2.16983977127713  0.35818818671867
 6 -0.43035529442944  1.38796011731173 -0.57683104290429
 6  0.31655648644864  0.26407807560756 -0.19473273407341
 1 -10.90207694919492  1.37519930523052 -0.11134297949795
 1 -12.42392586568657 -1.46863687738774  2.38055595029503
 1 -11.11709937953795 -2.05919511451145  1.53135641824182
 1 -12.40872450605061 -3.26803591089109  0.21737659975998
 1 -10.23193859515952 -0.02146047044704  2.70268889278928
 1 -10.59162932953295  1.60570364736474  2.50238496039604
 1 -11.78423601590159  0.55237865686569  3.44968914671467
 1 -13.53649485128513  0.65318132043204  0.14354082438244
 1 -13.78507427802780  0.34800640804080  2.10140414241424
 1 -12.96492517791779  1.94902852465247  1.46658714201420
 1  12.84589195589559  2.23678862836284  0.13984182738274
 1  12.88259268636864  2.12455649454945  1.72995059625963
 1 -12.76227970657066 -2.05775257175718 -1.86085027572757
 1  13.31662124692469 -0.54313405920592  1.03449378527853
 1 -9.23412577827783 -1.10256511551155  0.01697925792579
 1  13.67009215331533 -0.78445148444844 -1.39172432843284
 1  13.23572999049905  0.83299187708771 -1.64761468526853
 1  9.14891158875888  1.85199525132513  1.36441168856886
 1  10.19995185678568  2.76045864826483  0.17637455295530
 1  10.43707738103810  2.90794576627663  1.90972712371237
 1  11.73467630893089 -0.42096934553455  2.53150957235724
 1  10.00396536713671 -0.13613615461546  2.45326845494549
 1  11.20033093219322  0.99816761356136  3.24661960496050
 1 -10.26759925792579  0.43540345104510 -2.76911430713071
 1 -11.84684374067407  1.33853985248525 -2.54991205650565
 1 -11.74264210931093 -0.49397814911491 -3.20989874747475
 1 -14.65265853915392 -2.13627257985799 -0.20816902070207
 1  8.59485855385538  0.40760098529853  0.24545719191919
 1 -8.87055222412241  1.68738039083908 -0.31195651605160
 1  11.51760749524952 -2.17687918391839 -2.05670852235224
 1  10.08040090649065 -1.33443954565457 -2.31153708770877
 1  11.39121841554156 -0.87149023912391 -3.12201814991499
 1  14.98292747304730  1.39341744154415  1.08085605450545
 1  9.51885166146615 -2.54478756045605 -0.25801224372437
 1 -5.72909737073707 -0.98330548124813 -0.22001460466047
 1 -6.92163106120612 -1.30076204940494  0.65174742714271
 1 -7.14030026522652 -1.47022547074707 -0.97919613441344
 1 -6.52695498199820  2.51815061016102 -0.33831703340334
 1  6.92520606960696 -3.93742716531653  0.93446314201420
 1  6.12944028922892 -3.89245443324333 -0.71166075727573
 1  7.93595349274927 -4.07352353695370 -0.46270930363036
 1  6.67523595049505 -0.14186142554255 -0.09853197509751
 1 -4.29282151375138  0.50606027122712 -0.08528458605861
 1  4.85716932043204 -2.55197445044504  0.00513285248525
 1 -4.48738478417842  3.58914689648965 -1.01665132063206
 1  4.51927200340034  0.54943228212821 -0.22411162856286
 1 -1.02782254045405  4.00687213391339 -2.02167043894389
 1 -1.25408824722472  4.16367352465247 -0.30530249004901
 1 -2.44001348944895  4.69778219371937 -1.48697699139914
 1 -2.58736761716172  0.71079770527053 -0.27672240224022
 1  2.28397743984398  1.24057804700470 -0.30834784988499
 1  3.28193672137214 -2.82353875627563  0.89647802630263
 1  1.02356742804280 -1.87257654875488  1.13317203210321
 1  1.66477922732273 -2.78748653585358 -0.87942218521852
 1  0.25642152705271  2.23400324002400 -0.57743473497350
 1 -0.24700759675968 -0.66702687248725 -0.08704935993599

