%nproc=4
%Mem=4GB
# td=(NStates=1) CAM-B3LYP/6-31G(d,p) 

TD

0 1
 8 -14.04186006120612 -2.18129651135114  0.64250450575058
 8  14.81229306610661  0.69584717131713  0.11817241314131
 6 -11.80186304590459 -0.04441836693669  1.22910773077308
 6 -10.93791075357536  0.22998576957696 -0.01663795099510
 6 -11.88901438203820 -1.63841832623262  1.47540538183818
 6 -12.62841623512351 -2.29214027882788  0.30526467736774
 6 -11.58448373727373 -0.54587206550655 -1.20573606350635
 6  11.18695202580258  0.82464410691069  1.09824010371037
 6 -10.87814928812881  0.50251198999900  2.48920597129713
 6 -13.07629379177918  0.67250289718972  1.29994107090709
 6  12.61622880338034  1.33251267776778  0.84379176537654
 6 -12.37683866976698 -1.59969783758376 -1.10783355205521
 6  13.52011363226323  0.22332000460046  0.41799911881188
 6  10.72031150545055 -0.19245865606561  0.03577716281628
 6 -9.48477724162416 -0.17366021422142  0.05229523712371
 6  12.97638561616161 -0.33921114051405 -0.98639422572257
 6  11.50391348014801 -0.62603764906491 -0.93086814561456
 6  10.27172405800580  2.10455976797680  1.20680339373937
 6  11.06055688818882  0.14986416181618  2.48222878417842
 6 -11.34833933143314  0.03461510301030 -2.66495875407541
 6 -8.52146824712471  0.70017499989999 -0.25187881038104
 6  9.29811474077408 -0.47061483728373  0.05924600840084
 6  11.06127607310731 -1.54465743254325 -2.10548015271527
 6 -7.03830515341534  0.47822506430643 -0.14668675797580
 6  8.67969442584258 -1.70328012551255 -0.15121026202620
 6 -6.48592001350135 -0.83468222512251  0.13686657525753
 6  7.33946243374337 -2.03374624662466 -0.09204026632663
 6 -6.26406618261826  1.55360893539354 -0.40813266986699
 6  6.93279647384738 -3.53910763296330  0.04451466966697
 6  6.34962223122312 -1.05832612131213 -0.28110045244524
 6 -4.76915088878888  1.61607514671467 -0.41675258865887
 6  4.97064791069107 -1.24482232513251 -0.03290107030703
 6 -4.03798517091709  2.64410743694369 -0.74029521852185
 6 -2.69543998209821  2.83611156875688 -0.67954070187019
 6  4.00273423892389 -0.29560006610661 -0.18568808520852
 6  2.64210125872587 -0.51819629112911 -0.01313626622662
 6 -2.03176172637264  4.12163674627463 -1.12862200960096
 6 -1.83371045654565  1.73423616801680 -0.55194121052105
 6  1.75825437043704  0.50687224872487 -0.33390195209521
 6  2.12025534663466 -1.93191597889789  0.33204557245725
 6 -0.43255551445145  1.74138545984598 -0.54815817561756
 6  0.34212904370437  0.53391505930593 -0.21226448724873
 1 -10.82861960346034  1.44684646994699 -0.19849169436944
 1 -12.50032350545054 -1.68586860056006  2.37810570527053
 1 -10.97360503010301 -2.14996419141914  1.67520080268027
 1 -12.47018065166517 -3.22380148744874  0.34963982608261
 1 -10.02488789008901 -0.08936726112611  2.63978260216022
 1 -10.81820198679868  1.55164824182418  2.31497621952195
 1 -11.38857644994500  0.25514893389339  3.39544372217222
 1 -13.88406960876088  0.36373237553755  0.55985245554556
 1 -13.62384815541554  0.76600820822082  2.23861786378638
 1 -12.88785747114711  1.80378400020002  1.18155863916392
 1  12.58419578627863  1.90759570907091  0.02922076527653
 1  12.97401182828283  1.93215725462546  1.63187078827883
 1 -12.94145762436244 -2.02407920442044 -2.02842703340334
 1  13.67458704350435 -0.71896164196420  1.00651098699870
 1 -9.21483384908491 -1.28381324032403  0.20587814781478
 1  13.40878602270227 -1.35495853515352 -1.10945610161016
 1  13.27053347084708  0.30387896579658 -1.80437036083608
 1  9.15011170877088  1.94893494529453  1.15119036643664
 1  10.50614247584759  2.75719832223222  0.36540345584558
 1  10.57959163246325  2.68949392109211  2.06868301930193
 1  11.91649449074908 -0.57876512511251  2.55796221762176
 1  10.11022599319932 -0.27147968896890  2.80984411251125
 1  11.41379227832783  0.99060685748575  3.18349329232923
 1 -10.34669716771677  0.47538744944494 -2.73274066976698
 1 -12.04253330963096  1.08074407290729 -2.83655072037204
 1 -11.62235008010801 -0.55033378467847 -3.45672342994299
 1 -14.39061233453345 -2.21138009060906 -0.20538874267427
 1  8.51342041004100  0.13501372657266  0.24436708290829
 1 -8.86715188408841  1.59691134393439 -0.55687100750075
 1  11.60999673417342 -2.35537703370337 -2.06945979747975
 1  9.99736260266027 -1.48571467316732 -2.16707264126413
 1  11.52339163286329 -1.04117720782078 -2.98262421052105
 1  15.24649382968297  0.92431053085309  1.01556952585259
 1  9.46601637793779 -2.52746582828283 -0.42238868136814
 1 -5.33764822582258 -1.03589073977398 -0.43805640884088
 1 -6.55202410051005 -0.90003197639764  1.28217046944694
 1 -7.14677091229123 -1.81766021422142 -0.24359257405741
 1 -6.66102838933893  2.53007180228023 -0.70517371907191
 1  6.24405795479548 -3.90906432903290  0.91906160186019
 1  6.13128047324732 -3.71467665546555 -0.81092068326833
 1  7.95214511191119 -3.95737192179218 -0.03504653735374
 1  6.60775920282028  0.11250401100110 -0.40920304220422
 1 -4.28252048364837  0.81913157835784 -0.04663072067207
 1  4.61715531903190 -2.27624687768777  0.27499983918392
 1 -4.48821486718672  3.68914689648965 -0.80796045154515
 1  4.18981905810581  0.69258659755976 -0.57706692409241
 1 -1.19509926812681  4.00729217591759 -1.68076634853485
 1 -1.65551839023902  4.54764192149215 -0.35843780358036
 1 -2.88451793989399  4.78238065356536 -1.75496379007901
 1 -2.18607748814882  0.83771039653965 -0.40179490949095
 1  2.20734977707771  1.33692768196820 -0.87280429552955
 1  2.44417294499450 -2.21701810421042  1.37037541604160
 1  0.94527959925993 -1.67186647774777  0.26747546244625
 1  2.56305905530553 -2.65778356555656 -0.43070731373137
 1  0.39302518741874  2.68253809350935 -0.62990998249825
 1 -0.28094099009901 -0.37460763056306 -0.12757341234123

