%nproc=4
%Mem=4GB
# td=(NStates=1) CAM-B3LYP/6-31G(d,p) 

TD

0 1
 8 -14.11067694289429 -1.95843422512251  0.54352460776078
 8  14.83822565936594  0.78307589418942  0.11628222412241
 6 -11.69841270087009  0.04127020192019  1.25768058805881
 6 -10.96933389588959  0.27313008400840 -0.07356364356436
 6 -11.87605308590859 -1.40927541194119  1.40888873017302
 6 -12.58082147564756 -2.07095816061606  0.30659481038104
 6 -11.54976026492649 -0.45425290359036 -1.28058354825483
 6  11.18179150975097  0.93805544804480  1.10297057675768
 6 -10.94328580178018  0.72283402220222  2.48477552825283
 6 -13.06064222662266  0.76119176607661  1.22554363116312
 6  12.56182336283628  1.45579500600060  0.85884327052705
 6 -12.28489947584759 -1.55263313111311 -1.04062683138314
 6  13.48707032793279  0.34785245784578  0.33635095399540
 6  10.55543501780178 -0.03292270247025  0.04343792889289
 6 -9.51625038893889 -0.06598944714471  0.05338534613461
 6  13.01170914851485 -0.19370659005901 -0.95952153845385
 6  11.45592868166817 -0.47942298759876 -0.92752781158116
 6  10.18799568516852  2.17209652165217  1.31701441484148
 6  11.14896572907291  0.25557473287329  2.52167272857286
 6 -11.13605810331033 -0.13332169066907 -2.64812707090709
 6 -8.50643674397440  0.84327931033103  0.04177055455546
 6  9.26141107040704 -0.43768154395440  0.16010609440944
 6  11.13593353885388 -1.36442940974097 -2.11017062176218
 6 -7.08261958485849  0.54824206600660  0.05255316601660
 6  8.68214467086709 -1.56483628112811 -0.24926006700670
 6 -6.60677209870987 -0.91249000590059  0.20610349894990
 6  7.36871535903590 -2.05167803980398 -0.06632769506951
 6 -6.24305408140814  1.58907248174817 -0.23189504610461
 6  7.07977117131713 -3.54447817001700  0.01105132333233
 6  6.29530679967997 -1.13202349104910 -0.15870821322132
 6 -4.83518749244925  1.45441898109811 -0.38717963136314
 6  4.93067391329133 -1.47710555345535 -0.11375915611561
 6 -4.00102147454745  2.58095112131213 -0.63700488948895
 6 -2.53567400550055  2.67497545514551 -0.74873762156216
 6  3.96517048254825 -0.59631013711371 -0.26679619601960
 6  2.55804285288529 -0.70042451395140 -0.23797875047505
 6 -1.96916546674667  3.93622820542054 -1.18015716311631
 6 -1.82363944944494  1.51697444184418 -0.43863988038804
 6  1.65403394839484  0.30569213071307 -0.45935449734973
 6  2.07071039213921 -2.15493828112811 -0.02641027312731
 6 -0.45361762066207  1.39546086738674 -0.50249360916092
 6  0.25702053285329  0.19195086288629 -0.33785704650465
 1 -10.86370311181118  1.27094888018802 -0.36451829702970
 1 -12.41085455855585 -1.66154616831683  2.29757765246525
 1 -10.89376704630463 -1.84305350035004  1.42680596319632
 1 -12.44847848144815 -3.13324243154315  0.30454531663166
 1 -10.08633403470347  0.20880255585559  2.68193681758176
 1 -10.66075624222422  1.72958603560356  2.28470319221922
 1 -11.54459205150515  0.55400881988199  3.48589276707671
 1 -13.64358556035604 -0.14170816851685  0.42572904320432
 1 -13.37144291489149  0.80579218661866  2.14791879387939
 1 -12.98919760516051  1.93252687448745  0.80693117641764
 1  12.78857622432243  2.11606655615562 -0.00326248304831
 1  12.99679410651065  1.76286032493249  1.78317591879188
 1 -12.72208568716872 -2.15664246074607 -1.96910110081008
 1  13.49082866766677 -0.50411015681568  1.14862519841984
 1 -9.33756612231223 -1.14030888988899  0.07855541554155
 1  13.47316246034603 -1.11630466976698 -1.02179733573357
 1  13.14063048054805  0.60581915981598 -1.81939186298630
 1  9.13601029862986  1.68154820662066  1.86003125052505
 1  9.74710657225723  2.75150775317532  0.27125404090409
 1  10.67136080938094  3.01749672137214  1.98467461846185
 1  11.76187902920292 -0.58537578617862  2.66200262166217
 1  10.12950792139214 -0.19498203920392  2.67395052315232
 1  11.49227012611261  1.01522931973197  3.28284322732273
 1 -9.87630012801280 -0.19414950425042 -2.66427382308231
 1 -11.19424848114812  1.10152615111511 -2.79968703400340
 1 -11.72953079817982 -0.52314106540654 -3.46202395999600
 1 -14.37966123942394 -2.61633058565857 -0.26894509830983
 1  8.49792886088609  0.11042126732673  0.61459410561056
 1 -8.56486165506551  2.04927658045805 -0.07293261366137
 1  11.47294302880288 -2.44272576857686 -2.06124897639764
 1  10.08878174457446 -1.42803890559056 -2.31894782878288
 1  11.75283457715772 -0.98887197729773 -2.95595154325433
 1  15.20286946724672  1.53329142894289  1.09729769866987
 1  9.27213698999900 -2.58481156285629 -0.40390683318332
 1 -5.65100956195620 -1.21586873757376  0.48483588038804
 1 -7.15533443154315 -1.15349732293229  1.01272352475248
 1 -6.95839207440744 -1.46014446264626 -0.66940515531553
 1 -6.52014430093009  2.55566436153615 -0.40897409910991
 1  6.40994454345435 -3.84079750235023  0.90571026672667
 1  6.50986833203320 -3.93708889668967 -0.87402699389939
 1  8.09141903930393 -4.04696088068807 -0.10445347804781
 1  6.43341176807681 -0.05176241564156 -0.33531565346535
 1 -4.37100933253325  0.42332199739974 -0.24401045864586
 1  4.60578418191819 -2.50607986098610 -0.02889054985499
 1 -4.79227527322732  3.39504748654865 -0.94439409490949
 1  4.11451152735274  0.37821516041604 -0.62678189558956
 1 -1.28219797799780  3.93437488418842 -1.95925419731973
 1 -1.24094693309331  4.24402155945595 -0.39879183898390
 1 -2.61735122322232  4.74529694519452 -1.01738003170317
 1 -2.28974785518552  0.48535516101610 -0.29007373737374
 1  1.95863490559056  1.39946393559356 -0.71630864596460
 1  2.28926745444544 -2.43804020642064  0.98613699219922
 1  0.94640971227123 -2.24396368746875 -0.04620590569057
 1  2.78136088548855 -2.74644243144314 -0.78003224622462
 1 -0.00073418851885  2.16567640734073 -0.95566255775578
 1 -0.32572546854686 -0.62889305910591  0.10395974097410

