%nproc=4
%Mem=4GB
# td=(NStates=1) CAM-B3LYP/6-31G(d,p) 

TD

0 1
 8 -14.15955183038304 -2.16249463116312  0.31806206150615
 8  14.82389422622262  1.08025561216122 -0.05402480658066
 6 -11.92040490009001  0.19717579247925  1.22838765876588
 6 -11.08945590809081  0.34291706270627 -0.12037832503250
 6 -12.18541402200220 -1.36876136053605  1.45910375167517
 6 -12.76168956245625 -2.21769283408341  0.21343549444944
 6 -11.56654194309431 -0.49427690599060 -1.27647313721372
 6  11.10901423202320  0.97464910741074  0.94785506520652
 6 -11.06577805100510  0.69479121792179  2.44344139483948
 6 -13.18535469786979  0.90116576347635  1.02093317011701
 6  12.54692187268727  1.51261068756876  0.60752813901390
 6 -12.27502848874887 -1.62944081188119 -1.09544231293129
 6  13.55165678657866  0.43165083768377  0.29082640154015
 6  10.74808428272827 -0.05464487468747 -0.14545095999600
 6 -9.58447721162116  0.01824897669767 -0.08695868826883
 6  13.08059603720372 -0.25214243364336 -0.89340492679268
 6  11.60200328912891 -0.58271331663166 -1.01719677847785
 6  10.16171305690569  2.21222053405341  0.79375208860886
 6  11.10375120762076  0.32063123852385  2.37312787408741
 6 -11.19037353485349 -0.08258661716172 -2.70507276547655
 6 -8.59221532183218  0.86870185258526 -0.33295691819182
 6  9.30243517281728 -0.43345112091209 -0.02189210541054
 6  11.15755570107011 -1.43940690749075 -2.09197880258026
 6 -7.15515683858386  0.61314855665567 -0.16507859715972
 6  8.85233168956896 -1.76298609610961  0.00310516951695
 6 -6.80160158165817 -0.88803756065607  0.03104599319932
 6  7.46085457295730 -2.21866473847385 -0.04924598689869
 6 -6.18504828082808  1.58073164766477 -0.24707656425643
 6  7.23457665186519 -3.67535125732573  0.12405262346235
 6  6.43823109210921 -1.27901819051905 -0.16485882828283
 6 -4.75798977267727  1.60900443964396 -0.15373628702870
 6  4.99158000390039 -1.50552839573957 -0.06124390459046
 6 -3.94357572997300  2.73180620682068 -0.36968815781578
 6 -2.54278471657166  2.69961791939194 -0.42070481828183
 6  3.98982294779478 -0.60921142724272 -0.18822833923392
 6  2.61408845744574 -0.86543101460146  0.04015906330633
 6 -1.84897344754475  3.96849143174317 -0.48944809220922
 6 -1.74249133463346  1.49778252265227 -0.38222423882388
 6  1.76531507650765  0.26635819731973 -0.17516607850785
 6  2.14690801190119 -2.09338212551255  0.45176754465447
 6 -0.41111337023702  1.39878119941994 -0.40162352215222
 6  0.36740157095710  0.23017468526853 -0.08232149294929
 1 -11.33752049354935  1.63502528782878 -0.24252609780978
 1 -12.82637611071107 -1.82620263396340  2.33190108480848
 1 -11.19058672827283 -1.94962415741574  1.75869915251525
 1 -12.38736236983698 -3.26061516881688  0.40377523962396
 1 -10.12374777607761  0.22320399599960  2.47664628852885
 1 -10.64763493009301  1.72942601960196  2.19846456835684
 1 -11.70135772807281  0.58101152015202  3.32640681848185
 1 -13.71500270207021  0.50243624592459 -0.00593412311231
 1 -14.04991076167617  0.75356696409641  1.69108311031103
 1 -12.96888557395740  1.91086470827083  0.91324180748075
 1  12.32142950965097  2.14271922142214 -0.31338349514952
 1  12.83589801690169  2.20003404230423  1.49312691389139
 1 -12.78901237983798 -2.16019281578158 -1.94516870757076
 1  13.47879746454646 -0.21504124992499  1.24616495239524
 1 -9.40149251495150 -1.13501836083608  0.30785834583458
 1  13.62722786688669 -1.20461350065006 -1.15265042104210
 1  13.58850526802680  0.36742532043204 -1.88303822762276
 1  9.17313401100110  1.85123517531753  1.41450669806981
 1  9.78664052565257  2.34184678707871 -0.09784286878688
 1  10.48716238953895  2.84161913361336  1.35043119411941
 1  11.94126696799680 -0.23509075767577  2.49156557795779
 1  9.99437440804080 -0.17552009300930  2.37912104020402
 1  11.18632953205321  1.16626442324232  3.09638458145815
 1 -9.99105160316032 -0.06298638793879 -2.78554595029503
 1 -11.75594465076508  0.84990098859886 -3.06574363966397
 1 -11.59793763886389 -1.04535328662866 -3.39191694929493
 1 -14.47959123242324 -2.59851880448045 -0.64047225102510
 1  8.78095716371637  0.51677190239024  0.17006965316532
 1 -8.86223139203921  2.00461211401140 -0.66014133453345
 1  11.18792452695270 -2.50254175017502 -1.77985083658366
 1  10.11396426282628 -1.36078217991799 -2.28033396739674
 1  11.82841213491349 -1.38291138123812 -2.84594054215422
 1  15.29365854615462  1.42061016081608  0.68561653055306
 1  9.47868764506451 -2.68942202390239 -0.21541798429843
 1 -5.69286374737474 -1.06662381308131  0.22640003680368
 1 -7.12750164826483 -1.55309728292829  0.98192044444444
 1 -7.11615785098510 -1.55787423562356 -0.84886310111011
 1 -6.65604789128913  2.49787858295830 -0.56442964466447
 1  7.31620516951695 -4.06507993059306  1.31011070677068
 1  6.05314265946595 -3.67564275207521 -0.36508609980998
 1  7.89900979837984 -4.41789797439744 -0.58800183288329
 1  6.81630005690569 -0.14648188758876 -0.26082820472047
 1 -4.34546677827783  0.55921558675868 -0.03895995359536
 1  4.64678828232823 -2.43549280228023  0.10941328052805
 1 -4.70874692039204  3.53000098189819 -0.29717937343734
 1  4.22721279747975  0.31761910081008 -0.44756397379738
 1 -0.80891064926493  4.05010645734573 -1.01668994089409
 1 -1.29762260066007  4.27810496779678  0.43996203640364
 1 -2.59164865296530  4.72781519701970 -0.83969226292629
 1 -2.24699357975798  0.65970259575958 -0.24213894389439
 1  2.25488453055306  1.31364535373537 -0.61620863596360
 1  2.67657618531853 -2.54474087648765  1.23613199169917
 1  0.98621369266927 -2.19572886398640  0.41856057095710
 1  2.15957870727073 -3.10062784998500 -0.36382062506251
 1  0.47352323722372  2.18648848854885 -0.54110110161016
 1 -0.25884878087809 -0.60987115691569  0.34707405240524

