%nproc=4
%Mem=4GB
# td=(NStates=1) CAM-B3LYP/6-31G(d,p) 

TD

0 1
 8 -14.03654953015302 -2.07473585528553  0.56039629492949
 8  14.87812964976498  0.75586317291729  0.08555915181518
 6 -11.73409626922692 -0.05561948704870  1.30643546354635
 6 -10.99180614311431  0.28438120912091 -0.11544783198320
 6 -11.89623510411041 -1.50038452285228  1.38205604690469
 6 -12.66989038253825 -2.16066713151315  0.23675782668267
 6 -11.64108939783978 -0.38179565786579 -1.31614710461046
 6  11.10584391499150  1.05473711621162  0.98362864256426
 6 -10.89832130533053  0.58626036483648  2.44521157185719
 6 -13.00702686508651  0.80236588348835  1.20757183398340
 6  12.64292147264726  1.38730815731573  0.80317770397040
 6 -12.32389337523752 -1.53726159395940 -1.13935670437044
 6  13.53463508440844  0.28768644124412  0.31676899579958
 6  10.73365283958396 -0.04268367856786  0.03583716881688
 6 -9.55061382528253 -0.08540138833883  0.02198220582058
 6  13.05740371797180 -0.21715893529353 -0.87490307660766
 6  11.52173526232623 -0.52112715801580 -0.93416847564756
 6  10.17624451005100  2.22231154315432  0.97300001340134
 6  10.99119995249525  0.55047422282228  2.47555811711171
 6 -11.42215671317132  0.25434707620762 -2.57720997919792
 6 -8.57152325262526  0.87140212261226 -0.20108373087309
 6  9.35279020832083 -0.41689946574657  0.07042712651265
 6  11.12906285178518 -1.41150411721172 -2.18954855955596
 6 -7.14049537243724  0.46560380218022 -0.09136122542254
 6  8.76716317271727 -1.68688848634863 -0.02486762776278
 6 -6.68172959445945 -0.86142489938994  0.11625451405141
 6  7.41616010351035 -2.06299917191719  0.02950188788879
 6 -6.21583135913591  1.50681425592559 -0.45689754635464
 6  7.14147734193419 -3.51620534273427  0.24773499169917
 6  6.29553682268227 -1.18835912461246 -0.27529987238724
 6 -4.75223919761976  1.53849738893889 -0.37783869726973
 6  4.94874572047205 -1.40715855875588 -0.16730451065107
 6 -4.01870324272427  2.61123414961496 -0.59936112511251
 6 -2.56760719881988  2.63067102470247 -0.62110485828583
 6  3.86985095059506 -0.60294080018002 -0.20052956935694
 6  2.52627967656766 -0.86982145364536 -0.24094904750475
 6 -1.84972352255226  4.02673725632563 -0.72602174957496
 6 -1.80147723322332  1.57520026442644 -0.32954897129713
 6  1.65486403140314  0.19494105560556 -0.39464802670267
 6  2.05450877197720 -2.23227601490149  0.17810017791779
 6 -0.42224448334833  1.44760608190819 -0.47802116191619
 6  0.26655148594860  0.22481414921492 -0.30778403920392
 1 -11.23714045554555  1.40611239653965 -0.33503534873487
 1 -12.20916438953895 -1.58433844754476  2.26612450715072
 1 -10.87988565816582 -1.92224141914191  1.45201848444845
 1 -12.29488312191219 -3.15338444574457  0.17049191129113
 1 -9.78752415371537  0.05526720232023  2.76638526242624
 1 -10.82095226182618  1.76148922592259  2.33711843374337
 1 -11.55852344464446  0.66985040404040  3.43587776557656
 1 -13.58857005880588  0.56614261656166  0.41044751505151
 1 -13.93505927652765  0.36878848624862  1.93686768876888
 1 -13.08113679907991  1.85396901870187  1.43741422472247
 1  12.77850521722172  2.32474742424242  0.10485832903290
 1  13.09884431153115  1.78708274717472  1.78323592479248
 1 -12.86011949054905 -2.11133793029303 -1.97818200890089
 1  13.49952953775378 -0.38641838763876  1.16262659855986
 1 -9.38772113781378 -1.23355821482148  0.08038559855986
 1  13.43123826792679 -1.11856489578958 -1.28154331033103
 1  13.18582500000000  0.71529010691069 -1.56198612241224
 1  9.22385908350835  2.04489454125413  1.45487073447345
 1  10.05184704630463  2.52442504490449 -0.07668075257526
 1  10.62570624392439  2.97642261396140  1.49916606760676
 1  11.72813565486549 -0.34740198879888  2.50953737513751
 1  9.98574354495450  0.17473493249325  2.74538766686669
 1  11.29430032913291  1.43792158895890  3.08066300930093
 1 -10.37642014001400  0.35070498119812 -2.64191158685869
 1 -11.71587064336434  1.30182618111811 -2.57764482978298
 1 -11.97034487958796 -0.50854960626063 -3.28421617921792
 1 -14.49715298859886 -2.33483243584358 -0.23268147194719
 1  8.70625969396940  0.53345357055706  0.30086273247325
 1 -9.04437960686069  1.79507115991599 -0.57017233763376
 1  11.20302603710371 -2.56355785178518 -2.00661351285129
 1  10.20443330973097 -1.31819792149215 -2.31854778877888
 1  11.83997329102910 -1.12857594769477 -2.98784473257326
 1  15.15523470377038  1.21789988978898  0.88936690559056
 1  9.45938571487149 -2.60953403510351 -0.24443088558856
 1 -5.53964842584258 -1.06231338203820  0.58004540134013
 1 -7.31260015811581 -1.28934090729073  0.98044029642964
 1 -7.17092332753275 -1.41846029422942 -0.69436765156516
 1 -6.62340462696270  2.48267706280628 -0.71153435513551
 1  6.89042259125913 -3.67517093969397  1.27809750545055
 1  6.46080342554255 -4.03869905770577 -0.24581417261726
 1  8.11037093449345 -4.27795397999800  0.14564153145315
 1  6.70068849574958 -0.18093533293329 -0.74492661456146
 1 -4.21506373797380  0.58617828302830 -0.06136219381938
 1  4.77586118961896 -2.46333558655866  0.33204554375438
 1 -4.24394043974397  3.56385436723672 -1.00219987548755
 1  4.21516159235924  0.48206554545455 -0.46600581798180
 1 -0.90772053025303  4.05983743044304 -1.45093336523652
 1 -1.35073791219122  4.12361951925193  0.20435847604760
 1 -2.59907939603960  4.82250466596660 -0.78979727342734
 1 -2.17985686608661  0.63881050655066 -0.08838356835684
 1  2.24364340644064  1.07831182038204 -0.69869688478848
 1  2.77242577027703 -2.54433083548355  1.08843722222222
 1  0.90044511581158 -2.37054634573457  0.53348206310631
 1  2.10787353675368 -3.05859364656466 -0.63798804180418
 1  0.29384526942694  2.10009984968497 -1.02650964246425
 1 -0.17531042704270 -0.67020719051905  0.00135948094810

