%nproc=4
%Mem=4GB
# td=(NStates=1) CAM-B3LYP/6-31G(d,p) 

TD

0 1
 8 -14.12401827702770 -1.74890327202720  0.64348460376038
 8  14.86600843764376  0.94339192579258  0.10743133903390
 6 -11.72386524612461  0.10648672357236  1.28434325432543
 6 -10.97831479397940  0.33926669766977 -0.07389367656766
 6 -11.90851633223322 -1.44532901730173  1.49004684598460
 6 -12.73284667816782 -2.07996906170617  0.36820097099710
 6 -11.73462875177518 -0.44039151745175 -1.19745523542354
 6  11.08047137773777  0.88755039753975  1.16041632133213
 6 -10.80645211841184  0.59211094989499  2.45843289398940
 6 -12.99276543894389  0.80476612351235  1.22548362516252
 6  12.53534071457146  1.48287771427143  0.76308369456946
 6 -12.49653063896390 -1.47527539533953 -1.05538830753075
 6  13.48675029592959  0.43644131673167  0.38717603650365
 6  10.63610308460846 -0.02589199939994  0.09026261136114
 6 -9.55183394729473 -0.09213206140614 -0.18257825022502
 6  12.88167614521452 -0.06209342874287 -0.96225181148115
 6  11.45682877167717 -0.33940898619862 -0.97832289108911
 6  10.21036792239224  2.24818413041304  1.31526423982398
 6  11.08532936543654  0.21411058645865  2.48694925622562
 6 -11.51544604210421  0.10261190269027 -2.50843310151015
 6 -8.56949304960496  0.84123910631063 -0.18398202070207
 6  9.24305923522352 -0.38221599739974 -0.03261317751775
 6  10.97542748824882 -1.16648961576158 -2.10776038073807
 6 -7.13927525042504  0.48960620242024 -0.22537462676268
 6  8.74698115451545 -1.66165596309631 -0.12302744374437
 6 -6.69995141664166 -0.90385914281428 -0.06913402480248
 6  7.40946943444344 -2.11058393039304 -0.00379144144414
 6 -6.15483525952595  1.39205277977798 -0.39807166376638
 6  7.30080327452745 -3.62536625882588  0.31213143134313
 6  6.36684395339534 -1.23255354405441 -0.23790613301330
 6 -4.80593456715672  1.37908144734473 -0.37974888828883
 6  4.99014986088609 -1.59776761966197  0.02298451825183
 6 -3.90494186658666  2.44573759996000 -0.66219740874087
 6 -2.57402784088409  2.58469642724272 -0.69193194099410
 6  4.01172513801380 -0.63460396649665 -0.35827534393439
 6  2.57102415101510 -0.88960343184318 -0.27711266386639
 6 -1.97013556375638  4.02852743534353 -0.85905505290529
 6 -1.64926201170117  1.46821956635664 -0.31044706110611
 6  1.83318186318632  0.16077763926393 -0.49299786168617
 6  2.13650697179718 -2.25657844514451  0.06709907780778
 6 -0.24991725062506  1.39933125442544 -0.65645900570057
 6  0.41224605540554  0.19946161396140 -0.32524578537854
 1 -11.05627236873687  1.26988877417742 -0.37553939913991
 1 -12.33541701480148 -1.52750276397640  2.52620051475147
 1 -10.96803447304730 -1.92182137713771  1.73353663626363
 1 -12.51885551915191 -3.10653976127613  0.41079594169417
 1 -9.77561296259626  0.13672534813481  2.26981560546055
 1 -10.48557872447245  1.63910698769877  2.35320004190419
 1 -11.13606119841984  0.33242666166617  3.31488566636664
 1 -13.48781998379838  0.55094109640964  0.23826029632963
 1 -13.50829660026003  0.67205881328133  1.96998100010001
 1 -12.93273195859586  1.93569719151915  1.26421690499050
 1  12.63202056875688  2.12732768226823 -0.18939109590959
 1  13.03894832193219  1.88288232713271  1.83075067626763
 1 -12.81931541014101 -2.13715051155115 -1.86118030873087
 1  13.25871545634564 -0.22511225702570  1.18084842074207
 1 -9.43512587828783 -1.07868272727273  0.12894045404540
 1  13.49353449754975 -0.98482152145214 -1.23418857485749
 1  13.07503392089209  0.51002958085809 -1.86460638443844
 1  9.20359705730573  2.03981403320332  1.73724897229723
 1  10.08220008160816  2.58055065746575  0.22549946544654
 1  10.55389906320632  3.33440841254125  1.79120527152715
 1  12.04312715401540 -0.57493474207421  2.63464988638864
 1  10.05360033063306 -0.45940848184818  2.71766489458946
 1  11.11605250435043  0.96463426022602  3.41196613961396
 1 -10.28550104810481  0.00788069876988 -2.77896529222922
 1 -11.85263431973197  1.16345234373437 -2.53408047334733
 1 -12.07444528962896 -0.41320007130713 -3.37744550215021
 1 -14.52440571387139 -2.06371532413241 -0.12799100290029
 1  8.44628369636964  0.35554577977798  0.37936058225823
 1 -8.57835300420042  1.87943959675968 -0.49228454885489
 1  11.21874760926093 -2.25266676267627 -1.90692354385439
 1  9.93611647804780 -1.25776187788779 -2.27702363636364
 1  11.51963125682568 -1.00052314241424 -3.04177012511251
 1  15.13466264656466  1.36803490329033  0.85406337523752
 1  9.34206398269827 -2.46499958165817 -0.24772121462146
 1 -5.73149761076108 -1.08193534423442  0.28073547034703
 1 -7.33119201730173 -1.32117409060906  0.71967421982198
 1 -6.94171040624062 -1.67527597579758 -0.78943715851585
 1 -6.58680096659666  2.35924471957196 -0.68789199089909
 1  7.07897144614461 -3.98674209680968  1.37234693039304
 1  6.58059540474047 -3.99465465326533 -0.40115970717072
 1  8.34356425382538 -3.99323550815082  0.00773774107411
 1  6.56625505240524 -0.14449168856886 -0.69567168906891
 1 -4.23674590619062  0.35831549674967 -0.25419147674767
 1  4.52676628012801 -2.54825407840784  0.32392473167317
 1 -4.65527157285729  3.34021200300030 -0.83067272277228
 1  4.31292136833683  0.41993933283328 -0.47153637103710
 1 -1.11908166636664  3.90023146984698 -1.62675094699470
 1 -1.39246208460846  4.47998515581558  0.12495053525352
 1 -2.69695918401840  4.62950536603660 -0.99179747344734
 1 -2.17297617801780  0.44398102360236 -0.10020475047505
 1  2.08294733683368  1.05630962016202 -0.76819383448345
 1  2.34472300000000 -2.66671307370737  1.00654903340334
 1  0.97352242354235 -2.18648793989399 -0.22916420152015
 1  2.34720747014701 -3.17384517171717 -0.54575881888189
 1  0.40720660556056  2.31361120082008 -1.16253324482448
 1 -0.21506440244024 -0.66531670147015  0.04737408240824

