%nproc=4
%Mem=4GB
# td=(NStates=1) CAM-B3LYP/6-31G(d,p) 

TD

0 1
 8 -14.13355923112311 -2.03817219891989  0.61807206250625
 8  14.71966380318032  1.04891247784778  0.16534713061306
 6 -11.71326418601860  0.01468754365437  1.42606742674267
 6 -10.90557752025203  0.31526429742974  0.12881659445945
 6 -12.09261474207421 -1.48131261566157  1.46149399069907
 6 -12.70062345584559 -2.12503356815682  0.28009216011601
 6 -11.56113140204020 -0.34359183748375 -1.08171366126613
 6  11.05504883548355  0.94616625912591  1.26033631333133
 6 -10.88855032823282  0.48761049984999  2.62455950665067
 6 -13.05923208560856  0.81823747064706  1.27775885268527
 6  12.49908708920892  1.49731915841584  0.97793517971797
 6 -12.41425241114112 -1.40038790659066 -1.01725449414942
 6  13.45979760066007  0.41256892949295  0.29264658355836
 6  10.60467994229423 -0.08095750595060  0.05604919001900
 6 -9.46575533943394 -0.09975282348235  0.16696670427043
 6  12.90205818341834  0.01605438603860 -1.01714730103010
 6  11.51208429722972 -0.47280232553255 -0.86103116191619
 6  10.25939282488249  2.18264757675768  1.42197491089109
 6  10.97926875937594  0.24703387878788  2.63612417371737
 6 -11.24559905740574  0.23557519901990 -2.43408566676668
 6 -8.47972407270727  0.84261924432443 -0.08701232373237
 6  9.21968689798980 -0.47318509430943  0.02439252305231
 6  11.12222216771677 -1.31021398819882 -2.01527113181318
 6 -7.01878320122012  0.52979022082208 -0.15961805110511
 6  8.81386784318432 -1.79273907140714 -0.17836297729773
 6 -6.58446986848685 -0.93390214711471 -0.10221733313331
 6  7.41825031253125 -2.21801467346735 -0.03424448674867
 6 -6.20708048404840  1.57067064156416 -0.53109496609661
 6  7.16604979917992 -3.62640636283628  0.20621083928393
 6  6.44221149014901 -1.34956524522452 -0.22713505590559
 6 -4.78309228292829  1.41687522672267 -0.70543145654565
 6  5.02113295919592 -1.64162200510051 -0.13599137933793
 6 -4.02026339873987  2.61914494069407 -0.82817400640064
 6 -2.62836327442744  2.63670162776278 -0.86062881068107
 6  3.97281124662466 -0.66477698379838 -0.33496301270127
 6  2.58617566616662 -0.87986245774577 -0.33542849544954
 6 -2.01492004220422  4.01270585318532 -1.23969311671167
 6 -1.73834091959196  1.57441018541854 -0.45292130853085
 6  1.71066961196120  0.21992355385539 -0.48653721562156
 6  2.15155847694769 -2.25833862116212 -0.00140777287729
 6 -0.37826008490849  1.48776009730973 -0.63676703650365
 6  0.35178000880088  0.32673434123412 -0.45338859965997
 1 -10.65291203270327  1.49795158045805  0.15154330913091
 1 -12.64618809190919 -1.81828184188419  2.41566946164616
 1 -11.13675134473447 -2.05446464146415  1.50240352295230
 1 -12.39884351795179 -3.17979708700870  0.29105396749675
 1 -10.06582198349835 -0.11410973537354  2.60965958985899
 1 -10.58759892649265  1.57978105510551  2.55100982288229
 1 -11.50446803910391  0.46987040604060  3.55917009480948
 1 -13.75244644644464  0.34805080738074  0.43046951725172
 1 -13.52586835743574  0.55103671107111  2.43187718971897
 1 -12.76420510591059  1.85320894269427  1.28228871217122
 1  12.59551691839184  2.34670962046205  0.22401024422442
 1  12.92889731683168  1.84936897579758  1.70614821602160
 1 -12.84970844944494 -1.80354715121512 -1.93652784348435
 1  13.60122970777078 -0.24307405320532  1.18009834573457
 1 -9.14491685738574 -0.95853071207121  0.39951751175118
 1  13.57787293139314 -0.70790382968297 -1.56548170417042
 1  13.00352677017702  0.74700327822782 -1.76880680448045
 1  9.21038773637364  2.06657670947095  1.78810405780578
 1  10.25190705230523  2.70258286068607  0.51398831433143
 1  10.83760743404340  3.02109708140814  2.06887303830383
 1  11.77919076037604 -0.72334958355836  2.62644906630663
 1  10.02346731733173 -0.09343188418842  2.94717784588459
 1  11.56133703280328  0.83271106790679  3.44007895089509
 1 -10.31719421742174  0.42118202890289 -2.65013240894089
 1 -11.78975803210321  1.24904090259026 -2.51275834113411
 1 -11.81596944204420 -0.30735948724873 -3.28446620422042
 1 -14.75483875717572 -2.46997595019502  0.10501229742974
 1  8.39815888388839  0.30782100730073  0.39533217941794
 1 -8.60888605750575  1.91795344814481 -0.28541386178618
 1  11.56767250175018 -2.21472296829683 -1.90768361986199
 1  9.99209207560756 -1.38319442114211 -2.07818375237524
 1  11.47823711741174 -0.70769385948595 -3.05164111221122
 1  14.86665584588459  1.51404950475048  1.01950991989199
 1  9.64924470077008 -2.66150923262326 -0.15826226872687
 1 -5.51152561356136 -1.24139128982898 -0.12160476367637
 1 -6.71418031613161 -1.25249722292229  1.02156440884088
 1 -7.16654288948895 -1.52464091229123 -0.77299551435144
 1 -6.55032731923192  2.53035183028303 -0.61661486318632
 1  6.71520506950695 -3.56612003460346  1.30148984468447
 1  6.27771511671167 -3.93275846364637 -0.32596218741874
 1  8.08661855925592 -4.22515870047005  0.10359732703270
 1  6.76528495539554 -0.31743898329833 -0.66467858975898
 1 -4.27952018361836  0.43037270247025 -0.77609366696670
 1  4.77855145864586 -2.47052630563056  0.16725906510651
 1 -4.40925697139714  3.54299228102810 -0.93397305280528
 1  4.34701477767777  0.42511985088509 -0.70755997339734
 1 -1.41945170337034  3.93865531223122 -2.23591186308631
 1 -1.36106894529453  4.31399855715572 -0.54939689948995
 1 -2.81849133723372  4.66185860136014 -1.35424371807181
 1 -2.11521040144014  0.77115374087409 -0.29122385238524
 1  2.10575961806181  1.11852584178418 -0.77089410451045
 1  2.09638816651665 -2.32518892129213  1.10212859135914
 1  1.06541161246125 -2.37972726382638 -0.36662794789479
 1  2.93001575097510 -2.78725651285129 -0.55599984298430
 1  0.41398728362836  2.29492933263326 -0.88266525802580
 1 -0.24870776677668 -0.71704187398740 -0.22075273027303

