%nproc=4
%Mem=4GB
# td=(NStates=1) CAM-B3LYP/6-31G(d,p) 

TD

0 1
 8 -14.15522139733973 -1.81965034673467  0.26689694499450
 8  14.76138797559756  1.07730531713171 -0.25792519661966
 6 -11.77555041464147  0.14744081898190  1.21382620262026
 6 -10.95944290679068  0.38789156015602 -0.07169345654565
 6 -12.10645612621262 -1.39642412681268  1.32851069236924
 6 -12.68773216671667 -2.10073113791379  0.21409556045605
 6 -11.61334662356236 -0.36409388768877 -1.22332782268227
 6  11.07856118671867  0.95372701520152  1.12065234493449
 6 -10.91837331053105  0.60036177497750  2.41409846054605
 6 -13.08743490589059  0.94151979887989  1.23909498629863
 6  12.53593077357736  1.68000742724272  0.78369575577558
 6 -12.33431441734174 -1.48301616941694 -1.17943071177118
 6  13.43448506940694  0.50233790639064  0.10200751965197
 6  10.66615608990899  0.06775736553655 -0.06272268716872
 6 -9.52040080398040 -0.07939078727873  0.03951395899590
 6  12.90310828842884 -0.07926514591459 -1.15507109340934
 6  11.44365745454545 -0.35788083338334 -1.10136519531953
 6  10.10350723632363  2.18749806180618  1.26973968736874
 6  11.20566139863986  0.24775395079508  2.38700926222622
 6 -11.23470796829683  0.24709635113511 -2.60972323052305
 6 -8.45902200250025  0.75863084548455 -0.26619024152415
 6  9.25759068836884 -0.48360613641364  0.12551263506351
 6  10.95679562506251 -1.14623759055906 -2.29324892959296
 6 -7.09983130603060  0.45519276107611 -0.23393548284828
 6  8.87765422182218 -1.70600039753975 -0.03841898289829
 6 -6.80185160666067 -0.99083784068407  0.07229011761176
 6  7.43604209170917 -2.15744861686169  0.02743168086809
 6 -6.13837361336134  1.49320289478948 -0.39417127372737
 6  7.26453964816482 -3.65150887308731  0.11385160336034
 6  6.29347661666167 -1.39471976067607  0.03852150975098
 6 -4.79026300000000  1.30336387558756 -0.39761067446745
 6  5.00230107600760 -1.63550139303930  0.13761598139814
 6 -3.96150752315231  2.55048807500750 -0.60580176917692
 6 -2.48269870797080  2.47425538313831 -0.54865761356136
 6  4.02285625112511 -0.63706421252125 -0.04261377777778
 6  2.64341138973897 -0.94789926142614  0.25164021142114
 6 -1.86171472167217  3.84359894249425 -0.97287643504350
 6 -1.76471355685569  1.38801154555456 -0.32060807720772
 6  1.78319686468647  0.15631719321932 -0.13351191309131
 6  2.16878019911991 -2.26124891219122  0.48821118901890
 6 -0.34322658155816  1.33105442674267 -0.45403876367637
 6  0.35460029082908  0.23175484328433 -0.26253951475148
 1 -10.82005874737474  1.40789257455746 -0.33644548974897
 1 -12.80308378147815 -1.37367738143814  2.17887578227823
 1 -11.27386505610561 -2.01413060806081  1.82215549814982
 1 -12.59168280188019 -3.28073718101810  0.36196105820582
 1 -10.03654905620562  0.26135781138114  2.66969559345935
 1 -10.64769493609361  1.67776085308531  2.42596731863186
 1 -11.38359595189519  0.39314273327333  3.29703388118812
 1 -13.70130133193319  0.97318332063206  0.21045751605160
 1 -13.82431820242024  0.67909951735173  2.14047804980498
 1 -13.02084076947695  1.96586020782078  1.36916740004000
 1  12.38356572327233  2.45741069056906  0.21502934613461
 1  13.01855628272827  1.97779181808181  1.73892149334934
 1 -12.69786326492649 -1.80175697219722 -2.01697588828883
 1  13.54951453625363 -0.19532927872787  0.91149148504851
 1 -9.54282664836484 -1.00415527452745  0.17201476147615
 1  13.40821596569657 -1.09903294259426 -1.58227338333833
 1  13.10018643614361  0.52091066896690 -2.00388031183118
 1  9.13866056365637  1.70425047684768  1.79225447284729
 1  9.72576443804380  2.69013161556156  0.29512642814281
 1  10.62900657395740  2.74051902360236  2.07866401740174
 1  12.00704354565457 -0.43666091469147  2.35992241364136
 1  10.24842981358136 -0.29696223722372  2.75835896399640
 1  11.56164706380638  0.89779757655766  3.34003894689469
 1 -10.23885638363836  0.45872578327833 -2.42682007770777
 1 -11.71780083638364  1.27926392489249 -2.39170623592359
 1 -11.49400724582458 -0.46273502480248 -3.26284404200420
 1 -14.73792706600660 -2.01369032163216 -0.49984818861886
 1  8.66657572557256  0.33024324952495  0.40382302850285
 1 -8.78802397129713  1.81286293909391 -0.43017833823382
 1  11.32009774427443 -2.21993348934894 -2.36864971647165
 1  9.79263212961296 -1.32215831753175 -2.50800673467347
 1  11.36517581128113 -0.45496858695870 -3.14523047114711
 1  15.26996617691769  1.37243534333433  0.64486245514551
 1  9.55864564086409 -2.60318340004000 -0.19059550205021
 1 -5.69273373437344 -1.05663281398140  0.36895429222922
 1 -7.17005590369037 -1.31690366356636  1.06234848724872
 1 -7.02203843904390 -1.52117056525653 -0.65850406520652
 1 -6.52808509500950  2.50355915101510 -0.28649185088509
 1  7.02886643564356 -3.71367479007901  1.21125082078208
 1  6.56431377657766 -4.14310949874988 -0.70460005120512
 1  8.13412330973097 -4.27831401600160 -0.04004703740374
 1  6.53598202510251 -0.35853309270927  0.02675055315532
 1 -4.28603083468347  0.37428709390939 -0.38677473507351
 1  4.68820242374237 -2.64387364036404  0.54262660186019
 1 -4.30795684138414  3.59920790259026 -0.80837049254925
 1  4.48225830203020  0.35534287318732 -0.47175639303930
 1 -1.33003276147615  3.69949139583958 -1.88999727162716
 1 -1.10417325572557  4.27047420472047 -0.22152411221122
 1 -2.75249473757376  4.38836125162516 -1.16814510821082
 1 -2.11466034643464  0.48406503200320 -0.03237796779678
 1  2.41727076917692  1.15479946914692 -0.27588460356036
 1  2.26378490619062 -2.34731113351335  1.59266764526453
 1  1.14853992529253 -2.54433372447245  0.03934264916492
 1  2.58161091049105 -3.09776756395640 -0.15764000700070
 1  0.14393027792779  2.14955479517952 -0.90932792429243
 1 -0.14585748174817 -0.84011418121812 -0.30515117011701

