%nproc=4
%Mem=4GB
# td=(NStates=1) CAM-B3LYP/6-31G(d,p) 

TD

0 1
 8 -13.97067294249425 -2.14919330103010  0.71393164846485
 8  14.74927676447645  0.87844543114311  0.21442203810381
 6 -11.72203506310631  0.03344941984198  1.26336115611561
 6 -11.02709967246725  0.27491026202620 -0.05301158835884
 6 -11.82782826342634 -1.50032451685169  1.42126996829683
 6 -12.55028842234223 -2.26314737953795  0.37170132103210
 6 -11.67350263916392 -0.49927740604060 -1.26161165106511
 6  10.96777010761076  1.01583322582258  0.95919619931993
 6 -10.74487596079608  0.61454319311931  2.40541759245925
 6 -12.97685384778478  0.77113276017602  1.17980905770577
 6  12.44193137363736  1.50766019251925  0.60499788598860
 6 -12.33269425532553 -1.63802166996700 -0.94088685738574
 6  13.47590921182118  0.39466713931393  0.42516983588359
 6  10.71854132843284 -0.10459987018702 -0.00134654955496
 6 -9.46709547344734 -0.05335818401840 -0.16470646304630
 6  13.05280325792579 -0.34377159655966 -0.94406999329933
 6  11.58019110791079 -0.62604765006501 -0.90146520532053
 6  10.07879476507651  2.23209252125213  0.96803951735174
 6  11.02341317381738  0.46039521492149  2.48487904920492
 6 -11.45941043854386  0.05061670317032 -2.64663692189219
 6 -8.42086818711871  0.81890687308731 -0.28785240774077
 6  9.19784471377138 -0.47987576337634  0.06900698449845
 6  11.33168311381138 -1.63451641844184 -1.98722832753275
 6 -7.01930325322532  0.56389363116312 -0.17437952725273
 6  8.70092654905491 -1.75023482098210 -0.15685082608261
 6 -6.70976239773977 -0.92045080198020  0.06621951055106
 6  7.35156364386439 -2.18118099009901  0.06352529022902
 6 -6.23039281528153  1.62160573507351 -0.40824268086809
 6  7.13952714691469 -3.65289901210121  0.20058027622762
 6  6.33102037103710 -1.18658894759476 -0.09051139353935
 6 -4.77028100180018  1.62570610981098 -0.45375628902890
 6  4.95253609950995 -1.53443128602860 -0.04447222742274
 6 -4.01763313571357  2.77423044924492 -0.61014220322032
 6 -2.57435787388739  2.78267622522252 -0.48750149794980
 6  3.96026999249925 -0.59031953805381 -0.20751026742674
 6  2.54586163476348 -0.77482195369537 -0.27888284088409
 6 -1.88793734393439  4.19954453705371 -0.46124527192719
 6 -1.79954704020402  1.63833657805781 -0.51242725912591
 6  1.66477502250225  0.35473703520352 -0.38669723162316
 6  1.92446576767677 -2.24608739603960 -0.23851148324832
 6 -0.36896915581558  1.50809213051305 -0.43725708550855
 6  0.34227905870587  0.40704237203720 -0.20087334813481
 1 -10.94266100760076  1.17253903920392 -0.61584342954295
 1 -12.31314478757876 -1.85660567426743  2.10909880458046
 1 -10.80720839043904 -1.70258945394539  1.68673195579558
 1 -12.12436607020702 -3.18622773007301  0.27217207930793
 1 -9.88387378867887  0.22793446904691  2.25690431433143
 1 -10.70986115271527  1.68157123412341  2.11592631453145
 1 -11.19859745204520  0.45091851085108  3.33081725952595
 1 -13.59338053985399  0.30075607790779  0.43280975127513
 1 -13.55991176177618  0.71624323172317  2.11939594159416
 1 -12.88775746114611  1.76330995279528  1.10684116741674
 1  12.35257262396240  2.16045099459946 -0.29780193699370
 1  13.02737716481648  2.24055809470947  1.33346094729473
 1 -12.66353983258326 -2.17661445794579 -1.80101429212921
 1  13.65408499329933 -0.28307805360536  1.26187652355236
 1 -9.37153951965196 -1.08521338033803  0.06138369836984
 1  13.78990413451345 -1.30135317461746 -1.01126628262826
 1  13.30079649714972  0.16389496739674 -1.84771469526953
 1  8.96377307490749  2.05570562236224  1.19368461586159
 1  9.93493535513551  2.72620522292229  0.01122803830383
 1  10.45255892919292  3.16600157185719  1.79134528552855
 1  11.71445428672867 -0.50763801240124  2.46067248864887
 1  9.98255322592259  0.12773023202320  2.83008613671367
 1  11.20182108120812  1.34023181998200  3.16052099509951
 1 -10.42967546554656  0.29766967766777 -2.74362175787579
 1 -11.86957601390139  1.01362736123612 -2.74196126142614
 1 -11.84384222932293 -0.67509626092609 -3.40705846344634
 1 -14.55948922222222 -2.63892284488449 -0.06806501030103
 1  8.45978504650465  0.26997722292229  0.10669331553155
 1 -8.75028019691969  2.01886353915392 -0.33184850525052
 1  11.68006374087409 -2.84441593759376 -1.73002585408541
 1  10.25823869026903 -1.74120022172217 -2.27119305330533
 1  11.78508780248025 -1.10107319741974 -2.95121106920692
 1  15.01712089238924  1.15163326312631  1.04365233413341
 1  9.67130690699070 -2.46698978067807 -0.27892433493349
 1 -5.55981044204420 -1.12454960566057 -0.39438204140414
 1 -6.89325822392239 -1.12298427162716  1.31818407080708
 1 -7.48497473267327 -1.69566801500150 -0.29017723252325
 1 -6.81613389988999  2.64293308840884 -0.57638083978398
 1  6.61455500450045 -3.91543496609661  1.02242193789379
 1  6.49170651585159 -4.03629881768177 -0.57683727492749
 1  8.18375827322732 -4.18077426202620  0.02183915121512
 1  6.49049747664766 -0.26982422182218  0.04163204130413
 1 -4.35776800840084  0.61237090229023 -0.25677173477348
 1  4.71226482998300 -2.56461571457146  0.04019635883588
 1 -4.53662970867087  3.65001298309831 -0.70403005850585
 1  4.11997207340734  0.39430676957696 -0.39614883228323
 1 -0.92692245044504  4.15744719141914 -1.25052332423242
 1 -1.44243708210821  4.47938509580958  0.52639067926793
 1 -2.84676416451645  4.72413482898290 -0.70207850155016
 1 -2.19899878027803  0.58583520902090 -0.60170490049005
 1  2.02025106720672  1.40780476967697 -0.59222623772377
 1  2.00288881658166 -2.66559296169617  0.75821419991999
 1  0.88073314461446 -2.38726801790179 -0.77185847094709
 1  2.98003075247525 -2.97053484068407 -0.81887613061306
 1  0.18449433433343  2.60692053175318 -0.61335832733273
 1 -0.32513540954095 -0.57910808060806 -0.49148980398040

