%nproc=4
%Mem=4GB
# td=(NStates=1) CAM-B3LYP/6-31G(d,p) 

TD

0 1
 8 -14.15652152735274 -2.06727510921092  0.32858311361136
 8  14.84925676247625  0.87771535813581  0.22565316121612
 6 -11.93729658925893  0.03568964386439  1.39490431043104
 6 -11.03162012451245  0.38137090809081  0.09331304410441
 6 -12.02235771637164 -1.55736022042204  1.46729457075708
 6 -12.60220361386139 -2.06916798159816  0.25852000290029
 6 -11.57379266816682 -0.32813029132913 -1.17308279817982
 6  11.16734006460646  0.95961760426043  1.09333961366137
 6 -11.11800327352735  0.63948568736874  2.61281833253325
 6 -13.20504666706671  0.73274892179218  1.23896497329733
 6  12.57476465696570  1.44517394389439  0.95018240444044
 6 -12.20654164006401 -1.57683555135514 -0.98912168086809
 6  13.55906752765276  0.43756142874287  0.40125744464446
 6  10.70104957925793  0.00880146994699  0.03516710181018
 6 -9.63083184708471 -0.04173702190219  0.20698070567057
 6  13.10683866146615 -0.21187840724072 -0.94543012931293
 6  11.54964805360536 -0.49646469176918 -0.83715877467747
 6  10.13473035863586  2.08875818781878  1.23374608800880
 6  11.09526035853585  0.09094827022702  2.44035459675968
 6 -11.20770526802680  0.25663730523052 -2.52333459165917
 6 -8.55827192749275  0.86729171157116  0.13949032653265
 6  9.23112804210421 -0.31565934173417 -0.02146206240624
 6  11.18282822832283 -1.32308527532753 -2.08993859855986
 6 -7.12074339723972  0.46616385818582  0.05948385908591
 6  8.81115757215722 -1.63101289878988 -0.10484562556256
 6 -6.70168158965897 -0.94351310821082  0.28120100870087
 6  7.43598208570857 -2.08393126512651 -0.05999706200620
 6 -6.13938371437144  1.39014258875888 -0.21635349194919
 6  7.25506870107011 -3.61303502570257  0.13624384258426
 6  6.32497976697670 -1.22225251395140 -0.14001634403440
 6 -4.78999297299730  1.44152769196920 -0.35540645404540
 6  4.92503334923492 -1.57536537943794 -0.08141592179218
 6 -4.05753712611261  2.61271429762976 -0.82179336833683
 6 -2.66566700480048  2.59875783338334 -0.92207495529553
 6  4.02476644214421 -0.63493399949995 -0.34442395879588
 6  2.58800584918492 -0.78974344584458 -0.28551350395040
 6 -2.09254780498050  4.00784536713671 -1.25080422782278
 6 -1.76157324282428  1.45992873727373 -0.77140315671567
 6  1.84789333433343  0.34971653315332 -0.52818138003800
 6  2.01162448354835 -2.11801458875888  0.09277164506451
 6 -0.33786604550455  1.50853217451745 -0.77203056285629
 6  0.43826865766577  0.37574924272427 -0.54390765156516
 1 -11.17960470197020  1.46193797909791 -0.09268111331133
 1 -12.64291776487649 -1.83226324002400  2.25459335403540
 1 -10.94013168276828 -1.96322551755176  1.78237151975198
 1 -12.44522815641564 -3.20562967026703  0.28258312041204
 1 -10.09890529182918 -0.05107343174317  2.83757238113811
 1 -11.12317248384839  1.78433151015101  2.38379310121012
 1 -11.71857945024503  0.48177159615962  3.48898307610761
 1 -13.66276747854785  0.36338234053405  0.39634610491049
 1 -13.88548431903190  0.92558416581658  2.07941194319432
 1 -12.92409109450945  1.78738236003600  0.86031651495150
 1  12.54429179587959  2.24697964746475  0.36620446364636
 1  12.83135756285628  1.66531056995700  2.03478107930793
 1 -12.53885736433643 -2.01033783028303 -1.92261645234523
 1  13.55647523232323 -0.47731747754775  0.96206654255425
 1 -9.49545191089109 -1.08372323132313  0.31934949494949
 1  13.72209735383538 -1.02804584388439 -1.32542769876988
 1  13.14227064456446  0.43573215111511 -1.99887981178118
 1  9.14498119571957  1.60289034083408  1.68279352675267
 1  9.98369023062306  2.65062766516652  0.34127104260426
 1  10.43302697599760  2.82879785148515  1.98896504750475
 1  11.76215905720572 -0.84213146174618  2.58696511791179
 1  10.17407237783778 -0.16587912891289  2.66730985908591
 1  11.09473037213721  0.74364216101610  3.37135207820782
 1 -10.09030152815282  0.39707961866187 -2.67400479617962
 1 -11.39644870117012  1.27614361286129 -2.63731079637964
 1 -11.54598244334433 -0.18845759705971 -3.33021077867787
 1 -14.72396566986699 -2.60148910151015 -0.35895409920992
 1  8.66308537653765  0.41354157935794  0.25592823902390
 1 -8.94759992889289  1.83189484228423 -0.29089440984098
 1  11.47140287478748 -2.34102559855986 -1.93274612611261
 1  10.27255012141214 -0.91861796349635 -2.52335826982698
 1  11.86227552125212 -0.83655674577458 -2.94476042414241
 1  15.48300748104811  0.97687578737874  1.15877384628463
 1  9.59290906720672 -2.48731181288129 -0.06610305280528
 1 -5.55636009700970 -0.97446459715972  0.70810820762076
 1 -7.34279317741774 -1.50544251745174  1.09236148854886
 1 -6.73162939813981 -1.63466191439144 -0.84316253105310
 1 -6.56071835833583  2.45567436253625 -0.42060526222622
 1  6.75206875587559 -3.83640706330633  1.01631132683268
 1  6.54797214241424 -3.93142833063306 -0.70954054525453
 1  8.33682357975798 -4.15025120972097 -0.00396342904290
 1  6.76249467636764 -0.15488272767277 -0.34444656655666
 1 -4.42237446904690  0.62237190239024 -0.17090314791479
 1  4.81811541504150 -2.57557681068107  0.26872921212121
 1 -4.63259930563056  3.42524050585059 -0.88094775027503
 1  4.36212628882888  0.56276361526153 -0.43349256665667
 1 -1.43059281748175  3.74595604230423 -2.16034430633063
 1 -1.31289412781278  4.44296145344534 -0.41910387018702
 1 -2.68692818091809  4.78144055955596 -1.42058035173517
 1 -2.24968384878488  0.54018064356436 -0.33356808680868
 1  2.35346438853885  1.23956794599460 -0.96521353645364
 1  1.90696922462246 -2.27722412481248  1.33504188268827
 1  0.98958402970297 -2.18845813691369 -0.03480476557656
 1  2.83059580898090 -3.01196898409841 -0.27430167316732
 1  0.03377926282628  2.39543938363836 -1.36945393689369
 1 -0.03592648864887 -0.60719088888889 -0.21182183718372

