%nproc=4
%Mem=4GB
# td=(NStates=1) CAM-B3LYP/6-31G(d,p) 

TD

0 1
 8 -13.97869374457446 -2.05676405810581  0.65600585588559
 8  14.77292912971297  1.17642522912291  0.28191878777878
 6 -11.79917277687769  0.12811888678868  1.29530435043504
 6 -10.98244520702070  0.32788555955596 -0.08224451165116
 6 -11.96140162076208 -1.40948543294329  1.49795763706371
 6 -12.60637403090309 -2.18203926872687  0.41049520042004
 6 -11.50325561446145 -0.50434791309131 -1.15658114801480
 6  11.05045837643764  1.00050169266927  1.16687696739674
 6 -11.02644411761176  0.78247998679868  2.43263031373137
 6 -13.11370753315332  0.78428407530753  1.10005108190819
 6  12.47604478497850  1.47898732523252  0.89527691389139
 6 -12.22049303520352 -1.58765663346335 -0.89844261296130
 6  13.49211083198320  0.46486415901590  0.42323964286429
 6  10.62323179747975 -0.00452986318632  0.05236882198220
 6 -9.53720248414841  0.01259841164116  0.18563857145715
 6  12.94432240984098 -0.10035725512551 -0.86311189748975
 6  11.52894598339834 -0.44850989628963 -0.82291735053505
 6  10.16554343994399  2.16586589858986  1.17307002040204
 6  10.81317214971497  0.25432460786079  2.53389395069507
 6 -11.24559905740574 -0.07646600510051 -2.51217347554755
 6 -8.52296839713972  0.92223720612061 -0.09323294579458
 6  9.20359528882888 -0.51545932173217  0.15534561836184
 6  11.13540348584858 -1.31612457925793 -2.01896150085008
 6 -7.08718004090409  0.71726896869687 -0.14945703500350
 6  8.71103756015602 -1.83014281178118 -0.03744888588859
 6 -6.71154257575758 -0.78985774267427  0.20448333693369
 6  7.43616210371037 -2.25910878287829 -0.17671873417342
 6 -6.20889066506651  1.63525710021002 -0.39074093069307
 6  7.07472066626663 -3.73008673087309 -0.09896967876788
 6  6.36104337333733 -1.31817210591059 -0.25125746814681
 6 -4.80343431713171  1.58202174137414 -0.49767068046805
 6  4.96436728262826 -1.64506234913491 -0.29456723692369
 6 -3.89008038043804  2.56769979617962 -0.63361455045505
 6 -2.50595103320332  2.59282724032403 -0.67749049684969
 6  4.01778574407441 -0.66177668376838 -0.38448796519652
 6  2.59883693229323 -0.88394286578658 -0.37739269186919
 6 -1.83494204440444  3.89888447104710 -1.02788193559356
 6 -1.71033811931193  1.48306105050505 -0.34250026642664
 6  1.73238178317832  0.25382694419442 -0.51165972787279
 6  2.07124044514451 -2.20490327762776 -0.27559519161916
 6 -0.31502376127613  1.41825314661466 -0.46076943674367
 6  0.36835166596660  0.31298296609661 -0.38192145294529
 1 -11.32526926842684  1.48620040534053 -0.18062990819082
 1 -12.59770324342434 -1.48400841454145  2.27413530823082
 1 -10.91510918051805 -1.84721391639164  1.67005028762876
 1 -12.26176981058106 -3.27432653995400  0.48805366746675
 1 -9.95518091939194  0.18587026262626  2.68834745864586
 1 -10.87859802640264  1.74780785778578  2.48787350925092
 1 -11.66248384068407  0.55773919291929  3.23467764556456
 1 -13.51666286808681  0.61060706300630  0.15769223952395
 1 -13.96000177077708  0.64808641604160  1.77508151015102
 1 -13.07014569996999  1.92170579237924  1.05789627292729
 1  12.46395376207621  2.37697264676468  0.07252509570957
 1  12.96649107620762  1.96746078497850  1.84613221442144
 1 -12.57840131873187 -2.24111090759076 -1.88345253595360
 1  13.37813739853986 -0.31166091189119  1.17293762966297
 1 -9.41424379007901 -1.03521838083808  0.70661822182218
 1  13.36887203130313 -0.91040407970797 -1.24166932293229
 1  13.09878629612961  0.65539411731173 -1.58035795959596
 1  9.22520921852185  1.66463651545154  1.65725097249725
 1  10.04111597319732  2.65073767616762  0.16120303580358
 1  10.58225189848985  2.89354432613261  1.81328747974797
 1  11.51574441574157 -0.53277052565256  2.68322474387439
 1  9.86552152275227 -0.01941448244824  2.74266739483948
 1  11.21023192229223  1.06144394119412  3.28405334833483
 1 -10.21743424142414  0.01172108280828 -2.55474286998700
 1 -11.61402045834584  0.92072807130713 -2.89912697799780
 1 -11.62464030913091 -0.81913066436644 -3.13738149574958
 1 -14.29221249454946 -2.29792874547455 -0.12430063386339
 1  8.40483955195520  0.31951217641764  0.13128577477748
 1 -8.68015318421842  1.93550520332033 -0.40416573697370
 1  11.56917265176518 -2.35508700470047 -2.02066491799180
 1  9.95093796019602 -1.50291639333933 -2.19028496249625
 1  11.27507680138014 -0.59709279937994 -3.11554750285028
 1  14.99556873717372  1.26147424722472  1.23237120602060
 1  9.49822959925993 -2.69558263996400  0.06781033853385
 1 -5.67200166116612 -0.94060121082108  0.25301269806981
 1 -6.96553545164516 -1.04523649684968  1.28301055345535
 1 -7.19922615781578 -1.50562901110111 -0.49287750255025
 1 -6.64123641014101  2.64413320842084 -0.55471867356736
 1  6.45946949594959 -4.17237065966597  0.73414311001100
 1  6.65374271947195 -3.94974016181618 -1.20575016621662
 1  7.92446234363436 -4.34289047364737  0.00874784208421
 1  6.80718914581458 -0.16922416181618 -0.53278540044004
 1 -4.39244147574758  0.48537820302030 -0.32434849244925
 1  4.77086068956896 -2.54012326532653 -0.04255191599160
 1 -4.36467251295130  3.41485946774677 -1.01480113561356
 1  4.23982405860586  0.31673901280128 -0.70153937133713
 1 -1.10615037323732  3.59773121982198 -2.03879215111511
 1 -1.02115495389539  4.32234939223922 -0.26774873467347
 1 -2.45055454355436  4.65433784928493 -1.57832612631263
 1 -2.28226710711071  0.45496212171217 -0.07100183018302
 1  2.42849189128913  1.01083507270727 -0.76766378147815
 1  1.84704323202320 -2.31391779417942  0.95973435193519
 1  0.99616468776878 -2.23389268036804 -0.70590187528753
 1  2.91501425082508 -3.04410219741974 -0.62288653165317
 1  0.17903378827883  2.33801364106411 -0.89818681018102
 1 -0.29365226122612 -0.62022219201920 -0.35985664066407

