%nproc=4
%Mem=4GB
# td=(NStates=1) CAM-B3LYP/6-31G(d,p) 

TD

0 1
 8 -14.18435431063106 -1.84521290299030  0.56998725402540
 8  14.75772760956096  0.89129671627163 -0.07145654975498
 6 -11.75965882548255  0.14542061696170  1.10446526652665
 6 -11.00727769026903  0.34296706770677 -0.20506679387939
 6 -11.90770625122512 -1.46310079447945  1.25862370367037
 6 -12.73953734723472 -2.11018208300830  0.11105525642564
 6 -11.60120540944094 -0.49158663696370 -1.35326081598160
 6  11.18676200680068  1.02006364886489  0.98733901360136
 6 -11.11176264946495  0.73372511131113  2.37407445814581
 6 -13.18343450585058  0.83634928182818  1.10538161496150
 6  12.66298347884788  1.45999542604260  0.58805619181918
 6 -12.31527251315132 -1.59047691549155 -1.15828859755976
 6  13.47482910381038  0.46188386098610  0.10826814571457
 6  10.65676515081508 -0.02712212241224  0.02944652975298
 6 -9.50224898879888  0.04348149994999 -0.03951394379438
 6  12.88840681828183 -0.08842606200620 -1.11141672797280
 6  11.44977806660666 -0.47796284158416 -0.98948400720072
 6  10.33364024962496  2.27783709570957  1.07196991039104
 6  11.30444127662766  0.37090626602660  2.39273983528353
 6 -11.18494299179918 -0.01415977447745 -2.73407566576658
 6 -8.48104420472047  0.81832681508151 -0.21977560006001
 6  9.21582651195120 -0.35822359815982  0.09455953975398
 6  11.02834277977798 -1.31064403120312 -2.23520312501250
 6 -7.10012133503350  0.54356159795980 -0.09219130843084
 6  8.78952540894089 -1.63386318381838 -0.13535867686769
 6 -6.71636305780578 -0.81231998889889  0.18077096569657
 6  7.40065855335534 -2.05687855985599 -0.06778784108411
 6 -6.14301407740774  1.53624719921992 -0.18946080268027
 6  7.25195839003900 -3.54282800500050  0.16458667686769
 6  6.34777204620462 -1.19500978967897 -0.05498784118412
 6 -4.77156112981298  1.40567410661066 -0.25894680808081
 6  4.96882772867287 -1.60381822472247  0.00194241404140
 6 -3.96150752315232  2.51710473667367 -0.50326151515152
 6 -2.51783222132213  2.55328328592859 -0.41114386218622
 6  3.93104707020702 -0.67347785388539 -0.20686020242024
 6  2.54287133573357 -0.88422289378938 -0.01456640924092
 6 -1.87947649784978  3.88132271487149 -0.68562771017102
 6 -1.90552763826383  1.32788553295330 -0.27576359275928
 6  1.64011255625563  0.07211877337734 -0.15038360026003
 6  2.20908422952295 -2.25065785308531  0.42474484238424
 6 -0.37545980488049  1.33004432573257 -0.34311767156716
 6  0.32678750955096  0.19827149494949 -0.09104236503650
 1 -11.11658840034003  1.38890067536754 -0.51687353255326
 1 -12.24545801890189 -1.74731474517452  2.38112600730073
 1 -10.80634830443044 -1.84270346534653  1.17057033963396
 1 -12.62405603920392 -3.07391649894990  0.14281914401440
 1 -10.06859226052605  0.33361503710371  2.53753237713771
 1 -10.80764093069307  1.80681375837584  2.08968369026903
 1 -11.61800939323932  0.92930634963496  3.33020719851985
 1 -13.83607480928093  0.53666966926693  0.11774824512451
 1 -13.90443621422142  0.35046665406541  1.95746974897490
 1 -13.27385607100710  1.97579120092009  1.22523300660066
 1  12.44581194789479  2.17019196869687 -0.11762391919192
 1  12.80966539363936  1.82419645854585  1.61584918611861
 1 -12.77698117671767 -2.00148694519452 -2.11836602730273
 1  13.45809539433943 -0.29999974577458  0.84462479837984
 1 -9.26171853755375 -1.07905276427643  0.41079863986399
 1  13.56647179127913 -0.94582762206221 -1.23320847684768
 1  13.30405682318232  0.50521909980998 -1.85872579637964
 1  9.32011870947095  2.08217826962696  1.58413366076608
 1  9.98393025462546  2.59040164256426  0.15287220272027
 1  10.66250992429243  2.92101707340734  2.03217936893689
 1  12.19259210051005 -0.42237948654865  2.57545396679668
 1  10.34619959055905 -0.17875041604160  2.97868099619962
 1  11.80567146624662  1.10163796059606  3.32147709070907
 1 -10.09525202320232 -0.12443253255326 -2.88073546924693
 1 -11.41962101840184  0.98503450195020 -2.98747581288129
 1 -11.41993983908391 -0.70271902320232 -3.50828858645865
 1 -14.76479975327533 -1.30381933453345 -0.51051925572557
 1  8.38333740174017  0.22484270947095  0.65505815201520
 1 -8.57071224012401  1.87387904070407 -0.60834615501550
 1  11.50423615811581 -2.38916041204120 -2.14083693519352
 1  9.84222708910891 -1.47372347404741 -2.15491142514251
 1  11.40735002870287 -0.83412650275027 -3.17711365946595
 1  15.20307948824883  1.18662676247625  0.81529949884989
 1  9.49664944124413 -2.33308639033903 -0.53679012151215
 1 -5.57784224522452 -1.15609275997600 -0.13372597579758
 1 -6.92800169826983 -1.12578455165517  1.18040029242924
 1 -7.37149338453845 -1.58367681588159 -0.46716493129313
 1 -6.53946623312331  2.50108890399040 -0.49449265096510
 1  6.49830337933793 -3.58731215381538  1.13315301100110
 1  6.77680502570257 -4.23903909170917 -0.61278086928693
 1  8.28815871327133 -3.85702188678868  0.29909687698770
 1  6.66017444434443 -0.15205244464446 -0.25836795869587
 1 -4.34392662426243  0.52603226842684 -0.06656271387139
 1  4.62761636513651 -2.46019527252725  0.28063040224022
 1 -4.45442148784878  3.55943392519252 -0.72641229672967
 1  4.36759683588359  0.28723606250625 -0.16030524792479
 1 -1.20442020022002  3.69857130383038 -1.38857712961296
 1 -1.33463630203020  4.01452861016102  0.41000904110411
 1 -2.70512000010001  4.60274268976898 -1.07452574627463
 1 -2.18118699909991  0.28478510401040 -0.29569429942994
 1  2.08390743284328  1.04251824102410 -0.45257227232723
 1  2.77749627732773 -3.02342874527453  1.24734311281128
 1  1.26111118241824 -2.32400169126913  0.78112682758276
 1  1.99723247264726 -3.00234802200220 -0.79561380438044
 1  0.04482036693669  2.17419725942594 -0.68279527102710
 1 -0.30043293929393 -0.73588375817582 -0.22797345234523

