%nproc=4
%Mem=4GB
# td=(NStates=1) CAM-B3LYP/6-31G(d,p) 

TD

0 1
 8 -14.06161203640364 -2.21836021772177  0.35278553385339
 8  14.93080491729173  0.77443503010301  0.08057865376538
 6 -11.77231009060906 -0.02170609570957  1.37167198719872
 6 -10.94658162066207  0.30763353435344  0.05173888668867
 6 -11.95701118171817 -1.62440692509251  1.36855469676968
 6 -12.68134152765277 -2.19979104390439  0.13033718461846
 6 -11.63081837073707 -0.31336881518152 -1.21206669656966
 6  11.10595392599260  0.90255189768977  1.11013129282928
 6 -10.99004047724772  0.47859959875988  2.54294134483448
 6 -13.07199336173617  0.84851049794980  1.46895797259726
 6  12.55061224172417  1.39653908040804  0.85822320852085
 6 -12.35310629652965 -1.44819268706871 -1.19436220492049
 6  13.58768038893889  0.40377805040504  0.33629094799480
 6  10.65207468176818 -0.11078048824882 -0.01040745564556
 6 -9.54691345524552 -0.12810565876588  0.11912191979198
 6  12.97406538413841 -0.22781000040004 -1.00246583288329
 6  11.49379246804680 -0.50409545484548 -0.99779483828383
 6  10.25236212181218  2.18558787078708  1.24167688108811
 6  11.06380721322132  0.31421059645965  2.46065662696270
 6 -11.32752725022502  0.38452009350935 -2.45785804400440
 6 -8.51416751705171  0.91651663406341  0.06241261876188
 6  9.27147207650765 -0.48584636043604  0.20721080488049
 6  10.95433537903790 -1.30855382218222 -2.23651325602560
 6 -7.18271959485949  0.56639388118812  0.03271118181818
 6  8.85068152455246 -1.70312010951095  0.05749060806081
 6 -6.76499792129213 -0.89604836173617  0.19832272087209
 6  7.42361084858486 -2.10815368736874  0.11805074277428
 6 -6.29740951695169  1.57449102360236 -0.31654351095109
 6  7.24862805700570 -3.57079080128013  0.27215743394339
 6  6.35456272527253 -1.15854614331433 -0.12158450085008
 6 -4.82496647034703  1.43091663086309 -0.48831974537454
 6  4.94135498139814 -1.39421726462646 -0.04234201440144
 6 -3.94152552495250  2.48096112231223 -0.68449963896390
 6 -2.60983142124212  2.54191214881488 -0.82131487928793
 6  4.08165213071307 -0.50912141824182 -0.33111262766277
 6  2.60975802440244 -0.69060353185319 -0.20364531713171
 6 -2.05678422862286  3.87777235983598 -1.31495064246425
 6 -1.74316140164016  1.53358610301030 -0.59750576697670
 6  1.80223876887689  0.39286084758476 -0.39676823872387
 6  2.09623294439444 -2.04773756105611  0.07526989488949
 6 -0.37129938883888  1.48819014031403 -0.72271563136314
 6  0.37864269506951  0.33371503930393 -0.40377363816382
 1 -10.93716045754575  1.42745453075308 -0.14319616481648
 1 -12.58049152225222 -1.73096311001100  2.20475837053705
 1 -10.90842851245124 -2.14777397239724  1.62825610821082
 1 -12.36157979157916 -3.20220932823282  0.15258012011201
 1 -10.13292869416942 -0.09951827622762  2.76646527042704
 1 -11.00239040564056  1.69033211021102  2.32047676957696
 1 -11.64471206350635  0.54908832783278  3.36547072487249
 1 -13.87225842764276  0.81575757805781  0.72249872017202
 1 -13.76214198479848  0.56096770417042  2.33683768576858
 1 -12.82294097949795  1.89160278207821  1.53978446174617
 1  12.48289565626563  2.25394034353435  0.23103094629463
 1  13.07247167426743  1.79018305720572  1.73659126032603
 1 -12.86895037363736 -1.60198699519952 -2.21226541724172
 1  13.62107169196920 -0.47185693149315  0.95749608550855
 1 -9.06499886558656 -1.07643250225023  0.29069662966297
 1  13.65149029312931 -1.06237927722772 -1.31479663566357
 1  13.26544296179618  0.45685426332633 -1.80753067686769
 1  9.25855255285529  1.93315336713671  1.43564881228123
 1  10.06760862246225  2.85121772417242  0.31829874537454
 1  10.75214888818882  3.08700367206721  1.99155530653065
 1  11.83527636893689 -0.37360460906091  2.59824624602460
 1  10.03902887348735 -0.13822636363636  2.98224135223522
 1  11.21567246634663  1.08973677047705  3.20438538153815
 1 -10.07544004200420  0.33218312901290 -2.65778317401740
 1 -11.69786884318432  1.52451845034503 -2.45913297859786
 1 -11.76845469056906 -0.33382213351335 -3.27396515411541
 1 -14.56529980328033 -2.63073202580258 -0.55171337513751
 1  8.56653572157216  0.28782900810081  0.56082872907291
 1 -8.74101927082708  2.01755340814081 -0.01356667706771
 1  11.26580231473147 -2.37064856085609 -2.11324417591759
 1  9.86776964336434 -1.23816991869187 -2.26088202220222
 1  11.40042933663366 -0.90883397349735 -3.13788973707371
 1  15.41140032033203  0.97943604340434  0.80695866476648
 1  9.55386516281628 -2.53060614231423  0.08433199069907
 1 -5.68865332633263 -1.07034418511851  0.28411580838084
 1 -7.21931082918292 -1.22441441464146  1.15281753415342
 1 -7.23017925312531 -1.46342479067907 -0.65072328712871
 1 -6.72166445294529  2.72416121122112 -0.50329353105311
 1  6.29473302230223 -3.80683410601060  1.18357805350535
 1  6.74848219341934 -4.02972816061606 -0.71124071527153
 1  8.17998789618962 -4.06105228982898  0.67707467476748
 1  6.64188261516152 -0.22738997839784 -0.49857197909791
 1 -4.49011124272427  0.49302896809681 -0.41536759435944
 1  4.82570617411741 -2.55619487248725  0.31677401660166
 1 -4.42718876457646  3.42434041584158 -1.01626128162816
 1  4.48696877307731  0.52117945684569 -0.58229744714471
 1 -1.42132189038904  3.60512195889589 -2.18360663256326
 1 -1.35098793719372  4.26508366566657 -0.51750371017102
 1 -2.91673116121612  4.61820423592359 -1.59563785748575
 1 -2.16046492689269  0.59752637813781 -0.22235696569657
 1  2.25550459255926  1.52421641084108 -0.69382639773977
 1  2.42666119381938 -2.43420982338234  1.06186456495650
 1  0.90177524882488 -2.13218250935094  0.19640835573557
 1  2.17188993839384 -2.99324711191119 -0.55943018601860
 1  0.25295118001800  2.34549438913891 -1.15436242774277
 1 -0.21538443444344 -0.56815698549855 -0.12738339333933

