%nproc=4
%Mem=4GB
# td=(NStates=1) CAM-B3LYP/6-31G(d,p) 

TD

0 1
 8 -14.24260013521352 -1.78958734043404  0.74000425572557
 8  14.77686952375237  1.13965155175518  0.18100869676968
 6 -11.76468932853285  0.09619569446945  1.29462428242824
 6 -11.00480744324432  0.33120589158916 -0.16695298249825
 6 -11.98807428802880 -1.44745923032303  1.49163700500050
 6 -12.82203559705971 -2.02870393519352  0.38450260116012
 6 -11.70515580448045 -0.47322480078008 -1.27562305220522
 6  10.93908723932393  0.98347999049905  1.10421070077008
 6 -10.88874034723472  0.71876361516152  2.50469752045205
 6 -13.06637279967997  0.94824047094709  1.26662773957396
 6  12.46781396189619  1.59457888438844  0.90722810901090
 6 -12.46046703260326 -1.54552242004200 -0.97019978867887
 6  13.46920854175418  0.52546021862186  0.45507282618262
 6  10.65259473377338 -0.03449285948595  0.13364694979498
 6 -9.56509527342734 -0.03929677787779 -0.03685367776778
 6  13.08497647524752 -0.15453267266727 -0.76218180448045
 6  11.55678876767677 -0.45928097339734 -0.87783284208421
 6  10.05361224682468  2.21679099109911  1.11618433183318
 6  10.90191102360236  0.32651182658266  2.55092565386539
 6 -11.49982447994799  0.08449009050905 -2.64510676887689
 6 -8.54860096039604  0.78400338273827 -0.21048467096710
 6  9.24595952525253 -0.43216099189919  0.04586467026703
 6  11.29871981748175 -1.27857082388239 -2.05932553725373
 6 -7.07565888878888  0.54067130893089 -0.21026311561156
 6  8.90083654005401 -1.70666046354635 -0.21451659265927
 6 -6.77451887338734 -0.87632638953895  0.14400728932893
 6  7.50376886438644 -2.16945981798180 -0.23845490779078
 6 -6.17177695369537  1.46142971747175 -0.44310616721672
 6  7.31259445364536 -3.63181690389039 -0.00210999279928
 6  6.43894116311631 -1.35343563226323 -0.39309165156516
 6 -4.70539451315132  1.30594413361336 -0.49704061746175
 6  5.03217406330633 -1.62629047194719 -0.30605838603860
 6 -3.91543291569157  2.48522154835484 -0.52920410941094
 6 -2.50220065816582  2.55248320592059 -0.66178892669267
 6  4.01798576407641 -0.72225273137314 -0.43853336973697
 6  2.64253130173017 -0.91525599709971 -0.35002995559556
 6 -1.99113766396640  3.86703128572857 -0.78596774417442
 6 -1.69390647614761  1.44494723912391 -0.36154217061706
 6  1.85984452945295  0.19880144164416 -0.44466302820282
 6  2.14723804490449 -2.34276706400640  0.16470883878388
 6 -0.30320257915792  1.46030735203520 -0.60393375317532
 6  0.43783861466147  0.28055972377238 -0.31174443524352
 1 -10.94988172967297  1.42875466076608 -0.21873371857186
 1 -12.58696216931693 -1.47325733943394  2.44049194389439
 1 -11.07029469906991 -1.93616281128113  1.67775105770577
 1 -12.61614524812481 -3.18599770707071  0.23430829292929
 1 -9.88832423372337  0.31144281988199  2.30034865876588
 1 -11.00249041564156  1.86739981698170  2.21880660256026
 1 -11.35000259255925  0.64231765076508  3.48006218401840
 1 -13.66523772557256  0.81587759005901  0.42320879117912
 1 -13.63751952255225  0.73691529892989  2.18832283428343
 1 -12.67475616101610  1.92942656445645  1.30329081238124
 1  12.32862022872287  2.38700364986499  0.13398124132413
 1  12.65926035313531  1.98249228812881  2.03947154835484
 1 -13.20215369396940 -1.84204100060006 -1.78896308700870
 1  13.75246483128313 -0.32200194599460  1.15126546244624
 1 -9.14450681638164 -1.08061292029203  0.35548310831083
 1  13.72600774487449 -0.96301934123412 -0.96013116911691
 1  13.17214363186319  0.59502808070807 -1.48687861166117
 1  9.18008470607061  1.50900095189519  1.63690893829383
 1  9.95444730633063  2.93082568496850  0.21452836833683
 1  10.36588026132613  2.70265523722372  2.19282543354335
 1  11.81184402570257 -0.37248449704970  2.57041346274627
 1  9.94566953755375 -0.21063360436044  2.83241636973697
 1  11.11257215631563  1.05906370317032  3.44533947694770
 1 -10.38256075407541  0.12825273597360 -2.87279467516752
 1 -11.94338339463946  1.02273827232723 -2.65833289858986
 1 -11.85986383148315 -0.73197194849485 -3.30486824442444
 1 -14.70314358765877 -2.26701565416542 -0.00154835863586
 1  8.46309537753775  0.23747397259726 -0.11498885268527
 1 -8.90721589048905  1.75726737953795 -0.76029134953495
 1  11.55342107660766 -2.37209870587059 -1.92331518301830
 1  10.25005787218722 -1.30062616431643 -2.28223415741574
 1  11.82868216191619 -1.01846493659366 -3.00849679777978
 1  15.08009719001900  1.55761386118612  1.05900386928693
 1  9.65094487078708 -2.56039912161216  0.00506406390639
 1 -5.58998345934593 -0.96716386708671  0.10777817461746
 1 -6.98225712381238 -1.01517349054906  1.18555080748075
 1 -7.41695793099310 -1.63726217441744 -0.47660587538754
 1 -6.43263555005501  2.51219001410141 -0.69342254395439
 1  7.33508705770577 -4.01197462006201  1.20158985468547
 1  6.47320466566657 -3.93464865266527 -0.53379297049705
 1  8.17720761816182 -4.10036622122212 -0.49729276197620
 1  6.58109653655366 -0.43696093549355 -1.07744986688669
 1 -4.21273350495049  0.28274793999400 -0.56448250585059
 1  4.89279288278828 -2.66229548254825  0.24251659085909
 1 -4.32770881658166  3.52068004980498 -0.50926058155816
 1  4.29825990219022  0.22009934883488 -0.70331954935494
 1 -1.36999675787579  3.96163761046105 -1.85820409230923
 1 -1.36963980238024  4.22122928022802 -0.02284424422442
 1 -2.71276076417642  4.67289970547055 -0.72036032973297
 1 -2.17320620102010  0.48611523702370 -0.20032476247625
 1  2.40766980908091  1.05049903910391 -0.66555357045705
 1  2.08736726442644 -2.30688709110911  1.38015639413941
 1  1.01533660496050 -2.22495178627863 -0.25279656475648
 1  2.79355210461046 -3.21812960016002 -0.32296653965397
 1  0.18630451535153  2.20114995469547 -1.04760175167517
 1 -0.00790368636864 -0.58168833863386  0.19148849384939

