%nproc=4
%Mem=4GB
# td=(NStates=1) CAM-B3LYP/6-31G(d,p) 

TD

0 1
 8 -14.14296017121712 -2.19928831053105  0.61681193649365
 8  14.92401423822382  0.58047563416342  0.22424302020202
 6 -11.83588644824482  0.05430150505051  1.20356517651765
 6 -11.01578854135414  0.28007077807781 -0.11448773597360
 6 -12.00849633023302 -1.50081456585659  1.54410225152515
 6 -12.76043943744375 -2.29450051485149  0.33806795769577
 6 -11.64152944184418 -0.61986946524652 -1.24456994689469
 6  11.26703003360336  0.89974161666167  1.15934621432143
 6 -11.06628810201020  0.72516425522552  2.46861391209121
 6 -13.26762292469247  0.67825347224722  1.07524860166017
 6  12.71955913641364  1.28047747424742  0.85278266446645
 6 -12.36913789968997 -1.69514738253825 -0.97674044274427
 6  13.61082270317032  0.17991566416642  0.35563288218822
 6  10.72525199949995 -0.00183959415942  0.02895648074807
 6 -9.56888565246525 -0.03455630383038  0.00678068566857
 6  13.02056003360336 -0.26589380878088 -1.02821840814081
 6  11.59416250505051 -0.58627367266727 -0.93606866566657
 6  10.44735162076208  2.22189150115012  1.15415812921292
 6  11.29486031853185  0.27149632503250  2.49071963326333
 6 -11.30232472997300 -0.31117947644764 -2.72487474567457
 6 -8.47486358665867  0.78186316871687 -0.09508313081308
 6  9.30071500080008 -0.39041681748175  0.23418350215022
 6  11.13728367386739 -1.39289225602560 -2.15332493719372
 6 -7.01802312521252  0.51188843064306 -0.10150223952395
 6  8.69015547194719 -1.59559935743574 -0.10060520152015
 6 -6.49072049354935 -0.80858961586159  0.37533042164216
 6  7.27446593409341 -2.05599847184718 -0.21304236653665
 6 -6.19863963996400  1.61909548404840 -0.45744760136014
 6  7.06543973817382 -3.50395411761176 -0.24722450425043
 6  6.24104137313731 -1.06637692639264 -0.14647699009901
 6 -4.78011198489849  1.77393093229323 -0.41511242464246
 6  4.98520936683668 -1.44613245614561 -0.03718149834983
 6 -4.02775414781478  2.77329035523552 -0.63615480448045
 6 -2.62062250035003  2.80887884548455 -0.70307305510551
 6  3.94904887038704 -0.52155266136614 -0.05673518991899
 6  2.55316236483648 -0.82467693919392 -0.07285223782378
 6 -1.97477602780278  4.14769935253525 -1.01712085948595
 6 -1.81700878637864  1.67862060646065 -0.49132514891489
 6  1.66165471047105  0.31839340084008 -0.28026658855886
 6  2.11346466756676 -2.09417220452045  0.09785215311531
 6 -0.44313657255726  1.60195151645165 -0.51155451525153
 6  0.31594642544254  0.37874954275428 -0.36211947274727
 1 -11.21840858235823  1.44904668996900 -0.42762460766077
 1 -12.67867134023402 -1.85937595129513  2.43676157085709
 1 -11.06021369096910 -1.99823901890189  1.69538282088209
 1 -12.35733936753675 -3.47968707600760  0.29327418951895
 1 -10.13448885018502  0.31188286388639  2.49522814671467
 1 -10.85647581418142  1.71702477947795  2.09633435533553
 1 -11.62205979827983  0.78674209320932  3.42070624842484
 1 -13.76597779957996  0.40341634393439  0.35858232853285
 1 -14.04645041564157  0.57316892429243  1.79980398239824
 1 -12.97603628902890  1.61640526232623  1.10907139043904
 1  12.70555792249225  2.11297624712471 -0.05774793159316
 1  13.20087451455145  1.98384242314231  1.79907750895090
 1 -12.78272175077508 -2.11403820032003 -1.80957514821482
 1  13.63778336313631 -0.72533227902790  0.90494082998300
 1 -9.29744210991099 -1.07981284028403  0.44660222022202
 1  13.49020416451645 -1.11700473977398 -1.35865102110211
 1  13.28613503100310  0.45117369526953 -1.75491541534153
 1  9.39831652925293  1.87912796459646  1.57664291169117
 1  10.45895775737574  2.90546314871487  0.21351826732673
 1  10.98141181448145  2.78200317201720  1.92608875987599
 1  11.63100594189419 -0.83075032363236  2.40638706010601
 1  10.20238520912091  0.02417987698770  2.62677580568057
 1  11.75995689478948  0.91664946174618  3.24392933593359
 1 -10.29502200020002  0.01432134283428 -2.83754114981498
 1 -11.76680573687369  0.51378737723772 -2.94682174747475
 1 -11.90020786588659 -0.95317406870687 -3.37825558315832
 1 -14.51586485978598 -2.04037298989899 -0.32039024282428
 1  8.73075214321432  0.56873709890989  0.71437408360836
 1 -8.63169833873387  1.86400805360536 -0.12019734013401
 1  11.28686442094209 -2.51941343734373 -2.04418727022702
 1  10.05971883828383 -1.16287238893889 -2.41447738173817
 1  11.59112840654065 -0.93736682678268 -3.03657960606061
 1  15.28357753805381  1.11795989578958  0.95414338323832
 1  9.38382815911591 -2.48842192389239 -0.41973841634163
 1 -5.39647410841084 -0.82131928262826  0.47517491429143
 1 -6.93319221732173 -1.03207518071807  1.30358261066107
 1 -6.88877511271127 -1.51829027722772 -0.27647586238624
 1 -6.93603589008901  2.34322311741174 -0.77733093479348
 1  6.41481503050305 -3.83551697429743  0.57824752045205
 1  5.99962730793079 -3.59078426622662 -0.80722031323132
 1  7.75350524792479 -4.45136132073207 -0.44470750345035
 1  6.41247967486749  0.14292705330533 -0.06839896179618
 1 -4.24850708230823  0.85795546074607 -0.04487054465447
 1  4.65618922242224 -2.51984123712371  0.12160449964996
 1 -4.50358640434043  3.73675165696570 -0.92894254975498
 1  4.04389446564657  0.67218455735574 -0.23553277067707
 1 -1.66889664786479  4.19417086378638 -2.08249652155216
 1 -1.04151699009901  4.33284044134413 -0.37712967276728
 1 -2.68734822292229  5.03276569206921 -0.84726302000200
 1 -2.51285016541654  0.77843446894690 -0.32305703570357
 1  2.11809085118512  1.25364935413541 -0.45056207130713
 1  2.22769129682968 -2.41605800820082  1.03460183868387
 1  1.11129620092009 -2.01655094619462 -0.07995928102810
 1  2.52651540094009 -2.72612039923992 -0.72856709970997
 1  0.16958284318432  2.57548738843884 -0.76651364286429
 1 -0.27233012901290 -0.75430560036004 -0.28362901790179

