%nproc=4
%Mem=4GB
# td=(NStates=1) CAM-B3LYP/6-31G(d,p) 

TD

0 1
 8 -14.11704757995800 -1.95835421712171  0.74753500880088
 8  14.64947678447845  1.09872745934593  0.44332492839284
 6 -11.82725558515852  0.17697377227723  1.22758757875788
 6 -10.98396535903590  0.37017978897890 -0.12472876007601
 6 -11.97596307690769 -1.31883636803680  1.52984082538254
 6 -12.67947134063406 -2.15087615241524  0.46239038993899
 6 -11.49349463836384 -0.59640711901190 -1.15350083998400
 6  11.04848817941794  0.88842048454846  1.13510379007901
 6 -10.98534000720072  0.88138987778778  2.40171722242224
 6 -13.18213437583758  0.85748139503950  1.10953203000300
 6  12.40607778827883  1.45154458095810  1.04208159435944
 6 -12.22290327622762 -1.70652852065207 -0.99066183488349
 6  13.42496411731173  0.48487616021602  0.64683200210021
 6  10.63536301060106 -0.00988039823982  0.04657824292429
 6 -9.58232699659966  0.05007215901590  0.12116212381238
 6  12.97253523112311 -0.07381460086009 -0.77163274957496
 6  11.59672276107611 -0.51901694699470 -0.86866192499250
 6  10.03934081968197  2.08650796279628  1.22033474687469
 6  10.96112694519452  0.13341251665167  2.56279684098410
 6 -10.99869436693669 -0.21983034153415 -2.59381163936394
 6 -8.54764086438644  0.88953393579358 -0.10085370787079
 6  9.23613854315431 -0.44883265906591 -0.06725664186419
 6  11.41791173667367 -1.33430639743974 -2.17381698639864
 6 -7.08825014791479  0.54277151895190  0.11082899359936
 6  8.78905536193619 -1.72148194569457 -0.24462960396040
 6 -6.70873229472947 -0.89616837373737  0.47592048064806
 6  7.42087057455746 -2.22466533853385 -0.27138820112011
 6 -6.09615939193919  1.59215278977898 -0.24355621222122
 6  7.15343853805381 -3.61846556875688 -0.21378115991599
 6  6.37647491649165 -1.20783107180718 -0.35105744814481
 6 -4.73023699739974  1.47963150235023 -0.30552146554655
 6  5.00068091399140 -1.49419726262626 -0.31652943314331
 6 -3.97177855025503  2.58280130633063 -0.57992918191819
 6 -2.60790122822282  2.70184814241424 -0.70221296909691
 6  3.91854582008201 -0.68925943204320 -0.54673418981898
 6  2.58270531913191 -0.84708918041804 -0.37141209380938
 6 -1.95326387658766  4.01526610921092 -1.11634078147815
 6 -1.74146123162316  1.50193293769377 -0.55019103550355
 6  1.78404694969497  0.21653321482148 -0.59483804570457
 6  2.08457177827783 -2.30025281258126 -0.04218185028503
 6 -0.37062932183218  1.48602992429243 -0.66164952475248
 6  0.35266009680968  0.23309497729773 -0.58030129092909
 1 -11.13535027652765  1.40926271157116 -0.42643448864887
 1 -12.53800727382738 -1.68200821452145  2.51014890959096
 1 -11.04702237183718 -1.80547974297430  1.69672295489549
 1 -12.49448308190819 -3.40560966826683  0.49770463256326
 1 -10.16631203250325  0.29312098769877  2.60234885878588
 1 -10.80920108670867  1.91425450245025  2.17043176507651
 1 -11.58218581088109  0.63855727472747  3.42472665046505
 1 -13.53114431623162  0.48308431073107  0.02683915421542
 1 -13.93756952755276  0.53990559795980  1.97795179717972
 1 -13.19921860726073  2.17268088988899  1.23107359065907
 1  12.55088245494549  2.10859580908091  0.21303914711471
 1  12.71853628072807  2.07958199709971  2.01186878807881
 1 -12.51848532713271 -2.38685548204820 -1.79360355105511
 1  13.33240282508251 -0.29026877267727  1.32379271517152
 1 -9.36148851455146 -1.06229108810881  0.42134969496950
 1  13.89422456655666 -0.79920295959596 -0.90199535553555
 1  13.16892330983098  0.67910648854886 -1.48389831363136
 1  9.09755645324532  1.76405645744574  1.70290553795380
 1  9.72100396199620  2.53692629502950  0.30584750025003
 1  10.53560723402340  2.95466043774377  1.82480863186319
 1  11.88304114541454 -0.69391664026403  2.86811323272327
 1  10.07494246484648 -0.46523906490649  2.48060118821882
 1  10.89276017511751  0.88612640944094  3.40545548854886
 1 -9.98244074207421 -0.37748783808381 -2.75487288298830
 1 -11.49789884618462  0.78203420192019 -2.99938700400040
 1 -11.35589343444344 -0.99825857715772 -3.32715047264726
 1 -14.57896116941694 -2.45138409100910 -0.01923012681268
 1  8.39705877387739  0.18244847004700  0.15810845704570
 1 -8.69564473337334  1.90811246404640 -0.30844616501650
 1  11.63647938243824 -2.49629112511251 -2.00684353585359
 1  10.18342120852085 -1.22209831153115 -2.41568750275027
 1  11.91628092179218 -0.92298538863886 -3.09769571767177
 1  15.19554873517352  1.22413051285129  1.36035400430043
 1  9.64795457175718 -2.41480456215622 -0.23872031453145
 1 -5.57386184718472 -0.91248839953995  0.43038043484348
 1 -7.23206210431043 -1.30213218641864  1.46209846224622
 1 -7.14445068026803 -1.44434288248825 -0.36169438423842
 1 -6.55948823532353  2.55076387148715 -0.76948014971497
 1  6.82033558255826 -3.91309473207321  0.79223891959196
 1  6.34247159235924 -3.81948713651365 -0.65240483168317
 1  7.83084298169817 -4.23403958855886 -0.60523355605561
 1  6.58932735963596 -0.27137437683768 -0.53878600050005
 1 -4.33721595319532  0.70039970517052  0.14312825522552
 1  4.76067967146715 -2.66152540554055 -0.13564122492249
 1 -4.47624367006701  3.46644462626263 -0.95111476697670
 1  4.33463353955396  0.38399573847385 -0.88787800520052
 1 -1.53415317351735  4.01328277497750 -2.10750902280228
 1 -0.87172001040104  4.33061021832183 -0.57936989678968
 1 -2.83766325442544  4.81696411191119 -1.03105139883988
 1 -2.16013489388939  0.54312093759376 -0.39590432043204
 1  2.29829887198720  1.16542053125313 -0.79389640474047
 1  2.40754928262826 -2.66663306570657  1.07078545704570
 1  0.93936900820082 -2.28679797089709 -0.28844012911291
 1  2.48263101250125 -3.19234702190219 -0.86811105410541
 1  0.18060394529453  2.33390323002300 -1.03930092159216
 1 -0.41910480648065 -0.66361653145315 -0.23596425142514

