%nproc=4
%Mem=4GB
# td=(NStates=1) CAM-B3LYP/6-31G(d,p) 

TD

0 1
 8 -14.17871374657466 -2.02926130783078  0.45505576087609
 8  14.83210504730473  0.93197078367837  0.09062965886589
 6 -11.79635249484949  0.06531260616062  1.27777259725973
 6 -10.95038200070007  0.30725349634963  0.01702541534153
 6 -12.01369685028503 -1.34994947934793  1.43494133543354
 6 -12.74976837033703 -2.03880494529453  0.17034118501850
 6 -11.56650193909391 -0.33282076037604 -1.13195868576858
 6  11.06096942754275  0.93314495699570  1.06648692839284
 6 -10.92015348854886  0.41651339013901  2.51443849454945
 6 -13.13067923032303  0.95294094099410  1.25488656545655
 6  12.52417959845985  1.45559498599860  0.77011439763976
 6 -12.38852983888389 -1.38697656545655 -1.03066583528353
 6  13.59194081498150  0.39844751735174  0.36340365926593
 6  10.61949142344234  0.11901249104910 -0.03225964086409
 6 -9.56407517141714 -0.06348919711971  0.02283229082908
 6  13.03753173077308 -0.18926614601460 -0.93917950425042
 6  11.59819290809081 -0.39697474277428 -0.89789484828483
 6  10.20337722332233  2.22543185518552  1.09827254065407
 6  11.14171500400040  0.15548472387239  2.42721328262826
 6 -11.20320481798180  0.19153079457946 -2.52926518471847
 6 -8.56403250355036  0.79025400780078 -0.20507412991299
 6  9.27770269956996 -0.36942471827183 -0.00121003720372
 6  11.00209015451545 -1.28701166796680 -2.10787039173917
 6 -7.10758208110811  0.44845208700870 -0.22832492179218
 6  8.82279873627363 -1.61648144564456 -0.08129327032703
 6 -6.67589901140114 -0.91722047894789  0.10359324792479
 6  7.40245873337334 -2.00975384738474  0.04843378107811
 6 -6.16754653065307  1.47492106660666 -0.34226608320832
 6  7.22921611581158 -3.46553027522752  0.07433765196520
 6  6.38207547654765 -1.19269955865587 -0.13417575997600
 6 -4.74819879357936  1.31071461066107 -0.32269318271827
 6  5.02533337923792 -1.58657650055005  0.00378259805981
 6 -4.01256262866287  2.47438046424642 -0.58188937793779
 6 -2.64171460956096  2.59628758635864 -0.73251599939994
 6  4.04265823132313 -0.73592409850985 -0.14231374777478
 6  2.63836088468847 -0.86103057455746 -0.07437238983898
 6 -1.99517806800680  3.95876045864586 -0.96895604300430
 6 -1.86615370087009  1.46013875827583 -0.60909692609261
 6  1.78649719471947  0.21503306480648 -0.33423198509851
 6  1.91413473457346 -2.24291707900790  0.26850921882188
 6 -0.35890814971497  1.38587990929093 -0.67485084488449
 6  0.40313514431443  0.21592326012601 -0.46372963376338
 1 -11.27362410391039  1.44020580588059 -0.06963880908091
 1 -12.58084155725572 -1.50034004770477  2.50772866756676
 1 -11.15794346394640 -1.80108930393039  1.75323860646065
 1 -12.68696232983298 -3.16349545684568  0.24628949104910
 1 -9.82125752705271  0.02076375197520  2.65359398329833
 1 -10.78894906150615  1.41724480148015  2.50312503440344
 1 -11.51396898919892  0.24741816081608  3.49405358315832
 1 -13.64271547334733  0.63333933623362  0.30123659395940
 1 -13.71064683528353  0.57198880628063  2.13962796479648
 1 -12.92848153355335  1.95679930173017  1.07796828012801
 1  12.54649201590159  2.21856680618062 -0.00024218101810
 1  13.13647807490749  1.91897593649365  1.53617121832183
 1 -12.81940541914191 -1.74049084558456 -1.95132932363236
 1  13.52009159395940 -0.21497124292429  1.26153648954895
 1 -9.29172153785379 -1.06369122812281  0.15242280228023
 1  13.50364550865087 -1.20271331063106 -1.01079623562356
 1  13.26500291779178  0.33581215911591 -1.96123604740474
 1  9.33957065466547  1.95227527932793  1.55509075647565
 1  10.08606046764677  2.46525912831283  0.07301421692169
 1  10.77401107440744  2.89848482018202  1.68445459645965
 1  11.87330017131713 -0.65241248984898  2.30992741414141
 1  10.26630160076007 -0.18570111111111  2.90686381448145
 1  11.19816071517152  0.95761355815582  3.23444838783878
 1 -10.12608510651065  0.48189810051005 -2.46650404610461
 1 -11.57947700400040  1.20252625112511 -2.62653971927193
 1 -11.54530237533753 -0.59865861716172 -3.33175093269327
 1 -14.54584785808581 -2.09844879747975 -0.41680988478848
 1  8.61669073707371  0.43375360056006  0.23510615681568
 1 -8.70000516941694  1.89272092489249 -0.39525484588459
 1  11.48629436393639 -2.23338483448345 -1.80624347584758
 1  10.07585045144515 -1.26901300300030 -2.35836177017702
 1  11.78602789648965 -0.89977306740674 -2.84864081218122
 1  15.14679385968597  1.28261636143614  0.95827379627963
 1  9.44109388568857 -2.49328240994099 -0.06702314481448
 1 -5.58912337333733 -1.14111126182618 -0.29532213541354
 1 -6.79182808090809 -1.34174614781478  1.13364561696170
 1 -7.15889212441244 -1.48690713891389 -0.61269948474847
 1 -6.44009629612961  2.29440823592359 -0.24248745044504
 1  6.92470601960196 -3.91352477507751  1.06546624232423
 1  6.53287063226323 -3.75310049784979 -0.49144873607361
 1  7.95417531493149 -4.20043622822282 -0.17245027772777
 1  6.71396982388239 -0.08777601700170 -0.39494161606161
 1 -4.27647987958796  0.34735440064006 -0.13638969656966
 1  4.82274587808781 -2.65200445344534  0.19163150235023
 1 -4.63279932563256  3.43623160496050 -0.60135979147915
 1  4.41665174137414  0.32089942884288 -0.15304452185219
 1 -1.28129788798880  3.82351379807981 -1.81907017891789
 1 -1.35479831823182  4.08990614791479 -0.24396635643564
 1 -2.72503199129913  4.73792620812081 -1.20501879557956
 1 -2.15012389278928  0.50924755025503 -0.39265399539954
 1  2.04255329742974  1.22233622282228 -0.62327934303430
 1  2.06374490219022 -2.23503990639064  1.42628100660066
 1  0.88472354365437 -2.45963525462546 -0.46212749784978
 1  2.86234898429843 -3.07931571877188 -0.20422466546655
 1 -0.01916603170317  2.44673451315131 -0.63132012351235
 1 -0.05616851285128 -0.73288345814582 -0.40260091509151

