%nproc=4
%Mem=4GB
# td=(NStates=1) CAM-B3LYP/6-31G(d,p) 

TD

0 1
 8 -14.12885876107611 -1.95958434013401  0.59507976327633
 8  14.78373020982098  0.89528711531153 -0.07158656275628
 6 -11.66252911251125  0.01758783368337  1.27020184018402
 6 -10.98155511801180  0.25753852485249 -0.04335062226223
 6 -11.92089757035704 -1.41241572597260  1.48556639793979
 6 -12.69143253675368 -2.07434849964996  0.27246139703970
 6 -11.63308859775977 -0.37132461076108 -1.25398088798880
 6  11.12039537013701  1.03938558105811  1.13091337103710
 6 -10.91069254245425  0.48146988578858  2.51429848054805
 6 -12.96151231363136  0.82023767066707  1.33972504930493
 6  12.48176535703570  1.48396782328233  0.80809819601960
 6 -12.35140612651265 -1.52277014481448 -1.06948971767177
 6  13.47529915081508  0.42459013161316  0.35438275717572
 6  10.59310878517852 -0.12721213141314  0.11388497359736
 6 -9.53085184908491 -0.03647649584958  0.02570257785779
 6  12.94031200880088 -0.26406362576258 -0.87645323162316
 6  11.39283237203720 -0.59816486178618 -0.81372643144314
 6  10.19670655625563  2.22545185718572  1.06491920532053
 6  11.06702753525352  0.31501067646765  2.48009857115712
 6 -11.29003350085009  0.09122076357636 -2.58415067326733
 6 -8.47492359265927  0.82479746214621 -0.27350097259726
 6  9.23843877317732 -0.38721649744975  0.09584966876688
 6  10.99968991449145 -1.45649861666167 -1.92875247994799
 6 -7.08742006490649  0.45656289808981 -0.23184527382738
 6  8.73357981438144 -1.63608340584058 -0.13142828382838
 6 -6.65645706720672 -0.98354711161116  0.00464335293529
 6  7.35734422192219 -2.08866173817382 -0.08037910021002
 6 -6.21872164816482  1.47303087758776 -0.43692554915492
 6  7.07419061326133 -3.64819854205421 -0.12830261206121
 6  6.40635790479048 -1.10178046674667 -0.11413375577558
 6 -4.79705367906791  1.50079361856186 -0.45814672807281
 6  4.98119896579658 -1.47788563146315 -0.14253203340334
 6 -3.94468584098410  2.59635266146615 -0.64515570457046
 6 -2.61849228732873  2.65302325992599 -0.66412916071607
 6  3.99609357485749 -0.56071657775778 -0.15971548794879
 6  2.61214826342634 -0.75316978847885 -0.06255120772077
 6 -1.90294884508451  3.92168675127513 -0.84363351075108
 6 -1.76358344384438  1.52443518791879 -0.57547356375638
 6  1.79523806880688  0.35551711321132 -0.37527608950895
 6  2.12610593169317 -2.20267305460546  0.13870623852385
 6 -0.34372663156316  1.49712103340334 -0.42251561136114
 6  0.40889572037204  0.36680834863486 -0.32032529332933
 1 -10.95122186368637  1.28743052835284 -0.22212405760576
 1 -12.38091156425643 -1.75774578827883  2.36614450915091
 1 -10.74593226282628 -1.82686188118812  1.62148543114311
 1 -12.36283991759176 -3.22216132343234  0.11643650575058
 1 -10.02910831213121 -0.20379870427043  2.63484210811081
 1 -10.56355652225223  1.57083016001600  2.53316803870387
 1 -11.42081967426743  0.44197761676168  3.54244842264226
 1 -13.84834603640364  0.44971097339734  0.79515598589859
 1 -13.26344211481148  0.60952255965597  2.32087608960896
 1 -12.92569125452545  1.92846646844684  1.39346983028303
 1  12.51609897659766  2.21120607010701  0.15717356055606
 1  12.87016144324432  2.00428446734673  1.76139374057406
 1 -12.64656813541354 -2.01886868336834 -2.01408559925993
 1  13.57508709350935 -0.41160090589059  1.20151048694869
 1 -9.13872623832383 -1.09711457045705 -0.15802824282428
 1  13.46743188728873 -1.15677871717172 -0.95670082608261
 1  13.10263668116812  0.68298687658766 -1.62079200300030
 1  9.22208890649065  1.98387843964396  1.53719896729673
 1  9.86784864646465  2.42760536293629  0.01400831633163
 1  10.63448712201220  3.11552652435244  1.53362951395140
 1  11.39252209350935 -0.68847609620962  2.63165958735874
 1  9.83488845944594  0.04134159315932  2.92645577367737
 1  11.40698159725973  0.94463226002600  3.34974991799180
 1 -10.11330382838284 -0.03619370867087 -2.64566196189619
 1 -11.59209826612661  1.04821081958196 -2.93732079737974
 1 -11.77846569166917 -0.65922467376738 -3.27479523712371
 1 -14.52814608790879 -2.53301225382538 -0.08797700150015
 1  8.57065613361336  0.27431765696570  0.00972361856186
 1 -8.60373554245425  1.76066771957196 -0.57479279967997
 1  11.18478421292129 -2.58505000100010 -1.65305815731573
 1  10.08254112051205 -1.37705380708071 -2.10479641364136
 1  11.63806310001000 -1.25977906800680 -2.92935888398840
 1  15.07824700500050  1.59510761056106  0.71725969486949
 1  9.32101187748775 -2.39095217691769 -0.24167060956096
 1 -5.55222968396840 -0.92332948364836  0.01577897469747
 1 -7.03511240934093 -1.47203917711771  0.91483373577358
 1 -7.09027526272627 -1.71783023122312 -0.90220843564356
 1 -6.70480276677668  2.64452324742474 -0.59482268396840
 1  6.67412096109611 -4.15453887648765  1.03501319701970
 1  6.47727507270727 -4.18798398619862 -0.72646223742374
 1  8.28296819421942 -3.98416460106011 -0.26493952665266
 1  6.62004043094309 -0.12057929732973 -0.46556867876788
 1 -4.26912914451445  0.55140480568057 -0.17682373997400
 1  4.85127873137314 -2.43855310831083 -0.25343300410041
 1 -4.37299334503450  3.62913089488949 -0.75550520602060
 1  4.40125020122012  0.65823316221622 -0.23121233863386
 1 -1.34482424062406  4.04682612931293 -1.78518679057906
 1 -1.29491232963296  4.09638679597960 -0.09200115991599
 1 -2.58989847794779  4.69659207470747 -1.20458875257526
 1 -2.26279515991599  0.42008863436344 -0.29773450345034
 1  2.42468151025102  1.16209019821982 -0.70286730183018
 1  2.30580910861086 -2.38208461086109  1.18868724722472
 1  1.06663173447345 -2.22863215431543  0.01022973787379
 1  2.68638138753875 -2.96848463566357 -0.53780802380238
 1  0.09341522642264  2.56730657035704 -0.64226121762176
 1 -0.27356025202520 -0.59397956775678 -0.07422807780778

