%nproc=4
%Mem=4GB
# td=(NStates=1) CAM-B3LYP/6-31G(d,p) 

TD

0 1
 8 -14.03703957915792 -2.13905228692869  0.57295755105511
 8  14.72367420422042  0.80398798539854  0.22766336223622
 6 -11.80194305390539  0.08981505640564  1.27318213821382
 6 -10.96711367386739  0.32670544154415 -0.07434372157216
 6 -11.90993647424743 -1.39775425982598  1.46080392169217
 6 -12.59553294679468 -2.21892295709571  0.31304545544554
 6 -11.47574286318632 -0.62004948324832 -1.23485897579758
 6  11.08499182978298  0.89110075257526  1.10325060476048
 6 -10.98762023522352  0.59009074787479  2.53886093679368
 6 -13.18715487788779  0.71857750465046  1.14455553235324
 6  12.49466664716472  1.35920534703470  0.89092647884788
 6 -12.21492247814782 -1.70309817761776 -1.05740850955096
 6  13.42889451035104  0.25361303390339  0.40243756265627
 6  10.72405187948795 -0.05157456765677 -0.03285970087009
 6 -9.56208497239724  0.04095124692469  0.12070207780778
 6  13.04553253085308 -0.26859407880788 -0.98106369266927
 6  11.56226931573157 -0.54680972627263 -0.92002706150615
 6  10.20540742634264  2.07550686268627  0.99114182758276
 6  10.88174900740074  0.09451862726273  2.51633219451945
 6 -11.24012851035104 -0.11750010851085 -2.63644590279028
 6 -8.60953705400540  0.90338532093209 -0.20875449794979
 6  9.25512044134413 -0.39883765956596 -0.02147206340634
 6  11.14078402390239 -1.32148511531153 -2.18197780248025
 6 -7.15888721162116  0.65972321412141 -0.24647673697370
 6  8.79020547694770 -1.71908170567057 -0.18464360536054
 6 -6.65901732323232 -0.72490124702470  0.25319820842084
 6  7.38523701120112 -2.12946581858186 -0.12908397069707
 6 -6.23981375737574  1.56854042854285 -0.34748660526053
 6  7.12250544474447 -3.51455517771777  0.10134035223522
 6  6.36899416841684 -1.14112440114011 -0.14201654405441
 6 -4.81662563626363  1.46369990919092 -0.36947786118612
 6  5.01264211011101 -1.39989783268327 -0.02597037723772
 6 -4.02327369976998  2.60623364956496 -0.65169635863586
 6 -2.62906334443444  2.67438539613961 -0.71102385018502
 6  4.05105907140714 -0.42291279737974 -0.12288180458046
 6  2.63293034163416 -0.59266373787379 -0.13341829442944
 6 -2.01285983618362  3.99115369796980 -0.95291443884388
 6 -1.82111919741974  1.52262500690069 -0.51775779217922
 6  1.73049159415942  0.43641520302030 -0.22305086698670
 6  2.18403172427243 -2.09097188448845 -0.05790342244224
 6 -0.41996425532553  1.55255657695770 -0.50886424622462
 6  0.30526535733573  0.37574924272427 -0.24161742254225
 1 -11.24126086758676  1.41576336163616 -0.24470631583158
 1 -12.63980745384538 -1.33774378807881  2.21782967766777
 1 -10.91527919751975 -2.00809000400040  1.67929121172117
 1 -12.29042267586759 -3.23618272557256  0.37889275137514
 1 -9.83711911321132  0.13847552315232  2.65567419131913
 1 -10.92971313791379  1.67206028302830  2.45212993489349
 1 -11.60391798409841  0.47118053705371  3.26787096489649
 1 -13.70505170697070  0.21319732203220  0.42052852315232
 1 -13.74200997159716  0.64689629702970  2.14598860086009
 1 -13.07688637403740  1.75857947974798  0.97268775207521
 1  12.41093846054605  2.18024297379738 -0.01257341414141
 1  12.99225365246525  1.74434847374737  1.88850645184518
 1 -12.54310778937894 -2.29373617011701 -1.90681487218722
 1  13.68833841864186 -0.55688543434343  1.04207454335434
 1 -9.20813317901790 -0.98825368436844  0.50431799179918
 1  13.46102124622462 -1.25741878117812 -1.17743289928993
 1  13.25929234673467  0.48026660456046 -1.71373129692969
 1  9.10351704930493  2.00809086088609  1.46546179357936
 1  10.24350621222122  2.45575817821782 -0.17760084458446
 1  10.64523819711971  2.93892886458646  1.64755090609061
 1  11.57915075637564 -0.85195244384439  2.52968939033903
 1  9.86034100470047 -0.03548608960896  2.56513964206421
 1  11.11129202830283  0.83748154495450  3.31604654765477
 1 -10.09664216221622 -0.13190327962796 -2.63520091579158
 1 -11.63037209350935  0.84044004250425 -2.80271733703370
 1 -11.50173801890189 -0.72092084338434 -3.30460821842184
 1 -14.56090936423642 -2.41087003960396 -0.25993419721972
 1  8.73940300830083  0.51866209140914  0.35741838803880
 1 -8.65791095999600  2.00639229202920 -0.63659898029803
 1  11.61096683118312 -2.37124862086209 -2.09088193969397
 1  10.16309917631763 -1.49409551125113 -2.20890682468247
 1  11.38992828652865 -0.91763485358536 -3.27115306340634
 1  15.35119429972997  0.84335243504350  0.99660762966297
 1  9.58063784008401 -2.55946902860286 -0.30846728922892
 1 -5.55086954795480 -0.65222237293729  0.72635003180318
 1 -7.22577147524752 -0.98191016421642  1.20894314671467
 1 -6.72995923112311 -1.38503695189519 -0.61048926372637
 1 -6.52967525402540  2.63179197429743 -0.55326852855286
 1  7.09749329832983 -3.81594501710171  1.24202389808981
 1  6.45873321852185 -3.93110829862986 -0.44782437363736
 1  8.14487438483848 -3.94654083868387 -0.29864289698970
 1  6.63248167506751 -0.21446868626863 -0.46036815871587
 1 -4.13044527612761  0.60073973917392 -0.07550360796080
 1  4.55448905240524 -2.47285653865387  0.05504784398440
 1 -4.52906895259526  3.44828281008101 -0.76894655015502
 1  4.38565864206421  0.67757509640964 -0.42069128652865
 1 -1.33511326952695  3.86055750245025 -1.79622789468947
 1 -1.19917275567557  4.25384254155416 -0.21568352815282
 1 -2.62337182528253  4.83121553705370 -1.44496278997900
 1 -2.30627950835084  0.50081670717072 -0.50027475747575
 1  2.34415345744574  1.22562655185519 -0.27148416351635
 1  2.39754828252825 -2.59705610801080  1.02499087758776
 1  1.06815188648865 -2.26104539563956 -0.36875816091609
 1  2.71630437983798 -2.83276106330633 -0.85126936993699
 1  0.06746263116312  2.29116895659566 -0.60685767726773
 1 -0.19216211221122 -0.69663983378338 -0.24893554855486

