%nproc=4
%Mem=4GB
# td=(NStates=1) CAM-B3LYP/6-31G(d,p) 

TD

0 1
 8 -14.04897077227723 -2.07788617031703  0.56228648394839
 8  14.77780961776178  1.08402598919892  0.22350294619462
 6 -11.85067792739274  0.00159623452345  1.34448926892689
 6 -10.97767472997300  0.28379115011501 -0.01500778797880
 6 -11.94002948354835 -1.46016050045004  1.47156499779978
 6 -12.62466586008601 -2.14807587238724  0.30949510041004
 6 -11.60228551745174 -0.46440391869187 -1.14990047994799
 6  11.10861419201920  0.97259890239024  1.12517279697970
 6 -10.94516598979898  0.61550328912891  2.51395844654465
 6 -13.06601276367637  0.73644929182918  1.24235531233123
 6  12.43928110861086  1.55185461196120  0.83812119831983
 6 -12.29253023892389 -1.61366923472347 -1.08455122382238
 6  13.49828144904490  0.40630830343034  0.40575789468947
 6  10.56384585888589 -0.06974638483848  0.05466905200520
 6 -9.52243100700070 -0.05833868206821  0.10707071467147
 6  12.96467444504450 -0.24750196959696 -0.79844543084308
 6  11.47642073087309 -0.62457750305031 -0.86359141794179
 6  10.07679456505651  2.16544585658566  1.04365707910791
 6  11.06710754325433  0.31363053845385  2.44044460576058
 6 -11.20926542404241  0.09502114361436 -2.56063832203220
 6 -8.50864696499650  0.83584856725673 -0.15627925042504
 6  9.25072000130013 -0.56503427922792  0.11922200600060
 6  11.24340428592859 -1.54824779157916 -1.96292589728973
 6 -7.11759308220822  0.55704294609461 -0.12041413071307
 6  8.77127358375838 -1.80947074457446 -0.06764190519052
 6 -6.74096551805181 -0.83741249814981  0.13660654925493
 6  7.45262374987499 -2.18814168616862 -0.13357441974197
 6 -6.16430620662066  1.61822539703970 -0.31816367296730
 6  7.14736793099310 -3.67972169436944 -0.03972375417542
 6  6.41323859285929 -1.28127841654165 -0.19489183158316
 6 -4.82080605430543  1.55386892609261 -0.23899481288129
 6  5.06536738263826 -1.56288413131313 -0.19430721092109
 6 -4.01830320272027  2.64731775797580 -0.58890007900790
 6 -2.62961339943994  2.66115407300730 -0.64212696049605
 6  4.02246621212121 -0.57217772387239 -0.31404092049205
 6  2.62341939053905 -0.78930340184018 -0.26127107970797
 6 -2.08203675387539  4.03175775837584 -1.14248339573957
 6 -1.77909499499950  1.61904464886489 -0.52197821422142
 6  1.88626717171717  0.43773533503350 -0.43888245014501
 6  2.00643396449645 -2.18199098639864 -0.12525015711571
 6 -0.35413767266727  1.56288761006101 -0.50778413821382
 6  0.43409824062406  0.42375404320432 -0.35391865266527
 1 -11.13283002450245  1.41158294359436 -0.16031787698770
 1 -12.43803727682768 -1.61108112181218  2.30909880458046
 1 -11.04091176077608 -2.08610780578058  1.83722700530053
 1 -12.26444007760776 -3.23200230753075  0.29501436353635
 1 -9.99901530283028  0.08735041064106  2.58187681158116
 1 -10.87798796539654  1.76393947094709  2.28519324122412
 1 -11.61076866916692  0.28822224122412  3.35899007680768
 1 -13.67109831163116  0.51660766306631  0.36473294359436
 1 -13.65072084268427  0.31724333173317  1.93178718071807
 1 -12.91279996539654  1.74945856765677  1.27384786808681
 1  12.12478984568457  2.20270522002200 -0.05616777357736
 1  12.94704913201320  2.10497453635363  1.75454305550555
 1 -12.41162464106411 -2.25208200470047 -2.05110930163016
 1  13.62605219001900 -0.24927467326733  1.32456279217922
 1 -9.41908427412741 -0.92195705470547  0.36999455945595
 1  13.63237838193819 -1.01876491579158 -1.27422257825783
 1  13.26035245274527  0.52397097499750 -1.57199712351235
 1  9.06792348994899  1.88476852865286  1.46658190559056
 1  9.95824768636864  2.55195779817982  0.12468938443844
 1  10.65834950825082  3.05618058975898  1.36189234023402
 1  11.96301914321432 -0.50538778737874  2.33476989838984
 1  10.11743671427143 -0.05880842184218  2.84804793289329
 1  11.35328622772277  1.05491328812881  3.12416735973597
 1 -10.17070956895690  0.37762767346735 -2.66795419111911
 1 -11.69591864816482  1.13395939443944 -2.94491155645565
 1 -11.55662350745074 -0.56078482978298 -3.23612136973697
 1 -14.44308758205821 -2.27536648924892 -0.27414561836184
 1  8.74708377637764  0.24773499869987  0.28843148934894
 1 -8.59952512141214  1.92299395219522 -0.61684700510051
 1  11.62834856935694 -2.74824632063206 -1.72407525902590
 1  10.24826769316932 -1.78007410911091 -2.32060799479948
 1  11.57617691139114 -1.35090818091809 -2.99753570167017
 1  14.92723190349035  1.21934003380338  1.21119908880888
 1  9.29617939423943 -2.63094617631763  0.06986054355436
 1 -5.69297375837584 -1.16504365506551  0.38784618141814
 1 -7.31342024012401 -1.00632260546055  1.19799205160516
 1 -7.29581581678168 -1.55316376457646 -0.60018823362336
 1 -6.67422970947095  2.63767256235624 -0.41456465816582
 1  6.95315886488649 -3.76602002460246  0.98390808650865
 1  6.23311065626563 -4.24475966376638 -0.61011060226023
 1  8.04063396079608 -4.35879206380638 -0.37529056175618
 1  6.58994742164216 -0.23230046944694 -0.56920904280428
 1 -4.45305753735373  0.47157682288229 -0.34706076367637
 1  4.47042064556456 -2.48165741874187 -0.31898955975598
 1 -4.47675372107211  3.55572355415542 -0.72106176167617
 1  4.37976805300530  0.53663100200020 -0.49277849524952
 1 -1.40990074827483  3.76532797949795 -2.09845811771177
 1 -1.26360919931993  4.44190134743474 -0.42958491829183
 1 -2.62226171427143  4.87122953845384 -1.23949224292429
 1 -2.40223910431043  0.65956258175818 -0.14619934993499
 1  2.38339738183818  1.32322631183118 -0.78887590269027
 1  1.69629815751575 -2.34487088948895  1.22224060256026
 1  1.01680675197520 -2.27343663476348 -0.96444772987299
 1  3.11435418481848 -2.70197798499850 -0.59321356435644
 1  0.13402928782878  2.38814865456546 -0.82652964446445
 1 -0.08968186418642 -0.38884905470547 -0.08711936693669

