%nproc=4
%Mem=4GB
# td=(NStates=1) CAM-B3LYP/6-31G(d,p) 

TD

0 1
 8 -14.01968784398440 -1.98935731743174  0.54769502480248
 8  14.67451928872887  0.89199678627863  0.18171876777678
 6 -11.77092995259526  0.02223829872987  1.29140396039604
 6 -10.97194415691569  0.29425219621962 -0.03086937413741
 6 -11.86314179477948 -1.49911439583958  1.40686852815282
 6 -12.67320071357136 -2.22421348614861  0.25558970987099
 6 -11.58209349824982 -0.46246372467247 -1.15504099399940
 6  11.03620695129513  0.97953959645965  1.06692697239724
 6 -11.05317679087909  0.58199993879388  2.57983503420342
 6 -13.14024018641864  0.66396204310431  1.24363544034403
 6  12.49875705620562  1.49459888638864  0.72441982818282
 6 -12.23390437633763 -1.54431229902990 -1.05731850055005
 6  13.40093171407141  0.44060173277328  0.42048936783678
 6  10.61919139343934 -0.06669607980798 -0.00988740364036
 6 -9.48771753565357  0.00218737053705 -0.08152814521452
 6  12.92927090469047 -0.19645686508651 -0.92631821812181
 6  11.44794788358836 -0.49490453575358 -0.93362842164216
 6  10.11539842544254  2.11305061706171  1.04928764216422
 6  11.03923475597560  0.36255543094309  2.52834339563956
 6 -11.23682818031803  0.13344498599860 -2.47151941014101
 6 -8.46039213951395  0.94537952035204 -0.18139176167617
 6  9.27319224852485 -0.57493526932693  0.24624470827083
 6  11.03980392589259 -1.37489045584558 -2.09075868056806
 6 -7.05041636453645  0.57571481328133 -0.15499758905891
 6  8.73723017941794 -1.84690448794879 -0.09151429242924
 6 -6.64049547104710 -0.96120487738774  0.16544943354335
 6  7.36584507200720 -2.25384825682568 -0.03057411971197
 6 -6.18526830283028  1.53698727322732 -0.44070592719272
 6  7.02759595379538 -3.68230195239524  0.16396661486149
 6  6.42098936793679 -1.30704099279928 -0.25541788418842
 6 -4.74595856955696  1.56717025622562 -0.35184609800980
 6  4.99003984988499 -1.39462730563056 -0.26740452065207
 6 -4.02828420082008  2.62229525572557 -0.69344053305331
 6 -2.58106854495450  2.62865082268227 -0.75216796459646
 6  4.03844781028103 -0.44189469556956 -0.30818033443344
 6  2.66046309490949 -0.73917838933893 -0.22427738033803
 6 -1.93243179337934  4.05964054665467 -0.98478762616262
 6 -1.71305839133913  1.58657140154015 -0.44184020042004
 6  1.77897644264426  0.32300386188619 -0.36881544344434
 6  2.19967328842884 -2.16046883418342  0.05232760066007
 6 -0.36867912681268  1.51022234353435 -0.43916727652765
 6  0.39570440124012  0.35784745254525 -0.37760102090209
 1 -11.14329107060706  1.32885467076708 -0.28356020122012
 1 -12.54745821892189 -1.96117613131313  2.37475537023702
 1 -10.85115278487849 -1.79362855785579  1.22646592919292
 1 -12.33586722032203 -3.23185229252925  0.27224208630863
 1 -10.01444684598460  0.08121979757976  2.52146076997700
 1 -10.90181034763476  1.63669674667467  2.52506722862286
 1 -11.77103469576958  0.17664108310831  3.32388656645665
 1 -13.71342254405440  0.54101010331033  0.35960243054305
 1 -13.81561733233323  0.44697630503050  2.10462446444644
 1 -12.89974866026603  1.81116473827383  1.20292077537754
 1  12.66245361206121  2.25200014951495  0.03752159535954
 1  12.85282971007101  2.11457549644965  1.59566716791679
 1 -12.74125760436044 -2.02960975747575 -1.81520571127113
 1  13.57990757555756 -0.43002274807481  1.31023135903590
 1 -9.13332569826983 -1.14226908590859  0.09337689768977
 1  13.37337248134814 -1.13871691099110 -1.11538669466947
 1  13.18916533403340  0.69796837473747 -1.73998392219222
 1  9.01927862546255  1.87906795859586  1.51115636303630
 1  9.86322818441844  2.56337894029403  0.04860177567757
 1  10.54217789108911  2.99185415711571  1.67560371137114
 1  11.56001884318432 -0.78055530413041  2.61293771517152
 1  9.94770974157416  0.20097755675568  2.72835596369637
 1  11.51055195429543  1.14145194199420  3.09021396439644
 1 -10.18893139113911  0.71067097779778 -2.57075447114712
 1 -11.88438749504951  0.98926492499250 -2.64500156545654
 1 -11.28511635673567 -0.67220597189719 -3.30746850445045
 1 -14.62764603790379 -2.84418337093709  0.00334213041304
 1  8.58348741674167  0.06477670287029  0.58422106830683
 1 -8.62633780268027  2.05010666346635 -0.15248056845685
 1  11.48201393589359 -2.40454195019502 -1.98919177067707
 1  9.98962182858286 -1.39643574527453 -2.21864779877988
 1  11.45521481518152 -0.91992508260826 -2.99668561666167
 1  15.15158433873387  1.32883098289829  0.76914488338834
 1  9.45014479077908 -2.55434851655165 -0.27410385288529
 1 -5.46846130713071 -1.07431458215822  0.10722811961196
 1 -7.04038293639364 -1.20512248544854  1.11023327572757
 1 -7.14468070327033 -1.82386083428343 -0.43847206200620
 1 -6.55726801330133  2.57835663076308 -0.80421362306231
 1  6.25618916791679 -3.84726814941494  1.05253494919492
 1  6.51110845604560 -4.33175836363636 -0.65156474767477
 1  7.97001689908991 -4.10514669926993  0.60411737903790
 1  6.95464389128913 -0.25979321872187 -0.45796791869187
 1 -4.19348157975798  0.64206387158716 -0.06820287788779
 1  4.57264086758676 -2.38348760176018 -0.10318797959796
 1 -4.57887393309331  3.58033601540154 -0.87443709920992
 1  4.35524560076008  0.58251559045905 -0.17887710511051
 1 -1.43830358855886  3.99899134583458 -2.06813508540854
 1 -0.80089292769277  4.05793295059506 -0.30689264906491
 1 -2.58226771487149  4.82837525302530 -0.74355264896490
 1 -2.18556743714371  0.61383800930093 -0.16174090409041
 1  2.30359940204020  1.31500548974898 -0.54303131823182
 1  2.44386291399140 -2.23614001640164  1.14406278477848
 1  1.09248431973197 -2.26410570167017  0.20457917281728
 1  2.75545829522952 -2.80795858305831 -0.61115535853585
 1  0.17027291219122  2.40227006670667 -0.66217320882088
 1 -0.11513440944094 -0.62913308310831 -0.39792044704470

