%nproc=4
%Mem=4GB
# td=(NStates=1) CAM-B3LYP/6-31G(d,p) 

TD

0 1
 8 -14.07418329352935 -2.14972335403540  0.55484573987399
 8  14.76618845564556  0.75332291889189 -0.13747315141514
 6 -11.68325118471847  0.14912098699870  1.16505132513251
 6 -10.98737570007001  0.13366613761376 -0.16853314051405
 6 -11.90888636923692 -1.36910139453945  1.46372421372137
 6 -12.65235862936294 -2.15353641844184  0.35668981988199
 6 -11.47925321422142 -0.64356183448345 -1.31215670557056
 6  11.20053338393839  0.82797443994399  1.12167244694469
 6 -10.86564803800380  0.66358809760976  2.33266031673167
 6 -13.01343750615061  0.80579622652265  1.06031710851085
 6  12.65965314581458  1.25608503500350  0.78889627582758
 6 -12.28851983788379 -1.63385125292529 -1.12446521522152
 6  13.51157277817782  0.24827249984999  0.10410772967297
 6  10.69752922722272 -0.04696410661066 -0.03379979487949
 6 -9.46913567746775 -0.12602545074507  0.00051005860586
 6  12.98565654325432 -0.35527274667467 -1.15526111241124
 6  11.42119520832083 -0.48751379667967 -1.02263732253225
 6  10.31238812441244  2.03542285428543  1.39428214161416
 6  11.24282511501150 -0.02718354295430  2.47502806410641
 6 -11.24126862436244 -0.02998135663566 -2.72205446364636
 6 -8.47863396369637  0.64780976337634 -0.17581120362036
 6  9.23759868916892 -0.43678145394539  0.20552063586359
 6  10.94449439493949 -1.25083805060506 -2.25071467616762
 6 -7.09361068396840  0.42501974377438 -0.07988007730773
 6  8.73624008040804 -1.63639343684368 -0.15979112011201
 6 -6.57124854635464 -0.92616137303730  0.32909579817982
 6  7.34171265876588 -1.96898977097710 -0.09392045434543
 6 -6.22567234323432  1.43845742024202 -0.49237109370937
 6  7.11074426862686 -3.46729045124512 -0.11505128692869
 6  6.29987725672567 -1.07280756945695 -0.00546288868887
 6 -4.78943291699170  1.47585112431243 -0.46773768716872
 6  4.94874572047205 -1.37701554445445  0.14634685448545
 6 -4.02156352875288  2.59988301450145 -0.57998918791879
 6 -2.66849728782878  2.72801075867587 -0.66138888668867
 6  3.97305127062706 -0.41590209630963  0.06501698529853
 6  2.52863991259126 -0.63805827732773  0.10419546694669
 6 -2.06521507170717  4.06227080968097 -1.05887503490349
 6 -1.84293137863786  1.68798154255426 -0.43756977337734
 6  1.64145269026903  0.50326188768877 -0.09507806970697
 6  2.09150247134713 -2.04091687898790  0.36526889478948
 6 -0.49789204810481  1.67025834713471 -0.42019537933793
 6  0.25536036683668  0.58224989278928 -0.16308956975698
 1 -10.97519426092609  1.35174695999600 -0.53941578677868
 1 -12.41528500160016 -1.53894390809081  2.50959885458546
 1 -10.97527519711971 -1.88357755275528  1.66815009760976
 1 -12.23386702030203 -3.20802991029103  0.29335419751975
 1 -9.98179358065807  0.04727640324032  2.33197182108211
 1 -10.83270343694369  1.87435051205121  2.06105082698270
 1 -11.51954954725473  0.66797021602160  3.24721889968997
 1 -13.78064926672667  0.12941894419442  0.42889936023602
 1 -13.64540031063106  0.89719132653265  2.14284828682868
 1 -12.90302898829883  1.92353597539754  0.61278176147615
 1  12.35008237493749  2.22826777627763  0.24736257945795
 1  13.22085651275128  1.63200723962396  1.64424202540254
 1 -12.64060753935394 -2.19979677617762 -2.14192838353835
 1  13.26756634143414 -0.63508325412541  0.97075741164116
 1 -9.42934530023002 -1.18793365236524  0.02051961196120
 1  13.60315545964596 -1.15208824812481 -1.25828098409841
 1  13.04081049854986  0.30538911681168 -1.82626255005501
 1  9.30729742734273  1.70536058785879  2.01360660806081
 1  9.96599846144614  2.34425702810281  0.46892380788079
 1  11.01596526982698  2.78578355005501  1.99224537553755
 1  11.92831567286729 -0.94005125372537  2.46043246464647
 1  10.43094806540654 -0.31975451645165  2.49702283038304
 1  11.32752365146515  0.51599939673967  3.39527447044704
 1 -10.15551804980498 -0.24986507580758 -2.97420481618162
 1 -11.35874493079308  1.02106810531053 -2.74503156845685
 1 -11.72161000610061 -0.56136488778878 -3.36574433203320
 1 -14.50645391869187 -2.22016096869687 -0.26254445824582
 1  8.67209627762776  0.43884410961096  0.65633828002800
 1 -8.57889305820582  1.76950860366037 -0.50432575297530
 1  11.46342207670767 -2.32083357935794 -2.23445629712971
 1  9.88109097549755 -1.45247134883488 -2.45640157415742
 1  11.41438073177318 -0.84755784588459 -3.15553150125013
 1  15.11569074937494  1.14924302410241  0.67766573547355
 1  9.53365314161416 -2.19791287298730 -0.65480192269227
 1 -5.58453291429143 -1.07602475317532  0.50632802960296
 1 -7.05948484658466 -1.17357933113311  1.28421067346735
 1 -6.73082931813181 -1.68879732793279 -0.46719493429343
 1 -6.87078936543654  2.46713550865087 -0.61474467616762
 1  7.17659120812081 -3.79830325292529  0.92686238193819
 1  6.20097744294429 -3.68190337813781 -0.56656624782478
 1  8.04660455785578 -4.11512769736974 -0.42420545324532
 1  6.58512693959396 -0.03987122652265 -0.21170329222922
 1 -4.45547777937794  0.49209887508751 -0.29760581818182
 1  4.76681028452845 -2.44073332633263  0.66224856405641
 1 -4.62474852055205  3.49589757155716 -0.98769842534253
 1  4.27801787798780  0.71926926582658 -0.15276449384938
 1 -1.29926968516852  3.94799624632463 -1.92736100800080
 1 -1.58916175457546  4.54648180548055 -0.26579853965397
 1 -2.97872736083608  4.76403881938194 -1.46063435713571
 1 -2.36431531193119  0.55819244474447  0.06246151615162
 1  2.19163820592059  1.44804879407941 -0.40092710781078
 1  2.59878840654065 -2.29775617801780  1.26856523502350
 1  0.77228229952995 -2.22383167426743  0.54314302920292
 1  2.19221197059706 -2.80893868106811 -0.38076231923192
 1  0.22940882578258  2.48870871057106 -0.47596458795880
 1 -0.31790468646865 -0.40220038983898 -0.18430908590859

