%nproc=4
%Mem=4GB
# td=(NStates=1) CAM-B3LYP/6-31G(d,p) 

TD

0 1
 8 -13.88986486168617 -2.14604298599860  0.61724197949795
 8  14.75829766656666  0.90269785638564  0.43796439233923
 6 -11.64174703430343  0.02547862276228  1.37023184318432
 6 -10.89379634213421  0.22771554255426  0.03243695649565
 6 -11.81388686928693 -1.51187567196720  1.47235507680768
 6 -12.59190258375838 -2.20548161296130  0.30677482838284
 6 -11.64277956685669 -0.37220469876988 -1.15703119301930
 6  11.05013834443444  0.88077972047205  1.01099137883788
 6 -10.81534300750075  0.45585732453245  2.50402745344534
 6 -13.06422258465847  0.67343299019902  1.35710678747875
 6  12.58740592109211  1.50587001350135  0.91777916411641
 6 -12.33230421632163 -1.45897376517652 -1.00035280398040
 6  13.46034765566557  0.45804347694769  0.49785710461046
 6  10.64073354765477 -0.16558596879688  0.05629921502150
 6 -9.45062382628263  0.01639879167917  0.03985399299930
 6  13.01765974357436 -0.12257947734773 -0.88623420972097
 6  11.55403849264926 -0.55909095439544 -0.91610666946695
 6  10.05258214381438  2.07038635063506  0.92938565196520
 6  10.92021285378538  0.26642581798180  2.42212277357736
 6 -11.44575907340734  0.25056669816982 -2.52959521772177
 6 -8.49232533283328  0.86023100550055 -0.17626124862486
 6  9.26402133143314 -0.52139991579158  0.02011209500950
 6  11.14426437193719 -1.30643361016102 -2.12680228492849
 6 -7.07629895279528  0.56021326312631 -0.11045313461346
 6  8.72439889628963 -1.76901669916992 -0.16016115711571
 6 -6.64508593009301 -0.86522527942794 -0.07021413281328
 6  7.37387587508751 -2.20748362036204 -0.02791385368537
 6 -6.14539431543154  1.53133670817082 -0.32347420402040
 6  6.96799999419942 -3.66592031423142 -0.03598338013801
 6  6.35077234623462 -1.20364065276528 -0.23535587798780
 6 -4.75400937463746  1.49741328052805 -0.46673758715872
 6  4.97708855475548 -1.56295413831383  0.03457567736774
 6 -3.99256062846285  2.54020704690469 -0.79534072307231
 6 -2.58858929702970  2.67779573717372 -1.00653340114011
 6  3.99249321482148 -0.59477998409841 -0.22926244264426
 6  2.57834488308831 -0.68839331083108 -0.09517447004700
 6 -2.01155970617062  4.02099668226823 -1.20968011541154
 6 -1.76492357785779  1.59440218461846 -0.65058107450745
 6  1.76643518851885  0.41430299179918 -0.32127068896890
 6  1.96988030913091 -2.11310409770977  0.25240760866087
 6 -0.46361862076208  1.64144546584658 -0.47049040884088
 6  0.35269009980998  0.43694536233623 -0.34772803360336
 1 -11.06843358485849  1.32369415471547 -0.32795464066407
 1 -12.23865733883388 -1.81373138683868  2.28054594929493
 1 -10.80728839843984 -1.87411660666067  1.67109039163916
 1 -12.28396202980298 -3.25836494379438  0.44136899899990
 1 -9.77514291559156 -0.14661298569857  2.55564418831883
 1 -10.56671683828383  1.53232630963096  2.58934365626563
 1 -11.30548814111411  0.26955037403740  3.54111828962896
 1 -13.69714091589159  0.12472847514752  0.72238870917092
 1 -13.41937770837084  0.52170377777778  2.44672867486749
 1 -12.97475616101610  1.72750637243724  1.31118160146015
 1  12.63917128382838  2.36115106460646  0.29276711991199
 1  12.74906933403340  1.83186722562256  1.86915451665167
 1 -12.81730520912091 -1.87816461296130 -1.91664585528553
 1  13.26950653545355 -0.40416016181618  1.13934427032703
 1 -9.13290565626563 -1.02764762376238 -0.05512795279528
 1  13.61338648274827 -1.13583662296230 -1.18826398239824
 1  13.14194061156116  0.64065264316432 -1.64207413121312
 1  9.09485618321832  1.84075412721272  1.61299654705471
 1  9.82678454005401  2.33131573397340 -0.05881896639664
 1  10.43854752805280  3.00211518321832  1.27871402240224
 1  11.65344818611861 -0.69559680828083  2.57188360976098
 1  9.98832380298030 -0.22446498749875  2.86253938203820
 1  10.84497539663966  1.06286408320832  3.16538148114812
 1 -10.40527302530253  0.32473238393839 -2.83111050675067
 1 -12.15699475577558  1.13477947644765 -2.75368243354335
 1 -11.96645449054905 -0.47469622092209 -3.24127188478848
 1 -14.57093036633663 -1.97089604220422 -0.31620982478248
 1  8.53395246324632  0.11123134833483  0.61621426762676
 1 -8.50875604450445  1.78334998779878 -0.06604192459246
 1  11.55823155765577 -2.50847234323432 -1.79417226872687
 1  10.11924479087909 -1.46900300200020 -2.13751968596860
 1  11.49291858555856 -0.90005309540954 -3.03105905400540
 1  15.33619279957996  1.01586968676868  1.46029399829983
 1  9.58128790509051 -2.46785986768677 -0.18014445694569
 1 -5.56187064806481 -0.97845499619962 -0.60098270147015
 1 -6.72823172127213 -1.30086205940594  1.13272552495250
 1 -7.48993522872287 -1.37188563676368 -0.75850406520652
 1 -6.61156344284428  2.53018181328133 -0.36485968766877
 1  6.22060560956096 -3.86077950055006  0.65931562726273
 1  6.27182452765276 -3.87832302010201 -1.03024261546155
 1  7.71901179857986 -4.16895307990799 -0.18313134583458
 1  6.68018644554455 -0.22956019541954 -0.66410853275328
 1 -4.57880011161116  0.48834850005000 -0.37218327592759
 1  4.67954155765577 -2.47380663366337  0.25523786298630
 1 -4.36714275997600  3.37904588638864 -0.91878153365337
 1  4.39389946614661  0.36992433133313 -0.49327854525453
 1 -1.28981874007401  4.09467091379138 -2.18891716361636
 1 -1.34965780418042  4.35811296859686 -0.29703166296630
 1 -2.85524501260126  4.66218863436344 -1.44972326602660
 1 -2.13565244564456  0.64334095959596 -0.43171790179018
 1  2.08507754985499  1.45781977117712 -0.42989000410041
 1  2.63292181988199 -2.56473287568757  1.01648002650265
 1  0.99570464176418 -1.86358564966497  0.36767548244824
 1  2.14303705310531 -2.59548733593359 -0.75218946194619
 1 -0.08341245634563  2.62603244294429 -0.69087607910791
 1 -0.23229612561256 -0.38682885268527 -0.43827448244825

