%nproc=4
%Mem=4GB
# td=(NStates=1) CAM-B3LYP/6-31G(d,p) 

TD

0 1
 8 -14.06884275947595 -2.04401278297830  0.48314857015702
 8  14.67994983178318  0.91643923052305 -0.20155956005601
 6 -11.78159101870187 -0.05665959105911  1.20464528452845
 6 -10.97363432593259  0.19256202720272 -0.13536982418242
 6 -11.94534001460146 -1.51817630203020  1.34869271057106
 6 -12.59676306980698 -2.17765883068307  0.14541869276928
 6 -11.57628291719172 -0.46054353265327 -1.35998148804880
 6  11.15839917051705  0.94232587508751  1.03394367406741
 6 -10.96121759495950  0.53271501030103  2.35484253495350
 6 -13.11584774717472  0.87283293019302  1.18470954775478
 6  12.51163834433443  1.53836326282628  0.65420280648065
 6 -12.32739372527253 -1.57713558135814 -1.15101787048705
 6  13.48081970287029  0.44841251385139  0.23488080698070
 6  10.67011648594860  0.00713130293029 -0.04634104900490
 6 -9.49854861876188 -0.11194404260426 -0.00472046444644
 6  12.95276325392539 -0.28404562396240 -1.00958654495450
 6  11.47036012481248 -0.58856390169017 -1.00499555835584
 6  10.11365825142514  2.03001231323132  1.14533724712471
 6  11.26805763826383  0.31231040644064  2.50338089938994
 6 -11.37922241974197  0.17104874637464 -2.69014127232723
 6 -8.52517861816182  0.73626860926093 -0.14839846234623
 6  9.22240717001700 -0.46525430123012  0.17822790659066
 6  11.00733067856786 -1.59090205700570 -2.07083668836884
 6 -7.07136845974598  0.56985422722272 -0.10033212251225
 6  8.82102855925593 -1.75592539003900 -0.16392153315332
 6 -6.60737215871587 -0.94457321422142 -0.06046315771577
 6  7.40606909440944 -2.22309518151815 -0.12176323862386
 6 -6.22284206020602  1.58206178067807 -0.17026888348835
 6  7.05967916211621 -3.57175089728973  0.20964118231823
 6  6.34881215021502 -1.27208749744975 -0.15602794519452
 6 -4.75969994369437  1.56328986818682 -0.26702761616162
 6  5.01754260016002 -1.41464930783078  0.03579579937994
 6 -3.96619799219922  2.65668869506951 -0.55365655465547
 6 -2.62355279337934  2.67371532913291 -0.49441218901890
 6  4.04524849034904 -0.41106161226123 -0.27211672807281
 6  2.66984403300330 -0.65534000550055 -0.07196214881488
 6 -1.94561311151115  3.92747733033303 -1.16553570097010
 6 -1.79679676517652  1.61706445084508 -0.09008502490249
 6  1.80403894889489  0.36558812031203 -0.28841740364036
 6  2.09469279037904 -2.07411019831983  0.35443781168117
 6 -0.38766102500250  1.60153147444744 -0.20806416621662
 6  0.41394622542254  0.40564223202320 -0.03466672747275
 1 -10.90756749824982  1.35569735503550 -0.24495634083408
 1 -12.42701617471747 -1.91675168886889  2.32726062076208
 1 -10.81996966656666 -1.83029222422242  1.51632491509151
 1 -12.41116475007501 -3.12102120942094  0.09720458255826
 1 -10.00241564286429 -0.12732105650565  2.34173279717972
 1 -11.02599276587659  1.60555363236324  2.28775349724972
 1 -11.46096368866887  0.64230764976498  3.29732391019102
 1 -13.57990919271927  0.56916291859186  0.32602907320732
 1 -13.64520029062906  0.66568817621762  2.08484248624863
 1 -12.94921360676068  1.89331295309531  1.18233871717172
 1  12.36041340804080  2.09417436693669 -0.17229938673867
 1  13.03309773687369  2.00372441134113  1.37496509770977
 1 -12.59462294089409 -2.08674547104710 -2.04765895659566
 1  13.72583216801680 -0.14099384518452  1.04083441934193
 1 -9.12790515621562 -1.13346820582058  0.18050561056106
 1  13.46824196829683 -1.21147418671867 -1.14259941594159
 1  13.09255567306731  0.45846442434243 -1.72817274107411
 1  9.22621931953195  1.56730678247825  1.78341358875888
 1  10.09561142274227  2.55103770617062  0.09202611811181
 1  10.48608228152815  2.73426839853985  1.71830798179818
 1  12.11937477877788 -0.33079032763276  2.66144256565657
 1  10.26691166176618 -0.21896443744374  2.44053718181818
 1  11.48621952105210  1.08946674347435  3.21803674667467
 1 -10.31338383638364  0.38201811251125 -2.62537993369337
 1 -11.85790484678468  1.18535453395340 -2.67509457475748
 1 -11.84616246134613 -0.42934168546855 -3.49485724332433
 1 -14.45121839513951 -2.21668062066207 -0.35775397919792
 1  8.50312938093809  0.25056528172817  0.52925557175718
 1 -8.80626579547955  1.85316696949695 -0.34471979237924
 1  11.19322505700570 -2.61558305430543 -1.59242209370937
 1  9.93376624302430 -1.54285038673867 -2.30536647064706
 1  11.57917721142114 -1.48308139823982 -2.91206715481548
 1  15.29430861116112  1.42243034283428  0.54646261516152
 1  9.55249502580258 -2.58681176287629 -0.52825926842684
 1 -5.48387284828483 -1.13252040274027  0.47396479327933
 1 -7.30569946804681 -1.55297727092709  0.75374762716272
 1 -6.60288652385239 -1.70499894809481 -0.89601781658166
 1 -6.51589387588759  2.59009780488049 -0.25378858055806
 1  7.02102565156516 -3.82912633523352  1.44249394509451
 1  6.19226657185719 -4.08819400720072 -0.17904749594959
 1  7.83302319971997 -4.30873705830583 -0.01191422412241
 1  6.63160158705871 -0.16190342974297 -0.34834695659566
 1 -4.35415764736474  0.61712137733773 -0.28964502210221
 1  4.31986559005901 -2.31557081008101  0.37746008520852
 1 -4.42800884658466  3.61021900370037 -0.67145680118012
 1  4.33921399759976  0.49811715061506 -0.57991720912091
 1 -1.78599835803580  3.77687913461346 -2.32482075397540
 1 -0.90417325572557  4.45435259255926 -0.63722568236824
 1 -2.83801328942894  4.80555297079708 -0.81036933063306
 1 -2.24391327172717  0.63465009050905  0.10295556555656
 1  2.25815485758576  1.22085607480748 -0.75556257135714
 1  3.00917944564456 -2.45297169956996  1.25312369086909
 1  0.99296436773677 -2.13124241534153  0.91968068296830
 1  2.07921067046705 -2.84068185538554 -0.56008025102510
 1  0.10084596949695  2.44353419311931 -0.47264425592559
 1 -0.28928182418242 -0.45206537633763  0.04365371037104

