%nproc=4
%Mem=4GB
# td=(NStates=1) CAM-B3LYP/6-31G(d,p) 

TD

0 1
 8 -14.07553342854285 -2.08851723342334  0.46584683998400
 8  14.89034087088709  0.90310789738974  0.17001759765977
 6 -11.92532539213921  0.06540261516152  1.32253707370737
 6 -11.04915187768777  0.33762653365337  0.08681239403940
 6 -11.99049453005301 -1.43391787618762  1.48575641694169
 6 -12.66755014851485 -2.17369843464346  0.36879103000300
 6 -11.55598088698870 -0.42114959325933 -1.15714120402040
 6  11.11867519811981  0.91456309880988  1.19689996969697
 6 -11.05264673787379  0.47667940674067  2.58343539423942
 6 -13.21435759815982  0.72247789468947  1.21195227202720
 6  12.62679986048605  1.51691111761176  0.83858124432443
 6 -12.16355734163416 -1.62812067986799 -0.97315008370837
 6  13.61369299019902  0.43022069466947  0.51030834973497
 6  10.72189166346635 -0.09243865406541  0.03269685478548
 6 -9.56316508040804 -0.00566341454145  0.09378938653865
 6  13.09196717431743 -0.36950416981698 -0.76379196549655
 6  11.62247533633363 -0.52413745904590 -0.79581464026403
 6  10.16719360496050  2.06760607260726  1.10202291569157
 6  11.12445327782778  0.24310348574857  2.53817437873787
 6 -11.23337783528353  0.09852149364936 -2.54539679787979
 6 -8.53666976727673  0.94083906630663 -0.15546916941694
 6  9.20566549584959 -0.43297107290729  0.05363544734473
 6  11.22655260076008 -1.52813578037804 -1.98881848654866
 6 -7.19273059595960  0.63897113891389 -0.13401549084909
 6  8.82505896229623 -1.61356115361536 -0.12843798479848
 6 -6.71440286178618 -0.79153791069107  0.24746763536354
 6  7.34946343384338 -1.99228210021002 -0.16829789208921
 6 -6.24655443144314  1.58444201870187 -0.24684654125413
 6  7.13827702190219 -3.53360708290829 -0.01391117291729
 6  6.34300156915692 -1.21873216191619 -0.29255159755976
 6 -4.86376034973497  1.57466100530053 -0.37908882228223
 6  4.96255710161016 -1.53648149104911 -0.15456323652365
 6 -4.02156352875287  2.61598462466247 -0.60533172217222
 6 -2.63119355745575  2.61373933153315 -0.75078782658266
 6  4.01443540904090 -0.67163766986699 -0.33059257565757
 6  2.59443649224922 -0.79154362586259 -0.29008396099610
 6 -1.97203575377538  3.90520510311031 -1.14317346474647
 6 -1.91237832333233  1.51951469586959 -0.64573058945895
 6  1.73578212321232  0.32380394189419 -0.46066462836284
 6  2.21281460256026 -2.14901768906891 -0.05660329242924
 6 -0.44345660456046  1.46737805910591 -0.65176853665367
 6  0.32386721752175  0.41063273107311 -0.48761202200220
 1 -11.19317605910591  1.52580436573657  0.13153130793079
 1 -12.58888236133613 -1.83133314701470  2.44235212991299
 1 -11.05715338493849 -1.84606380138014  1.59077235983598
 1 -12.52354598819882 -3.25538464576458  0.29726458855886
 1 -10.03702910421042 -0.05652397679768  2.56671529542954
 1 -11.05203537013701  1.68258133513351  2.62256697859786
 1 -11.58588618091809  0.15238865786579  3.59529370717072
 1 -13.52988419021902  0.51522752505250  0.19276574687469
 1 -14.09722549314932  0.29783139053905  1.91076507850785
 1 -12.97000568596860  1.86738035983598  1.29077956125613
 1  12.54588195489549  2.32311726122612  0.15122296549655
 1  13.10017444454445  2.22591663056306  1.65865346654665
 1 -12.49991346994700 -2.10511730823082 -1.86919110981098
 1  13.74616420122012 -0.34963470927093  1.24603493939394
 1 -9.36256862256226 -0.97576243524352  0.35930349034903
 1  13.74711985608561 -1.21779481878188 -0.90067522352235
 1  13.37156357385739  0.27430600850085 -1.71710163396340
 1  9.26339303690369  1.92057210901090  1.81573682108211
 1  9.93831569316932  2.59666226862686  0.13601051655166
 1  10.69872354565456  2.89344431613161  1.74576072707271
 1  11.98358119941994 -0.46475372397240  2.57589401080108
 1  10.15027999859986 -0.25905844684468  2.73654678277828
 1  11.25531643074307  0.90824862166217  3.29742468546855
 1 -10.05390788878888  0.12929283998400 -2.55796319201920
 1 -11.82761181748175  0.92818881738174 -2.70811787708771
 1 -11.56578442354235 -0.59725847714771 -3.31228898649865
 1 -14.24478775207521 -2.58888784138414 -0.51883008680868
 1  8.68615768376837  0.48848907410741  0.27470011621162
 1 -8.75024019291929  1.85255690849085 -0.63106842724272
 1  11.35061079557956 -2.59793128912891 -1.77960081158116
 1  10.11872473887389 -1.15091119281928 -2.35887182118212
 1  11.86435572927293 -1.01629471957196 -2.83886983508351
 1  15.31841102140214  1.42655075487549  0.69877784668467
 1  9.52765254155416 -2.46794987668767 -0.34967140964096
 1 -5.56597105810581 -0.80600775147515  0.53309070587059
 1 -7.41560045814582 -1.09876184938494  1.15024727712771
 1 -6.88183441864186 -1.41066951515152 -0.91569978477848
 1 -6.71438372487249  2.56730552565257 -0.53111631333133
 1  7.40592414141414 -3.88452187478748  1.27662735843584
 1  6.13550089528953 -4.05154034183418 -0.43077266846685
 1  7.86445634303430 -4.07632381698170 -0.54639767246725
 1  6.55239366626663 -0.09275651505151 -0.50748287018702
 1 -4.49272150375038  0.70294996019602 -0.08623468106811
 1  4.73249685318532 -2.47681693469347  0.12357469666967
 1 -4.57927397309731  3.57120510231023 -0.77392704820482
 1  4.32954303050305  0.34716205510551 -0.48516773417342
 1 -1.30067982618262  3.84702614931493 -2.16738501040104
 1 -1.49973281168117  4.40595775307531 -0.36736869666967
 1 -2.74386387448745  4.78549096459646 -1.38047634133413
 1 -2.37739662006201  0.50873749924993 -0.44085881588159
 1  2.12290133223322  1.29602359155916 -0.72273928902890
 1  2.38747727542754 -2.53602000440044  0.82401077957796
 1  1.12718779007901 -2.26280557165717  0.04392310721072
 1  2.57845059445945 -3.00025781298130 -0.77224146714671
 1 -0.13630774587459  2.46475631533153 -0.96375336683668
 1 -0.29662255825583 -0.51057122692269 -0.34294494949495

