%nproc=4
%Mem=4GB
# td=(NStates=1) CAM-B3LYP/6-31G(d,p) 

TD

0 1
 8 -14.14886076127613 -2.03608198989899  0.56657691299130
 8  14.82227406420642  1.01828941554155  0.36510710661066
 6 -11.71395425502550  0.06061213611361  1.40424524452445
 6 -10.97336429892989  0.25962873387339  0.02367608040804
 6 -11.91584706530653 -1.46466095049505  1.54371221252125
 6 -12.75543893739374 -2.14953601840184  0.34167831873187
 6 -11.64935022392239 -0.46030350865087 -1.14425991589159
 6  11.10677400800080  0.99743138563856  1.14819509920992
 6 -10.81263273647365  0.53292503130313  2.53910096079608
 6 -13.08247440984098  0.87784343124312  1.38303938073807
 6  12.53048022852285  1.51883130963096  0.86966435263526
 6 -12.38498948484849 -1.54066193399340 -0.93504627332733
 6  13.54968658955896  0.50814848744874  0.55979329822982
 6  10.69356883118312 -0.13975338553855  0.13771735683568
 6 -9.53037180108011 -0.08806165436544  0.03540354795480
 6  13.15189316691669 -0.20175739513951 -0.71786737303730
 6  11.61980506930693 -0.58988403370337 -0.67089214801480
 6  10.13072995859586  2.15444475647565  0.91797451085109
 6  10.83055388788879  0.40159933533353  2.55516607790779
 6 -11.44085858335834  0.08924056555656 -2.46659891809181
 6 -8.54352045234524  0.82601758415842 -0.16965058755876
 6  9.31994692399240 -0.55541331713171  0.07010709450945
 6  11.40023996949695 -1.61541450825082 -1.82282188688869
 6 -7.10592191509151  0.51874911671167 -0.13938602790279
 6  8.80365682208221 -1.70990078757876 -0.14701984298430
 6 -6.63109453095310 -0.92780153705371  0.00361324992499
 6  7.41553004050405 -2.14037690969097 -0.27187825012501
 6 -6.18642841884188  1.52302587708771 -0.27817967456746
 6  7.07855104930493 -3.62467618981898 -0.15728551035103
 6  6.37719498849885 -1.19656994569457 -0.46184852725273
 6 -4.74069804350435  1.39951349054905 -0.53531444484448
 6  4.91571241714171 -1.57280512341234 -0.23029080928093
 6 -4.04218559095910  2.61416444264426 -0.57821901090109
 6 -2.60236067416742  2.69139709730973 -0.73708645644564
 6  4.00880484598460 -0.60249075517552 -0.38433795019502
 6  2.55877292589259 -0.74695916741674 -0.47775272787279
 6 -2.00189874007401  4.03615819841984 -1.10160930833083
 6 -1.81347843334333  1.60452319671967 -0.60109612601260
 6  1.77441598659866  0.37583914541454 -0.49188775067507
 6  2.01866518761876 -2.11281406870687 -0.08440607270727
 6 -0.36185844474447  1.56733805510551 -0.65943930373037
 6  0.34699953075308  0.42040370817082 -0.39326258705871
 1 -11.25843258475848  1.28523030833083 -0.15173701890189
 1 -12.52491596469647 -1.66856687038704  2.58941683638364
 1 -10.88995666526653 -1.91778097309731  1.55268855145515
 1 -12.41332496609661 -3.38444755205521  0.49722458455846
 1 -10.04004940624062 -0.20308863326333  2.88043666756676
 1 -10.73453361996200  1.67100017701770  2.51774649654965
 1 -11.57477506980698  0.38417183618362  3.35355953375338
 1 -13.49427062886289  0.49574557685769  0.45731220152015
 1 -13.39990576117612  0.73987559495950  2.22421642364236
 1 -12.77076576197620  1.90356397819782  0.97976846014601
 1  12.44779214591459  2.20978592809281  0.03698154135414
 1  12.54018844594459  2.14062810171017  1.87278487968797
 1 -13.10078355695570 -2.04254105060506 -1.81723591429143
 1  13.51721130593059 -0.42181192699270  1.27078741464146
 1 -9.34659702540254 -1.05235009400940  0.05071263126313
 1  13.62326747084708 -1.16452949224923 -0.83469862586259
 1  13.23758017551755  0.58306688458846 -1.42130205400540
 1  9.01421811941194  1.88652870467047  1.08553380078008
 1  10.22433429502950  2.58613121552155 -0.12650573507351
 1  10.45839951325132  3.06270124182418  1.61989814081408
 1  11.31220406170617 -0.51379862846285  2.50115653705371
 1  9.83460843144314 -0.01476401740174  2.72660578867887
 1  11.16511741084108  1.05595339213921  3.33923886688669
 1 -10.22499499749975  0.26864677537754 -2.44484187988799
 1 -11.87944700100010  1.10981698019802 -2.53808087338734
 1 -11.84405225032503 -0.51218997029703 -3.39040679827983
 1 -14.51437471077108 -2.36252520512051 -0.17230543434343
 1  8.69945901390139  0.12063228842884  0.45392803900390
 1 -8.71650681958196  1.99699135193519 -0.12481780218022
 1  11.44727046154616 -2.66749824582458 -1.70696354785479
 1  10.33022588898890 -1.44784088578858 -2.08506444044404
 1  11.97956725042504 -1.50404349444944 -2.85586153425343
 1  15.16174535483548  0.86359445924592  1.41682965186519
 1  9.47856763306331 -2.72740582228223 -0.22957940044004
 1 -5.56702116311631 -0.96597374807481  0.13507090389039
 1 -6.80346924502450 -1.26396837003700  0.95626787918792
 1 -7.09365560076008 -1.52361080928093 -0.64995321012101
 1 -6.76238852535254  2.45248404350435 -0.43626682838284
 1  6.80784433343334 -3.99295271787179  0.94434413011301
 1  6.36948429362936 -4.15752093989399 -0.94533412461246
 1  7.96871676907691 -4.37377356195620 -0.11578461116112
 1  6.57537596449645 -0.10440768016802 -0.74517663956396
 1 -4.34364659625963  0.49562922812281 -0.24367042464246
 1  4.72770637413741 -2.52818207120712 -0.09584724552455
 1 -4.30864691039104  3.54470245204520 -0.76638629412941
 1  4.43978405460546  0.38452579147915 -0.51236045344534
 1 -1.24113387158716  3.94210565726573 -1.97808608050805
 1 -1.28769160756076  4.60423758105811 -0.25875783558356
 1 -2.74421390949095  4.90227264276428 -1.17925621932193
 1 -2.39066794719472  0.62850947644764 -0.35179990999100
 1  2.26106514861486  1.21757574677468 -0.87185420052005
 1  2.68523705140514 -2.42783918631863  0.79045742424242
 1  0.90510558185819 -2.23185247634763  0.18285700060006
 1  2.20125287468747 -2.90888867606761 -0.77519176217622
 1 -0.00286440154015  2.61036087578758 -0.85889288078808
 1 -0.12716561256126 -0.46646681648165 -0.08127878287829

