%nproc=4
%Mem=4GB
# td=(NStates=1) CAM-B3LYP/6-31G(d,p) 

TD

0 1
 8 -13.95467134233423 -2.17805618731873  0.47600785608561
 8  14.80215205200520  0.82953053965397 -0.00223962806281
 6 -11.80178303790379 -0.10711463656366  1.38222304230423
 6 -10.91911887438744  0.34290706170617  0.10418413121312
 6 -11.83260874147415 -1.55940042444244  1.37384522582258
 6 -12.51528492199220 -2.25015608040804  0.20154430533053
 6 -11.49661495039504 -0.33891136943694 -1.24688017791779
 6  11.15056838743874  0.83159480198020  1.15440572027203
 6 -10.87262873607361  0.35772751155116  2.58571562226223
 6 -13.13269943234323  0.47956360326033  1.39207028382838
 6  12.56308348884889  1.32276170267027  0.79131651785179
 6 -12.19212019791979 -1.45660352815282 -1.11181395009501
 6  13.51150277117712  0.28517619021902  0.35667298619862
 6  10.68742821712171 -0.13265267546755  0.13363694879488
 6 -9.51527029092909 -0.06917976617662  0.04652466006601
 6  12.95195317291729 -0.32321954135414 -0.98970455675568
 6  11.52983607240724 -0.66379142444244 -0.80983604240424
 6  10.24894177977798  2.16866617861786  1.15192790619062
 6  11.09562039453945  0.20953012841284  2.55326588788879
 6 -11.23416791429143  0.29494113561356 -2.50598285648565
 6 -8.52405850615062  0.75922090449045 -0.00643426592659
 6  9.33461839113911 -0.51911968776878  0.16137622142214
 6  11.09873981948195 -1.48947191399140 -2.02255185988599
 6 -7.12193351625163  0.58642588438844  0.04917282798280
 6  8.78043449984999 -1.73186298379838 -0.09910505150515
 6 -6.67314873637364 -0.82338109500950  0.30719360796080
 6  7.31805029252925 -1.95386825882588 -0.03380444274427
 6 -6.22896267226723  1.67367094159416 -0.39455131173117
 6  7.09627282148215 -3.45895961816182  0.13279349754975
 6  6.26281355035503 -1.11321160986099 -0.12334467686769
 6 -4.85734970867087  1.53492703190319 -0.64087500090009
 6  4.95540638653865 -1.48131597449745 -0.12724050425043
 6 -4.08096946934693  2.65337836403640 -0.86563775277528
 6 -2.66629706780678  2.75516347394739 -0.95911865966597
 6  3.90416438193819 -0.51293179927993 -0.29473899029903
 6  2.56445349394940 -0.72865733723372 -0.14302925552555
 6 -2.09946849704970  4.13327791039104 -1.23297244464446
 6 -1.81633871937194  1.60338308270827 -0.59475549194919
 6  1.74583312831283  0.45187674917492 -0.45173373527353
 6  2.00529385048505 -1.94689747704770  0.17809017691769
 6 -0.43174543344334  1.62889421072107 -0.67672103190319
 6  0.35661049184918  0.48327999579958 -0.34390765156516
 1 -11.22371911341134  1.51135292059206 -0.05594743994399
 1 -12.43334680778078 -2.10859087278728  2.11687958265827
 1 -10.83193086268627 -2.06081527652765  1.43250653325333
 1 -12.15586922052205 -3.28973808110811  0.01115597769777
 1 -9.86519192049205 -0.02614093849385  2.26749537343734
 1 -11.20262042864286  1.43652672967297  2.65966068796880
 1 -11.28849644194419 -0.19235581658166  3.56555073287329
 1 -13.82081328312831  0.36469247154715  0.54038050835084
 1 -13.52712848344835  0.08996060346035  2.40208421042104
 1 -12.89669835523552  1.50018364016402  1.43020350365037
 1  12.51529889658966  1.97787273677368 -0.03599575637564
 1  13.16427085418542  1.90807484638464  1.62514011521152
 1 -12.58006148474847 -1.81457825432543 -2.03606779747975
 1  13.49837942274227 -0.57413715951595  1.11572190809081
 1 -9.28369073477348 -1.04357921692169  0.40470803080308
 1  13.88065320942094 -0.99718275757576 -1.26626178217822
 1  12.93201961946195  0.41321989988999 -1.62724264806481
 1  9.32764946254625  1.74882493429343  1.57792303970397
 1  9.88690055165516  2.68158076047605  0.29258617411741
 1  10.52065573887389  2.96054102580258  1.86887303830383
 1  11.86625946724673 -0.44018126672667  2.84448086948695
 1  10.28433340394039 -0.31896443744374  2.90611373947395
 1  11.36029692879288  1.10625842264226  3.24788973197320
 1 -10.11402390039004  0.33274318501850 -2.53956135183518
 1 -11.62880193649365  1.26546254475448 -2.54488155345535
 1 -11.70800864596460 -0.38279703100310 -3.34213197079708
 1 -14.34099737303731 -2.91019997259726 -0.28819702350235
 1  8.54253332133213  0.13900412561256  0.36656930313031
 1 -8.63231840074007  1.88597024982498 -0.38374369476948
 1  11.34755048954896 -2.56052754875487 -1.88301115261526
 1  10.05047791419142 -1.68190429212921 -2.16922285628563
 1  11.73978327202720 -1.35299838993899 -2.93871982008201
 1  15.24028320862086  0.91984008380838  0.81308927782778
 1  9.37946772307231 -2.49411249294929 -0.31382782528253
 1 -5.60748520952095 -0.92233938463846  0.48647604440444
 1 -7.17205610371037 -1.18432040524052  1.22502475487549
 1 -6.88565480068007 -1.59144759295930 -0.59093730853085
 1 -6.63737602410241  2.53124191929193 -0.44939814151415
 1  6.75175872487249 -3.68021144374437  1.17256695239524
 1  6.30528787398740 -3.83393858165817 -0.42739233043304
 1  7.99034893229323 -4.10536672127213 -0.07420045274527
 1  6.50097852475248 -0.07103434283428  0.01597947604760
 1 -4.41950418201820  0.60712037723772 -0.73958001560156
 1  4.68879248274827 -2.60878013101310  0.01090342954295
 1 -4.64213025872587  3.72609059085909 -0.62768242374237
 1  4.14535461166117  0.40250758965897 -0.48703792119212
 1 -1.01438119631963  4.12594404110411 -2.05020329222922
 1 -1.80810364876488  4.71102826012601 -0.11861382118212
 1 -3.27054654275428  4.50735315081508 -1.82125041874187
 1 -2.44663354375438  0.80031665716572 -0.05578030803080
 1  2.34964400650065  1.25755974517452 -0.55881289638964
 1  2.38483701140114 -2.28574497689769  1.20854923342334
 1  0.91258632993299 -2.06985627672767  0.48468718361836
 1  2.28910165956596 -2.70378816601660 -0.59590383338334
 1  0.01637752265227  2.67632747244725 -1.11353834533453
 1 -0.40486338233823 -0.36203637343734 -0.07816847184718

