%nproc=4
%Mem=4GB
# td=(NStates=1) CAM-B3LYP/6-31G(d,p) 

TD

0 1
 8 -14.03914979017902 -2.07612599429943  0.66679693499350
 8  14.84168600540054  0.75757334393439  0.20754135003500
 6 -11.68993185278528  0.07799387428743  1.27783260326033
 6 -10.89322628512851  0.33448621962196  0.00356406920692
 6 -11.93083856445645 -1.42454693909391  1.45870371167117
 6 -12.57384077757776 -2.04437550235023  0.26619076997700
 6 -11.49332462136214 -0.42728020632063 -1.18414390429043
 6  11.04404773537354  0.92929457195720  1.13766404610461
 6 -10.78656012921292  0.53730546934693  2.37584463516352
 6 -12.97170333273327  0.81994764166417  1.18739981678168
 6  12.49461664216422  1.47223665016502  0.89855724192419
 6 -12.18274926082608 -1.49017688548855 -0.94172694139414
 6  13.45745736663666  0.30106777937794  0.36060337923792
 6  10.61284075837584  0.08951954175418  0.00733431853185
 6 -9.50751951585159  0.03818096989699 -0.02016200860086
 6  12.91497947554755 -0.03592081148115 -1.04805039133913
 6  11.46749983878388 -0.35007005230523 -0.96798185698570
 6  10.16327321292129  2.28682799479948  1.15908862226223
 6  11.02742357485748  0.13316249164917  2.47444800610061
 6 -11.28065256275628  0.12611425292529 -2.56638889708971
 6 -8.42471857215722  0.76236121852185 -0.15816943944394
 6  9.19052398169817 -0.43580135593559  0.09676976077608
 6  10.94277422292229 -1.01577454425443 -2.20425002970297
 6 -7.00734205710571  0.46060330213021 -0.09716180548055
 6  8.66828328472847 -1.71130092759276 -0.15519066006601
 6 -6.67140856235624 -0.87292604950495  0.16741963056306
 6  7.34648313581358 -2.15085795779578  0.02617155485549
 6 -6.17731750775078  1.54742831733173 -0.37024888148815
 6  7.19333252745275 -3.64909863206321  0.10440065826583
 6  6.27473474247425 -1.31386167486749 -0.08072041444144
 6 -4.85166914061406  1.49891343054305 -0.46021693509351
 6  5.00747159305931 -1.57522536543654  0.00678289808981
 6 -4.01319269166917  2.51276430263026 -0.70423161216122
 6 -2.49819025712571  2.61185914351435 -0.73806655445545
 6  3.88431239673967 -0.72611311741174 -0.23206272267227
 6  2.51912896149615 -0.83705817731773 -0.22017697029703
 6 -1.93522207240724  4.04696927952795 -1.01336048344834
 6 -1.77575466096610  1.50900364476448 -0.58425444184418
 6  1.72305085008501  0.24047560906091 -0.50607916981698
 6  2.01190451155116 -2.20455324262426  0.28483085098510
 6 -0.39877213611361  1.40097141844184 -0.64545790559056
 6  0.35197002780278  0.28010967876788 -0.41727498829883
 1 -10.93634037553755  1.38443022832283 -0.21371321652165
 1 -12.77191066416642 -1.50882089578958  2.22462035673567
 1 -11.01035870547055 -1.95787498249825  1.62375565816582
 1 -12.10524415801580 -3.05625473277328  0.27459232133213
 1 -9.75782118341834  0.21196287188719  2.16885550945095
 1 -10.89450961756176  1.80792386938694  2.36747146904690
 1 -11.15167275957596  0.36853027202720  3.45337951575157
 1 -13.55971717351735  0.69116511881188  0.31799827012701
 1 -13.75814158475848  0.83419502690269  2.13125712771277
 1 -12.81011969736974  1.89294291609161  1.16324680798080
 1  12.47976534323432  2.53713866336634  0.19844768796880
 1  12.79925435253525  1.78740277917792  1.90497809900990
 1 -12.50766424502450 -2.21431822832283 -1.76251044174417
 1  13.40779036383638 -0.55334508030803  1.00029036493649
 1 -9.23157552325233 -1.15067992699270 -0.01638407840784
 1  13.59058420252025 -0.86044908420842 -1.48220337633763
 1  12.88185460296030  0.78342692059206 -1.70409033283328
 1  8.93661035863586  2.16347639943994  1.55118036543654
 1  9.91620348194819  2.65518812121212  0.04775169066907
 1  10.51817549084909  3.08278325002500  1.80359651065107
 1  11.68373121442144 -0.86403365196520  2.51569799119912
 1  10.13424839543954 -0.37440998199820  3.01450457855786
 1  11.37570846994699  0.77745554235424  3.30601554455446
 1 -10.07499999799980  0.29160907160716 -2.70591798749875
 1 -11.89625868216822  1.14259025752575 -2.86765383068307
 1 -11.71094893999400 -0.61591034233423 -3.21871962956296
 1 -14.39822309560956 -2.24817376997700 -0.12339054285429
 1  8.49967903590359  0.33865409060906  0.58722136833683
 1 -8.73631880078008  1.68810046284628 -0.64984030443044
 1  11.38144387888789 -2.09634113011301 -2.18458130963096
 1  9.94067693409341 -1.09523562526253 -2.40359629362936
 1  11.61570086378638 -0.78032112221222 -3.05531147924793
 1  15.14804398469847  1.17814591439144  1.10984895379538
 1  9.24775455175518 -2.51865494719472 -0.35086152865287
 1 -5.61751621262126 -1.12819997069707  0.21111850865087
 1 -7.13833273137314 -1.47212918611861  1.01960421282128
 1 -6.80752698789879 -1.47714616281628 -0.77005522032203
 1 -6.69410169666967  2.48783757885789 -0.58072127382738
 1  6.88529207820782 -4.06204962756276  1.10789048474847
 1  6.41705905110511 -3.97323251105110 -0.58247783898390
 1  8.02796269366937 -4.09758594319432 -0.12142517521752
 1  6.53864229112911 -0.20844808420842 -0.27276939883988
 1 -4.47844007560756  0.40326999219922 -0.34210026762676
 1  4.81540514401440 -2.57461671467147  0.25927826702670
 1 -4.55739178487849  3.53511149294930 -0.71271092659266
 1  4.10476055225523  0.48570590949095 -0.29160837823782
 1 -1.39817957615762  4.18945039173917 -2.00256852875288
 1 -1.13264610301030  4.20395755305531 -0.19236119591959
 1 -2.78929841794179  4.60496291179118 -0.87054534823482
 1 -2.13407228762876  0.52391901740174 -0.29989471947195
 1  2.20838988108811  1.01994598379838 -0.89867688278828
 1  2.22643117081708 -2.40137654005401  1.37025540404040
 1  0.89342441374137 -2.21369066016602 -0.05468675377538
 1  2.43010575997600 -3.05619340654065 -0.41394563756376
 1  0.27805369026903  2.20223006270627 -1.09741673317332
 1 -0.11300419641964 -0.76912708250825 -0.13466412141214

