%nproc=4
%Mem=4GB
# td=(NStates=1) CAM-B3LYP/6-31G(d,p) 

TD

0 1
 8 -14.16473234843484 -1.99351773347335  0.42715297059706
 8  14.84916675347535  1.00167775437544 -0.11962136623662
 6 -11.79846270587059  0.06484255915592  1.19398421842184
 6 -10.97529449194920  0.32006477747775 -0.08985527272727
 6 -12.10319580018002 -1.49520400480048  1.39442728402840
 6 -12.79665305880588 -2.09870093489349  0.22688683958396
 6 -11.52144743364336 -0.46727420572057 -1.23052854275428
 6  11.16541987258726  0.93246488898890  1.04775505520552
 6 -10.92344381758176  0.61183292209221  2.36675372607261
 6 -13.11202736513651  0.88485413231323  1.19033010981098
 6  12.57397457795780  1.54563398989899  0.63103048924893
 6 -12.32683366926693 -1.45461332913291 -1.12209497819782
 6  13.46433805470547  0.47516518911891  0.21662898179818
 6  10.67675715001500  0.00391098089809 -0.02398881378138
 6 -9.51436019991999 -0.12255510371037 -0.08644863726373
 6  13.02138011561156 -0.19891711111111 -1.05101068736874
 6  11.49676276507651 -0.58621366666667 -0.95527058585859
 6  10.22354924052405  2.19066837883788  1.04033674707471
 6  11.20017084958496  0.26764593999400  2.39580014131413
 6 -11.21437593509351 -0.04703306180618 -2.68474073227323
 6 -8.52553865416542  0.76850183258326 -0.22322594509451
 6  9.31130605990599 -0.51293906970697 -0.03643355955596
 6  11.01600154565456 -1.49474244104410 -2.03084268896890
 6 -7.10582190509051  0.47397463926393 -0.18019010831083
 6  8.83594005040504 -1.82313211071107 -0.04117925892589
 6 -6.71739316081608 -0.97537629452945 -0.02468958035804
 6  7.42256074357436 -2.21234410641064 -0.07949901220122
 6 -6.30428020402040  1.59771334583458 -0.41986384298430
 6  7.16252944714471 -3.65092881508151  0.32304252245225
 6  6.41489875887589 -1.27303759245925 -0.17557990039004
 6 -4.87857183088309  1.46394993419342 -0.31641255465547
 6  5.05955680158016 -1.53414125702570 -0.01508928912891
 6 -3.95007638003800  2.56472949914991 -0.55304649364936
 6 -2.64809524762476  2.67323528112811 -0.38504125192519
 6  4.07136110161016 -0.52471297739774 -0.27917743414341
 6  2.66743379197920 -0.71943641514151  0.00830587798780
 6 -1.97071562176218  4.04135871847185 -0.67754690209021
 6 -1.80773785928593  1.52832557695770 -0.23299931633163
 6  1.72871141614161  0.31661322282228 -0.23462202410241
 6  2.11238455955596 -2.02712549984999  0.34932730063006
 6 -0.40799305820582  1.57361868316832 -0.30222358215822
 6  0.43874870567057  0.35754742254225 -0.07343060386039
 1 -10.96084282578258  1.33542532783278 -0.36350819601960
 1 -12.88180165326533 -1.66129614331433  2.18802669736974
 1 -10.98135580518052 -2.00691988698870  1.61854513711371
 1 -12.51074470807081 -3.11592069936994  0.32977783988399
 1 -9.80209561086109  0.11161283688369  2.28902752665267
 1 -10.81935210181018  1.69479255625563  2.31340606250625
 1 -11.26048364066407  0.21441486048605  3.44204838263826
 1 -13.88403960576058  0.51911791409141  0.44038050835083
 1 -13.69371514211421  0.58510011741174  2.26113011501150
 1 -12.75920460586059  1.85846946874687  1.04086456975698
 1  12.35905327202720  2.23372832233223 -0.26487864466447
 1  13.04058848594859  2.13331737063706  1.41057865906591
 1 -12.71243472207221 -1.84609140564056 -2.12109630033003
 1  13.46535612041204 -0.51555130093009  0.76405674157416
 1 -9.18248061376138 -1.35418027702770 -0.01805424542454
 1  13.45209035313531 -1.11539457875788 -1.26298145414541
 1  13.17421383888389  0.53268184608461 -1.99567949174917
 1  9.31326802440244  1.96057610941094  1.54040928832883
 1  9.94955681728173  2.56927953035304  0.18942585808581
 1  10.76428010131013  2.97519249094909  1.69064521552155
 1  11.82768560986099 -0.68849609820982  2.51037745914592
 1  10.16424139473947  0.06080353935394  2.75045817391739
 1  11.48472937203720  1.09397719451945  3.13841878487849
 1 -10.06887938593860 -0.08572866216622 -2.77244464016402
 1 -11.77457651395139  0.92898889738974 -3.05218228352835
 1 -11.49220706580658 -0.74596334763476 -3.32919067666767
 1 -14.57888116141614 -1.85497445004500 -0.52002020582058
 1  8.56722579057906  0.21254147934793  0.22941558775878
 1 -8.77861303020302  1.75175682848285 -0.67714303470347
 1  11.25496123062306 -2.54167566356636 -1.69214206570657
 1  10.09378224462446 -1.34365046674667 -2.31124705870587
 1  11.60042933663366 -1.11427451755175 -2.96336228432843
 1  15.11917109740974  1.50633873367337  0.58933690259026
 1  9.48047782408241 -2.62661574327433 -0.00819726222622
 1 -5.63531799279928 -1.23487063776378 -0.29457206040604
 1 -6.97477637573757 -1.42449442264226  0.98279053145315
 1 -7.29791602680268 -1.62495094329433 -0.70643885868587
 1 -6.61721400790079  2.50715951105111 -0.76155935763576
 1  7.05395894489449 -3.62159558215822  1.48248794449445
 1  6.24216156135614 -4.27920310811081 -0.15947553875388
 1  8.01985188258826 -4.25701188578858  0.00140710801080
 1  6.58453688058806 -0.21841908130813 -0.56312843474347
 1 -4.56233846544654  0.52966263146315 -0.12815887348735
 1  4.49879348284828 -2.44222347534753  0.04934727392739
 1 -4.61071711741174  3.40636861866187 -0.63851350685069
 1  4.34403447964796  0.54362170107011 -0.83950316771677
 1 -1.10449020722072  3.92185363206321 -1.49622789468947
 1 -1.64396723512351  4.39557671497150  0.36998503870387
 1 -2.85948543664366  4.78634104960496 -0.67639593329333
 1 -2.34466334673467  0.57975460096010 -0.13084781478148
 1  2.35191423352335  1.40183417261726 -0.53363037813781
 1  2.74504303200320 -2.36393279567957  1.20879925842584
 1  1.01122619391939 -2.08748803990399  0.31213992889289
 1  2.05930868026803 -2.74444223142314 -0.51615585858586
 1  0.22155804070407  2.51865170487049 -0.51812880438044
 1 -0.27351024702470 -0.53728389818982  0.43263260826083

