%nproc=4
%Mem=4GB
# td=(NStates=1) CAM-B3LYP/6-31G(d,p) 

TD

0 1
 8 -14.11856773197320 -1.93061144284428  0.36210646594659
 8  14.76249808660866  0.99745733233323 -0.07451685578558
 6 -11.77477033663367 -0.03247717281728  1.35039985998600
 6 -10.93325028752875  0.42354512551255 -0.08003429062906
 6 -11.95437091769177 -1.50798528292829  1.32446028732873
 6 -12.69205259875988 -2.17466853165317  0.19177332823282
 6 -11.59199448834883 -0.29896737503750 -1.23301879177918
 6  11.01523485408541  0.97084872737274  0.98647892759276
 6 -11.05032650585058  0.32539427822782  2.61241829252925
 6 -13.08441460386039  0.69840548744874  1.24146522332233
 6  12.49849703020302  1.62354178067807  0.69553693989399
 6 -12.29589057495750 -1.47125499329933 -1.12029479817982
 6  13.47794941584158  0.44371204380438  0.25610292919292
 6  10.68029750405041 -0.08102751295129  0.02137572267227
 6 -9.50328909280928  0.01644879667967  0.02024203180318
 6  12.97370534813481 -0.13181040044004 -0.93233882018202
 6  11.56676976577658 -0.54016906220622 -0.95131018981898
 6  10.10824771037104  2.22282159415942  0.91487420082008
 6  11.01388222072207  0.45817499289929  2.47166772807281
 6 -11.26682117961796  0.29895153665367 -2.51616387458746
 6 -8.49197529782978  0.89443442584258 -0.07577119961996
 6  9.30684561386139 -0.49619739553955 -0.01970188638864
 6  11.17395734123412 -1.53488645544554 -2.10607021172117
 6 -7.01864318721872  0.52332957475748 -0.09359144844484
 6  8.81653811021102 -1.74377417491749  0.02209706870687
 6 -6.57369879137914 -0.93713247014701 -0.10597770917092
 6  7.41402989048905 -2.16039891189119  0.13065200290029
 6 -6.19760953695369  1.63313688818882 -0.28656051265127
 6  7.06274946914691 -3.59683340554055  0.25344556275628
 6  6.33539080808081 -1.23784407310731 -0.00097243964396
 6 -4.73559753345335  1.54851839103910 -0.32349326272627
 6  4.98587943384338 -1.59536737963796 -0.00357813801380
 6 -3.95575694809481  2.56434946114611 -0.70294148314831
 6 -2.60619105720572  2.61836979457946 -0.66107885568557
 6  4.01721568706871 -0.62135264136414 -0.13304282068207
 6  2.61017806640664 -0.84278875037504 -0.08888384098410
 6 -1.89236778697870  4.03036761936194 -0.89401854925493
 6 -1.76679376487649  1.44042678707871 -0.41012702910291
 6  1.70953949894990  0.26189775127513 -0.22737129902990
 6  2.11460478157816 -2.24976776407641  0.17741010891089
 6 -0.35990824972497  1.44596591789179 -0.49476283608361
 6  0.32587741854185  0.14723639143914 -0.34182744354435
 1 -11.24932167366737  1.47612939823982 -0.23343518871887
 1 -12.53209668276827 -1.63899391309131  2.37922581728173
 1 -10.96445411501150 -2.01681087608761  1.47233051565156
 1 -12.36822045564556 -3.27446655395540  0.08249311141114
 1 -10.04303970527053  0.01002267786779  2.34169279317932
 1 -11.05332549914992  1.28559163616362  2.79431415331533
 1 -11.68685627792779 -0.10413699469947  3.47967214501450
 1 -13.58287948974897  0.61594759705971  0.38716518681868
 1 -13.69573534413441  0.37847945534553  2.24106810881088
 1 -12.77461614701470  1.94591821362136  1.18940942424242
 1  12.48305567226723  2.13709865936594 -0.23085524232423
 1  12.87043147024702  2.15587962686269  1.52773037423742
 1 -12.48041151975197 -2.00469726622662 -2.09735392609261
 1  13.50146973177318 -0.33332307810781  0.96206654255426
 1 -9.21649401510151 -1.13288814781478 -0.20851329132913
 1  13.59629477357736 -1.00076311561156 -1.28529368536854
 1  13.17598401590159  0.70962954085409 -1.53565348914892
 1  9.13414011161116  1.90341039283928  1.05887113451345
 1  9.94277613921392  2.46123872627263 -0.15327841234123
 1  10.61450512381238  2.96653162486249  1.46957310831083
 1  11.82686552785279 -0.32777002560256  2.56606302770277
 1  10.00568553915391  0.01046850585059  2.65094822292229
 1  11.11064196329633  1.19479727652765  3.21559650265027
 1 -10.12090458845885  0.37434734543454 -2.69999739543954
 1 -11.77021607790779  1.22099809830983 -2.58215528082808
 1 -11.82767061216122 -0.11123987528753 -3.46623438103810
 1 -14.61549482278228 -1.89140809340934 -0.51652985678568
 1  8.71246031403140  0.23149337453745  0.43733637983798
 1 -8.96883205210521  1.78584023682368 -0.22954827522752
 1  11.46638237273727 -2.68202969896990 -1.70385323682368
 1  10.12778564496450 -1.60335643734373 -2.45463139713971
 1  11.62021131483148 -1.21831492159216 -2.90396634473447
 1  15.07126630693069  1.59102720252025  0.58276624552455
 1  9.36097587388739 -2.72236531823182 -0.21749819231923
 1 -5.36753121412141 -1.17282443314331  0.09944734153415
 1 -7.09983888198820 -1.70202217541754  0.69446169856986
 1 -7.03193942914291 -1.34044249244924 -1.03865208000800
 1 -6.44659694619462  2.67444623972397 -0.39994319601960
 1  6.45757930693069 -3.77631105370537  1.16527622332233
 1  6.09865721092109 -3.93510869866987 -0.54692428362836
 1  8.02621251865187 -4.34014019861986  0.26890385768577
 1  6.44893332023202 -0.20131737113711 -0.17990011191119
 1 -4.15420765236524  0.77326699189919  0.01343528592859
 1  4.49507311081108 -2.46762601560156  0.34308664786479
 1 -4.44375042074207  3.41238922072207 -1.18613826932693
 1  4.36101617781778  0.45614295319532 -0.24090330773077
 1 -1.32801255945595  4.11384283098310 -1.86348462036204
 1 -1.33798663706371  4.16309346664667 -0.16499845964596
 1 -2.62291177927793  5.01494390989099 -0.76818511221122
 1 -2.35174405480548  0.47494411991199 -0.09998472847285
 1  2.21640068216822  1.11248523772377 -0.60538755385539
 1  2.51656018371837 -2.71308771117112  1.03804218271827
 1  0.97983305460546 -2.28039733083308  0.28540725562556
 1  2.43581633103310 -2.87713550075007 -0.64668891189119
 1  0.21235712061206  2.28308814851485 -0.72388938043804
 1 -0.15012790879088 -0.85452562236224 -0.24553520852085

