%nproc=4
%Mem=4GB
# td=(NStates=1) CAM-B3LYP/6-31G(d,p) 

TD

0 1
 8 -14.13071894709471 -2.07592597429743  0.55690594589459
 8  14.80032186898690  1.01892947954795  0.00428102400240
 6 -11.70351321092109 -0.05164909000900  1.26097091709171
 6 -11.02068903140314  0.31651442244224 -0.04012029922992
 6 -11.91849733033303 -1.58056254065407  1.45015285658566
 6 -12.67699109260926 -2.13215428022802  0.14407855875588
 6 -11.60491578047805 -0.27348482678268 -1.18284377427743
 6  11.15116844744474  0.99272091459146  0.98030831053105
 6 -10.87294876807681  0.45448718751875  2.49532658335834
 6 -13.00384654705470  0.75465111201120  1.24190526732673
 6  12.51996917741774  1.62719214571457  0.50575796199620
 6 -12.35671665756576 -1.31196906470647 -1.14040680938094
 6  13.50980260116012  0.42770044264426  0.31215853475348
 6  10.56526600090009 -0.16641605180518  0.05034861996200
 6 -9.55807457135714 -0.08079092729273  0.08017802540254
 6  12.93689166676668 -0.24480169956996 -0.92007759405941
 6  11.45164825362536 -0.66093113841384 -0.80485554435444
 6  10.11620850645065  2.16258557055706  1.08079079247925
 6  11.16953778627863  0.34547372277228  2.37601816311631
 6 -11.40302479998000  0.33779542104210 -2.57894015221522
 6 -8.57265336563656  0.77189217161716 -0.24399802230223
 6  9.19747467676768 -0.46109388518852  0.12387247104710
 6  11.05816576207621 -1.50357332413241 -1.93588319301930
 6 -7.17153847674768  0.47774501630163 -0.24830691999200
 6  8.74473092949295 -1.70726052355236 -0.00940608160816
 6 -6.61830325182518 -0.83166192309231  0.03049593819382
 6  7.36742523002300 -2.19065193719372  0.02554149184918
 6 -6.20837061306131  1.49676325082508 -0.43488534513451
 6  7.12159535373537 -3.57726144834483  0.08519873807381
 6  6.36884415341534 -1.25623591229123  0.05630328792879
 6 -4.72854682838284  1.44876841604160 -0.45045595899590
 6  5.02206305220522 -1.48413625652565 -0.02406018621862
 6 -3.89886125852585  2.47095012121212 -0.55600678967897
 6 -2.61921235933593  2.61502946054605 -0.68434118191819
 6  4.05043900940094 -0.48264877097710 -0.09594911131113
 6  2.70951800040004 -0.74744921642164 -0.07600255285529
 6 -1.92446099629963  3.95202978557856 -0.96669581698170
 6 -1.74714179967997  1.57341008540854 -0.43809982638264
 6  1.74206275127513  0.34999656115612 -0.24553311521152
 6  2.19337265836584 -2.17299008630863  0.01344371227123
 6 -0.41607386628663  1.44229555085509 -0.44948830863086
 6  0.36852168296830  0.37436910471047 -0.30331359215922
 1 -10.84623136463646  1.42583436873687 -0.06976882208221
 1 -12.71026449954995 -2.18546856055606  2.18568646334633
 1 -11.18099576917692 -2.09540873587359  1.74825810841084
 1 -12.60493412701270 -3.08300740804080  0.04025888798880
 1 -10.03273867516752 -0.17836616101610  2.78779740364036
 1 -10.51490165676568  1.52397547454746  2.42094681658166
 1 -11.39664725702570  0.36561998099810  3.44383856165617
 1 -13.56182738453845  0.59169517181718  0.37603407370737
 1 -13.69198496909691  0.44149575697570  2.06743074507451
 1 -12.87663634903490  1.88767238903890  1.50297078037804
 1  12.47967533423342  2.09681463096310 -0.67061921872187
 1  12.79835426252625  2.28155219411941  1.31913951515152
 1 -12.83891737033703 -1.84366116261626 -1.95898008870887
 1  13.48652823762376 -0.24052379817982  1.06882721862186
 1 -9.25085745144515 -1.22835769476948  0.02506006600660
 1  13.58915405950595 -1.32226526582658 -1.24132928892889
 1  13.15391180868087  0.38287686558656 -1.73158308210821
 1  9.42554925252525  1.78329838163816  1.66558180558056
 1  9.89140100170017  2.81515411781178  0.07648456395640
 1  10.67308098139814  2.78764373607361  1.66490264126413
 1  11.91998483978398 -0.30510775937594  2.71857827922792
 1  10.15691066166617  0.02672013101310  2.66486961506151
 1  11.31675257435744  1.21335913271327  3.18093303630363
 1 -10.33529602760276  0.70601051175117 -2.70759815551555
 1 -12.22795185148515  1.14369036753675 -2.64540160546055
 1 -11.36328417351735 -0.46988573987399 -3.37559531713171
 1 -14.46734000730073 -2.34631358395840 -0.19567777157716
 1  8.51310037803780  0.46109633483348  0.53675632183218
 1 -8.73607877677768  1.83268492129213 -0.38818413881388
 1  11.25054078857886 -2.57215871187119 -1.83049590109011
 1  10.00581344774477 -1.37621372307231 -2.24035996999700
 1  11.77712700640064 -1.43304639473947 -2.88852480058006
 1  15.19848902920292  1.40148824862486  0.81511948084808
 1  9.43872364866487 -2.54439752145215 -0.13569001150115
 1 -5.56077053805380 -0.89094624532453  0.28073547034703
 1 -7.05381427952795 -1.17551952515252  0.95801805420542
 1 -6.86638287348735 -1.47537598579858 -0.97414562936294
 1 -6.55707799429943  2.51985078017802 -0.78145134683468
 1  6.31590513951395 -3.95003842644264  0.90680037573757
 1  6.57301464666467 -4.07797298509851 -0.89868946014601
 1  8.15891578897890 -4.17027321192119  0.05838280558056
 1  6.65303373027303 -0.15983322272227 -0.15975809770977
 1 -4.34552678427843  0.42887255245525 -0.25178123572357
 1  4.49302290579058 -2.48662791579158  0.16123846304630
 1 -4.26686273197320  3.48247622942294 -0.56611626712671
 1  4.22855293149315  0.51318865776578 -0.16117533493349
 1 -1.10181994019402  3.85753720042004 -1.70202847474747
 1 -1.41712455085509  4.44365152245225 -0.01405336513651
 1 -2.68852834093409  4.65460787628763 -1.32925121882188
 1 -2.28783766416642  0.59774640014001 -0.35135986598660
 1  2.28161720382038  1.34856884608461 -0.24321133623362
 1  2.81535006270627 -2.61280768316832  0.86136451495149
 1  1.01343641494149 -2.15629492059206  0.31505021992199
 1  2.41189393879388 -2.70597838503850 -0.97175141814181
 1  0.18024390929093  2.31583142284228 -0.50549754125413
 1 -0.25721861786179 -0.58217838763876 -0.09971062606261

