%nproc=4
%Mem=4GB
# td=(NStates=1) CAM-B3LYP/6-31G(d,p) 

TD

0 1
 8 -14.19380525572557 -2.09985836753675  0.66989724502450
 8  14.79690152695269  1.05550313691369 -0.01596100020002
 6 -11.78248110771077  0.06873294819482  1.30586540654065
 6 -11.02993995649565  0.22465523652365 -0.01926821402140
 6 -12.01126660726073 -1.49939442384238  1.50115795709571
 6 -12.70564395789579 -2.12721378617862  0.31154530543054
 6 -11.61887717661766 -0.42624010231023 -1.22789827972797
 6  11.16965029562956  0.88894053655366  1.18374865456546
 6 -10.87279875307531  0.51456319511951  2.46331338203820
 6 -13.03847000940094  0.80307595449545  1.27896897369737
 6  12.50384756525653  1.49554898139814  0.82060944714471
 6 -12.43755474137414 -1.48475634343434 -1.05408817751775
 6  13.47808942984298  0.49780745334533  0.27046436533653
 6  10.65175464976498 -0.09773918411841  0.01549513461346
 6 -9.59053781768177 -0.16703955215522  0.01101110871087
 6  12.96150412801280 -0.12036925632563 -1.00720630693069
 6  11.51241433023302 -0.51199624492449 -0.90598565736574
 6  10.20351723732373  2.01525083708371  1.41750446384638
 6  11.26908774127413  0.12021119651965  2.60487104840484
 6 -11.39797429492949  0.15150679217922 -2.51036329452945
 6 -8.50880698099810  0.79927490989099 -0.21747537003700
 6  9.29103403270327 -0.59965774157416  0.18472855665567
 6  11.20635058055806 -1.43877684448445 -2.10808041274127
 6 -7.11999332223222  0.49289653145315 -0.20810289958996
 6  8.76817327372737 -1.76722652015201 -0.04119926092609
 6 -6.64565598709871 -0.88082683958396  0.22865575417542
 6  7.35656414391439 -2.15030790279028  0.02662159985999
 6 -6.17176695269527  1.50435400990099 -0.44678653525353
 6  7.03792698689869 -3.65074879707971  0.20569078727873
 6  6.41975924492449 -1.16985727442744 -0.04220656305631
 6 -4.80007398109811  1.53246678587859 -0.46188710211021
 6  5.00472131803180 -1.43188103100310 -0.15674345454545
 6 -3.94721609400940  2.67418044424442 -0.74083527252725
 6 -2.52968340644064  2.63408136573657 -0.79005175297530
 6  4.02962692819282 -0.47764827092709 -0.24093360976098
 6  2.67986503510351 -0.68792326382638 -0.24521947454745
 6 -1.93602215241524  4.07008159075908 -0.93702284968497
 6 -1.79042612811281  1.50324306870687 -0.61889790619062
 6  1.84395294029403  0.36694825632563 -0.44931349324932
 6  2.09831315241524 -2.10378316561656  0.00680304820482
 6 -0.44408666756676  1.52549387068707 -0.71411477127713
 6  0.37228205900590  0.32611427922792 -0.49401266206621
 1 -10.99266600810081  1.27984977027703 -0.09308115331533
 1 -12.46712018511851 -1.61569158285829  2.34193208790879
 1 -11.00167783738374 -2.03448264326433  1.64011729432943
 1 -12.48938257185719 -3.24552365966597  0.21879674177418
 1 -9.93386878817882  0.08476015161516  2.50233885778578
 1 -10.62860302690269  1.54998807580758  2.20858558045805
 1 -11.25906349864987  0.37012043104310  3.50522470027003
 1 -13.59342054385439  0.37475347764777  0.49119558985899
 1 -13.59698546914692  0.42069367676768  2.19303330533053
 1 -12.85252393779378  1.71330495229523  1.35220570387039
 1  12.61563893059306  2.30221517101710  0.12778062126213
 1  12.87327175427543  2.09078311721172  1.65557315851585
 1 -12.80362384098410 -2.04445124162416 -1.92384657535754
 1  13.59969955475548 -0.43751349714971  1.02706304220422
 1 -9.19368173387339 -1.32535739473947 -0.12131457145715
 1  13.72752789688969 -0.91228426772677 -1.26324148014801
 1  13.18359477697770  0.61962053995400 -1.70046997079708
 1  9.08396509410941  1.80738078987899  1.72320756815682
 1  10.01007286888689  2.57072967536754  0.40365728122812
 1  10.56415008830883  2.86689166086609  2.25338148914892
 1  12.07453029432943 -0.76278352695270  2.73702012341234
 1  10.26527149774977 -0.44295683668367  2.78064119221922
 1  11.60403130223022  0.80811860866087  3.43135807880788
 1 -10.24912741074107  0.30464037473747 -2.74738213391339
 1 -11.96241529782978  1.11978797729773 -2.40409747504750
 1 -11.72351019611961 -0.35360411171117 -3.41954971257126
 1 -14.73285655895590 -1.97762671527153 -0.22988119191919
 1  8.43741280928093  0.12186241144114  0.38909155535554
 1 -8.68892406130613  1.88541019381938 -0.39587490789079
 1  11.47460319481948 -2.47915941194119 -1.80349320082008
 1  9.99624249064907 -1.78553465516552 -2.41781771577158
 1  11.74838413211321 -1.18295138523852 -2.99817576567657
 1  15.13329250955096  1.74310241004100  0.74783275217522
 1  9.46288606490649 -2.60387346904690 -0.16260270277028
 1 -5.65007946894689 -0.96431358205821  0.22508990579058
 1 -7.10777967606761 -1.08734070727073  1.17858011041104
 1 -7.00328656385639 -1.64173262146215 -0.53815203000300
 1 -6.66258854535454  2.37461625672567 -0.78472167386739
 1  6.14109765876588 -3.61749517211721  1.11534122982298
 1  6.55349269446945 -3.96107129492949 -0.83249284048405
 1  8.10853075047505 -4.26525270987099  0.20015698299830
 1  6.82226065296530 -0.17873511291129 -0.25787790969097
 1 -4.35265749734974  0.60296996219622 -0.22551860946095
 1  4.69907351085109 -2.42681193419342  0.35462780198020
 1 -4.47642368806881  3.62533051485148 -0.95627528302830
 1  4.12381245744574  0.52877021592159 -0.65722493989399
 1 -1.11933169136914  4.23022446914691 -1.86292456435644
 1 -1.46326916531653  4.37177433473347  0.03749178937894
 1 -2.87327681578158  4.80117253275328 -1.14641293499350
 1 -2.34105298569857  0.71402802830283 -0.33404813481348
 1  2.27490653275328  1.45121911111111 -0.50622763786379
 1  2.57201572927293 -2.41903830623062  0.80372875137514
 1  0.92206727802780 -2.16153544464447  0.14787350225023
 1  2.38878162756276 -2.80718850605060 -0.63953819681968
 1  0.15145103000300  2.45318515821582 -0.85273226472647
 1 -0.18534143014301 -0.63384355415542 -0.32397305230523

