%nproc=4
%Mem=4GB
# td=(NStates=1) CAM-B3LYP/6-31G(d,p) 

TD

0 1
 8 -14.04000987618762 -2.01482986468647  0.30655091039104
 8  14.74934677147715  1.18919650625062 -0.04327373147315
 6 -11.88296115571557  0.03465954085409  1.28668348834883
 6 -10.88708567106711  0.33968673967397  0.01417513031303
 6 -12.12536801740174 -1.31961644604460  1.34708254955496
 6 -12.68182157565757 -2.13312437723772  0.12373652455246
 6 -11.50583587248725 -0.34742222052205 -1.34420991089109
 6  11.05512884348435  0.98076971947195  1.05005528522852
 6 -11.13453492669267  0.53235497429743  2.61475852655266
 6 -13.09943610601060  0.96545219211921  1.03671474827483
 6  12.49586676717672  1.65647507400740  0.85469285548555
 6 -12.28249923582358 -1.38736660446045 -1.16501927062706
 6  13.42801442234223  0.62799047164716  0.26780409930993
 6  10.71675114941494 -0.12759216941694 -0.02009842474247
 6 -9.44796356025603 -0.02525537373737  0.07481748934893
 6  12.95663364096410  0.08298107870787 -1.05049063536354
 6  11.58857194599460 -0.58510355565557 -0.98157321612161
 6  10.06483336893689  2.10108942094209  1.10477319071907
 6  11.07392822532253  0.32207138253825  2.42870343164316
 6 -11.09739423692369  0.35055669716972 -2.57075933413341
 6 -8.44758085838584  0.75329031143114 -0.09809343184318
 6  9.36760168946895 -0.59792756855686  0.12274235803580
 6  11.16240618611861 -1.46930989778978 -2.20174977967797
 6 -7.07301862476248  0.52617985978598  0.02044995569557
 6  8.88028448484848 -1.82631242874287 -0.08847398839884
 6 -6.69615103660366 -0.90454921182118  0.37748063666367
 6  7.42856134363436 -2.17652052405241  0.02716165386539
 6 -6.20075985198520  1.55788936343634 -0.16206806340634
 6  7.01266446064606 -3.59868359055906  0.37814803300330
 6  6.41190845984598 -1.21844213291329 -0.32404474687469
 6 -4.77827180088009  1.49724326352635 -0.23300421382138
 6  5.02432327822782 -1.52748059095910 -0.13478125832583
 6 -4.03434480688069  2.55684871107111 -0.52566375537554
 6 -2.58158859695970  2.55817377497750 -0.62022477027703
 6  4.00102406790679 -0.68556906300630 -0.44578409480948
 6  2.58464551315132 -0.92064653615362 -0.20964591719172
 6 -1.81536008620862  3.80894547714771 -1.06524567196720
 6 -1.82676976247625  1.39810255465547 -0.30246626302630
 6  1.76366491149115  0.14963652515252 -0.43646220812081
 6  2.10198351945195 -2.31040382768277  0.24021638953895
 6 -0.53776603550355  1.31200252155216 -0.52952631243124
 6  0.35723055385539  0.20665233303330 -0.24960822162216
 1 -10.86610335183518  1.42509429472947 -0.15126697189719
 1 -12.70792426552655 -1.71506151985198  2.16263415811581
 1 -11.16127379697970 -1.95359455445545  1.69468275087509
 1 -12.40454408800880 -3.24964407170717  0.18661352345235
 1 -10.19489489078908 -0.23264158855886  2.96472509640964
 1 -10.87835800240024  1.67534061106111  2.26930165206521
 1 -12.10513810611061  0.72444586358636  3.21559573737374
 1 -13.70157135893589  0.57574357665767 -0.01639516921692
 1 -13.82734850545055  0.59631123852385  1.78142214421442
 1 -13.07736642204220  2.07002062386239  1.09317980128013
 1  12.35078244494449  2.43057800730073  0.12026987018702
 1  12.95539996709671  2.18921296019602  1.80205780698070
 1 -12.54070754935494 -1.86181297779778 -2.02239643034303
 1  13.49717930273027 -0.20875062086209  1.19651998789879
 1 -9.33611597729773 -0.96041090009001  0.53232079207921
 1  13.86649179327933 -0.52965600490049 -1.30643579957996
 1  13.09293571107111  0.85742432033203 -1.76466639043904
 1  9.12479917751775  1.83766381818182  1.85078032543254
 1  9.70213207480748  2.49547214961496  0.11157807330733
 1  10.62567624092409  2.93601857355736  1.68279443044304
 1  12.07222006330633 -0.17030427902790  2.46457287868787
 1  10.17540251085108 -0.33199574057406  2.94544767286729
 1  11.36770766986699  1.13247104390439  3.12402734573457
 1 -10.02401489948995  0.49770968166817 -2.82023941964196
 1 -11.44052310861086  1.36908290679068 -2.72100916621662
 1 -11.44885273037304 -0.15761451275128 -3.56598435603560
 1 -14.63197647094709 -2.34288324092409 -0.50926913071307
 1  8.59792886088609  0.15879610481048  0.48197084328433
 1 -8.62750791969197  1.85242689548955 -0.35070039043904
 1  11.31021675617562 -2.56640813681368 -1.97515036653665
 1  10.12311517791779 -1.17801390309031 -2.25079101310131
 1  11.73775306900690 -1.30549363946395 -2.99055500360036
 1  15.05214439473947  1.88850695049505  0.69775774467447
 1  9.72668244454445 -2.48944202590259 -0.16353279577958
 1 -5.72482694369437 -1.26347349804981  0.70382777957796
 1 -7.01119001710171 -1.02132410561056  1.37582983538354
 1 -7.15200143534353 -1.75344379257926 -0.31526974177418
 1 -6.49528181468147  2.64502329742974 -0.16857005870587
 1  6.36460000900090 -3.47417083968397  1.26543623932393
 1  6.29720706590659 -4.15690087788779 -0.40227981918192
 1  7.93238313571357 -4.23900008460846  0.53903087038704
 1  6.83504193109311 -0.14225146454645 -0.64709683158316
 1 -4.14959719131913  0.64371403660366  0.05635957835784
 1  4.87889149264926 -2.61996124912491  0.22499483868387
 1 -4.67631367706771  3.54639262106211 -0.82709236473647
 1  4.04392446864686  0.22351969086909 -0.85426464386439
 1 -1.14851460966097  3.41664311101110 -1.87113538543854
 1 -1.03190602900290  4.16028318561856 -0.27249920972097
 1 -2.52244173227323  4.62811522702270 -1.35700399409941
 1 -2.22871175157516  0.35848247374737  0.08349361936194
 1  2.15690473257326  1.02570655985599 -0.81882889798980
 1  2.40555908360836 -2.46792319471947  1.18379675817582
 1  1.16358142944294 -2.71478076917692  0.05187390229023
 1  2.57023977337734 -2.90060784798480 -0.48892313531353
 1 -0.07280139523952  2.26263610331033 -0.62396938843884
 1 -0.19431232723272 -0.75176534633463  0.28857820282028

