%nproc=4
%Mem=4GB
# td=(NStates=1) CAM-B3LYP/6-31G(d,p) 

TD

0 1
 8 -14.12632850805080 -2.11828020972097  0.50465072037204
 8  14.72692452925292  0.98632621922192  0.01464206010601
 6 -11.72808566816682  0.02927900280028  1.33318813881388
 6 -10.98383534603460  0.37912068306831  0.06638035083508
 6 -11.97987346794680 -1.54471895629563  1.51991983328333
 6 -12.64967836133613 -2.13204426922692  0.40436458735874
 6 -11.57037232613261 -0.30183766206621 -1.14139962986299
 6  11.10162349294929  0.97806944944494  1.13715399509951
 6 -10.87577905110511  0.58022976177618  2.55818286898690
 6 -13.12861902430243  0.71908755565557  1.32950402720272
 6  12.43851103160316  1.57200662716272  0.69045643184318
 6 -12.28237922382238 -1.48278614641464 -1.00159292799280
 6  13.52381400230023  0.43581125372537  0.33334065296530
 6  10.78622809710971 -0.07275668586859  0.09248283338334
 6 -9.57631639553955 -0.02000484868487  0.07550755835584
 6  13.04386236383638 -0.30255747514751 -0.91700728702870
 6  11.57694078287829 -0.64773981928193 -0.81763682248225
 6  10.12616950255025  2.13821313331333  1.13583629702970
 6  11.14712554505451  0.32228140354035  2.55041560286029
 6 -11.38481297879788  0.36748839033903 -2.49845210341034
 6 -8.55431153145315  0.79899488188819 -0.33878750125012
 6  9.29154408370837 -0.41124890069007  0.06393647744774
 6  11.21975192069207 -1.44759772657266 -2.00433003770377
 6 -7.09715103800380  0.47702494429443 -0.38816090539054
 6  8.81571802820282 -1.66826662416242 -0.15194033503350
 6 -6.67637905940594 -0.93192194909491 -0.28339545094509
 6  7.33971245874587 -2.07559043104310  0.05734467216722
 6 -6.25581535753575  1.63905748024802 -0.48572042864286
 6  7.18304149834983 -3.57826154835484  0.42496271447145
 6  6.38154542354235 -1.18976926562656 -0.19316165856586
 6 -4.84955892959296  1.54178771797180 -0.51593250665066
 6  5.02555340124012 -1.54557240014001 -0.14055183538354
 6 -4.03882525492549  2.59164219041904 -0.60475166416642
 6 -2.62935337343734  2.64999295689569 -0.65752850065007
 6  4.03096706220622 -0.59159966606661 -0.42752226862686
 6  2.58738578717872 -0.89441391289129 -0.25141009360936
 6 -1.86173472367237  3.94540912351235 -0.76376552395240
 6 -1.78832591809181  1.50204294869487 -0.35236125252525
 6  1.76125467046705  0.13984554605461 -0.54653321522152
 6  2.09414273537354 -2.21291407870787 -0.01195882798280
 6 -0.40653291219122  1.46265758705871 -0.45407876767677
 6  0.35295012581258  0.22780444824482 -0.37322058285829
 1 -11.19794653615361  1.39281106640664 -0.03011485668567
 1 -12.42153562666267 -1.85684569826983  2.33345123982398
 1 -11.07399506910691 -2.03842303730373  1.43790707330733
 1 -12.34401803540354 -3.14302340964096  0.34081894399440
 1 -9.96269167046705 -0.11165949034904  2.66437506140614
 1 -10.56967713431343  1.65986906390639  2.21611633353335
 1 -11.33799139143914  0.36379979897990  3.44930910871087
 1 -13.82318352015201  0.43954995729573  0.43539000930093
 1 -13.78682445304531  0.58609021642164  2.15973997599760
 1 -13.20168885428543  1.91376499829983  1.18663914721472
 1  12.30774814151415  2.23777872737274 -0.20220237703770
 1  12.70467489458946  2.37642168106811  1.45035263646365
 1 -12.78495197379738 -1.84379117561756 -2.02186637733773
 1  13.47570715551555 -0.38724847064706  1.19659999589959
 1 -9.12771513721372 -1.03423828282828  0.31371893189319
 1  13.69397454155416 -1.13164620392039 -0.87218237423742
 1  13.22209862736274  0.31967054495450 -1.64566449024902
 1  9.26460315791579  2.11616166796680  2.05700094749475
 1  9.53967582918292  2.36265886828683  0.04568148364836
 1  10.65253892719272  3.14401937363736  1.54832098309831
 1  11.89775261656166 -0.59529677827783  2.39829625102510
 1  10.15369033963396 -0.08848138913891  2.65414854295430
 1  11.55532643174317  1.02902069886989  3.22619756275628
 1 -10.37344984298430  0.62088199889989 -2.40250764646465
 1 -12.04904396069607  1.27758375687569 -2.59203626892689
 1 -11.72638048314831 -0.33584233553355 -3.14822257985799
 1 -14.49756302960296 -2.82288124072407 -0.29874807860786
 1  8.72651171917192  0.54471469666967  0.36182882908291
 1 -8.79804497339734  1.68218987178718 -0.72309763016302
 1  11.40700643514351 -2.52813430943094 -1.69405225672567
 1  10.18813167956796 -1.47554365606561 -2.32305823982398
 1  11.79825911961196 -1.01912500260026 -2.56763271137114
 1  15.05007418771877  1.67203530333033  0.71578954785479
 1  9.50542031833183 -2.36439952165217 -0.15738218071807
 1 -5.75696015701570 -1.20272742344234 -0.16293889708971
 1 -6.93911280938094 -1.37982995619562  0.63487573997400
 1 -7.03807004220422 -1.58252670087009 -1.17503571837184
 1 -6.72003428992899  2.62008080318032 -0.32836603830383
 1  7.26362991199120 -3.58713213581358  1.64335403110311
 1  6.25222256745675 -3.98412360016002 -0.04161375257526
 1  8.09971986938694 -4.10205639023902 -0.05089812251225
 1  6.64734316121612 -0.01440868026803 -0.44477659955996
 1 -4.31748397999800  0.56962662786279 -0.63021907950795
 1  4.62073567706771 -2.40884013701370  0.13498583778378
 1 -4.55089113481348  3.72209019081908 -0.59647930343034
 1  4.40096017221722  0.41474881378138 -0.59336855425543
 1 -1.16042580078008  3.88985043174317 -1.55183345524553
 1 -1.16183902230223  4.16406356365637 -0.10851281108111
 1 -2.67048653675367  4.76466888238824 -0.95304359805981
 1 -2.36189506990699  0.52349897539754 -0.13278800880088
 1  2.24433347544755  1.24255824502450 -0.60356737183718
 1  2.08770729842984 -2.44954135653565  1.26945532403240
 1  1.05506057735774 -2.32500179127913 -0.60015130023002
 1  2.83582633203320 -3.09241702890289 -0.40723496649665
 1 -0.01403551865186  2.41021086078608 -0.66511350285029
 1 -0.18918181418142 -0.63461363116312 -0.11932258725873

