%nproc=4
%Mem=4GB
# td=(NStates=1) CAM-B3LYP/6-31G(d,p) 

TD

0 1
 8 -14.23188906410641 -2.07294567626763  0.37648790409041
 8  14.83923576037604  1.03881146774677 -0.16980638473847
 6 -11.77517037663766 -0.00989491459146  1.18659347934793
 6 -10.97996495899590  0.21912468346835 -0.05798208540854
 6 -12.02846832743274 -1.46407089148915  1.32152999429943
 6 -12.81999539303930 -2.06529759455946  0.23216736763676
 6 -11.64552984188419 -0.43692117041704 -1.28501399129913
 6  11.19930326092609  0.97076871937194  1.08290857055706
 6 -11.12385385858586  0.54207594639464  2.42522957365737
 6 -13.10122628502850  0.77555320222022  1.05165624242424
 6  12.59684686518652  1.52758218471847  0.64363174937494
 6 -12.41413239913991 -1.54794266206621 -1.08702147084708
 6  13.56681830273027  0.50167784038404  0.16395371427143
 6  10.66159563386339 -0.04993440364036 -0.14381079597960
 6 -9.49854861876188 -0.05460830903090  0.05157516511651
 6  12.98582656025602 -0.12178939833983 -1.05595118141814
 6  11.51866495529553 -0.61237628292829 -0.97119217801780
 6  10.12869975557556  2.14365367736774  1.15218793219322
 6  11.19890072257226  0.31908108350835  2.52279284058406
 6 -11.16999149664966  0.18755039653965 -2.65387764596460
 6 -8.53436953725373  0.85652063446345 -0.14515813831383
 6  9.24810974027403 -0.40905868166817  0.02976306010601
 6  11.05147509300930 -1.59871283808381 -2.09529913461346
 6 -7.09340066296630  0.52684992679268 -0.12361445074507
 6  8.79602605900590 -1.62564236173617 -0.09738487948795
 6 -6.65182660416042 -0.89178793569357  0.19291217981798
 6  7.36867535503550 -2.11458433043304  0.04949388708871
 6 -6.19010878687869  1.55874944944494 -0.24576643324332
 6  7.19495268946895 -3.70004372657266  0.21499171737174
 6  6.38504577357736 -1.29700998969897 -0.12399474187419
 6 -4.81422539623962  1.48990252945295 -0.22632354575458
 6  5.01559240514051 -1.61529937283728  0.15563778357836
 6 -3.96183755615562  2.57047007320732 -0.49552074107411
 6 -2.56172661076108  2.73473143074307 -0.48666141394139
 6  3.99927389288929 -0.50607111321132 -0.08839835623562
 6  2.62357940654065 -0.82931740324032 -0.07134208680868
 6 -1.90663921412141  3.97376195879588 -0.92006115351535
 6 -1.64962204770477  1.60308305270527 -0.38703471987199
 6  1.77853639863986  0.27459902140214 -0.27099566146615
 6  2.08731205230523 -2.19100188748875  0.26919928782878
 6 -0.39270152905291  1.49365068636864 -0.36958031783178
 6  0.41347617841784  0.32920458825883 -0.26128938973897
 1 -11.11981872337234  1.20537232253225 -0.13962580778078
 1 -12.45676915001500 -1.66287630133013  2.41403929862986
 1 -11.09813748334834 -1.92624181918192  1.19214249684969
 1 -12.38713234683468 -3.08047715501550  0.15290015211521
 1 -10.14669007030703  0.11624329992999  2.60478910281028
 1 -11.05831599819982  1.72263534053405  2.39600432233223
 1 -11.87808540084008  0.32183560256026  3.35845002280228
 1 -13.71625282708271  0.69787578987899  0.13260973127313
 1 -13.63692946354636  0.32188379577958  1.82519652165217
 1 -13.01290997639764  2.07340096189619  1.25279576287629
 1  12.40941830853085  2.39082403190319 -0.19363151995199
 1  12.95836026312631  2.14276831573157  1.49558715991599
 1 -12.89048252685269 -1.77307410391039 -1.96969115981598
 1  13.77373695849585 -0.22152189798980  1.06910724662466
 1 -9.29728209390939 -1.05058991799180  0.36511407140714
 1  13.60495563966397 -1.05447848714871 -1.35435059105911
 1  13.03184960246025  0.50844942284228 -1.92014193799380
 1  9.02338903650365  1.83152320412041  1.44584983238324
 1  9.90322218381838  2.47915051745175  0.17508442394239
 1  10.46627030033003  2.99500447214721  1.82203835483548
 1  11.95971881318132 -0.45748299689969  2.48796521792179
 1  10.15730070067007 -0.24133667466747  2.79297242534253
 1  11.27729862896289  1.10371816861686  3.31310625362536
 1 -10.06522902090209 -0.13029311861186 -2.94058145384538
 1 -11.31218027432743  1.23798979747975 -2.64088115341534
 1 -11.78676652175218 -0.34840359165917 -3.51002876047605
 1 -14.80810408370837 -1.70434938753875 -0.60133833763376
 1  8.68682775077508  0.34879510471047  0.61049369556956
 1 -8.66953212211221  1.84492614541454 -0.52216753715372
 1  11.19545528002800 -2.63836533253325 -2.02285513701370
 1  10.12858572497250 -1.25855195689569 -2.21742767676768
 1  11.54794408810881 -1.38635172527253 -3.00584653275328
 1  15.41312049234924  0.99839793959396  0.63369133803380
 1  9.44317409370937 -2.49856293799380 -0.11201764426443
 1 -5.52747720872087 -1.03266041674167 -0.10136273947395
 1 -7.09267816591659 -1.23134510771077  1.08683093549355
 1 -7.21791802700270 -1.61787023522352 -0.61648986378638
 1 -6.64044633113311  2.42024081918192 -0.54918812051205
 1  7.25960950995099 -4.23451687428743  1.36105580128013
 1  6.26379372457246 -3.90152534033403 -0.38756834803480
 1  8.14305420282028 -4.34378056265627 -0.41589462216222
 1  6.61602002890289 -0.40094733413341 -0.45602772467247
 1 -4.44816704830483  0.55841550675067 -0.03902996059606
 1  4.80797440094009 -2.59659891289129  0.21316365556556
 1 -4.63474952065206  3.46746472827283 -0.92435209070907
 1  4.28970904710471  0.45719305820582 -0.46777599499950
 1 -1.26154591279128  3.84681612831283 -1.75774404630463
 1 -1.43069590799080  4.64463162046205 -0.18245020482048
 1 -2.71690117821782  4.72537495299530 -1.16722501620162
 1 -2.18458733913391  0.54546117161716 -0.49995472547255
 1  2.19385842794280  1.31747573677368 -0.52665968106811
 1  2.14948347604760 -2.46564296669667  1.23431180968097
 1  1.16629170047005 -2.23536282738274 -0.02173345844584
 1  2.63033578297830 -2.86387417461746 -0.37635187818782
 1  0.24100998589859  2.32661250095010 -0.66499349084909
 1 -0.09165206120612 -0.63357352715272 -0.12807346234623

