%nproc=4
%Mem=4GB
# td=(NStates=1) CAM-B3LYP/6-31G(d,p) 

TD

0 1
 8 -14.06830270547055 -2.09796817851785  0.20477073237324
 8  14.67357919471947  0.79986757335734  0.13874447034703
 6 -11.72235509510951 -0.07125105020502  1.23661848184819
 6 -10.93953091559156  0.34327709870987 -0.03715000220022
 6 -11.88823430403040 -1.64605909030903  1.19372721402140
 6 -12.64834822832283 -2.12693375817582 -0.06439228832883
 6 -11.50783607250725 -0.22620009830983 -1.25334082398240
 6  10.96798012861286  1.07229887238724  0.87788806850685
 6 -11.07196867006701  0.18834057285729  2.60073712441244
 6 -13.06953311571157  0.66729237613761  1.19696077287729
 6  12.45524270477048  1.47096652315232  0.53165055125513
 6 -12.18166915281528 -1.37732560036004 -1.31288405710571
 6  13.47900952185219  0.34462213481348  0.31842916181618
 6  10.61240071437144 -0.02702211241124 -0.13312972787279
 6 -9.55318408230823 -0.06675952415242  0.08385839343934
 6  13.05209318691869 -0.34522174157416 -0.97224281058106
 6  11.55231832063206 -0.65890093539354 -0.93828888768877
 6  10.07913479907991  2.29243855585559  0.75681839523952
 6  10.95177601010101  0.53462263766377  2.29027958925893
 6 -10.98090258775878  0.40083172467247 -2.51105336353635
 6 -8.50535663596360  0.80933591599160  0.07795417291729
 6  9.26400132943294 -0.50576835263526 -0.04616453265327
 6  11.10964090959096 -1.77394036083608 -1.89488909360936
 6 -7.04727605050505  0.45566280808081  0.12301021172117
 6  8.76873332973297 -1.85411520902090 -0.12949809080908
 6 -6.62842426392639 -0.94736349324932  0.37271015961596
 6  7.34986347384738 -2.18305117711771 -0.06543760606061
 6 -6.03110288628863  1.44899847434743 -0.15320717731773
 6  7.00190338453845 -3.59123284548455  0.36556677487749
 6  6.42520978997900 -1.18732902160216 -0.25063740614061
 6 -4.71907588128813  1.53663720292029 -0.18785969936994
 6  4.94471531743174 -1.34897274017402 -0.08604638483848
 6 -4.01750312271227  2.64772779897990 -0.49629081808181
 6 -2.55965640374037  2.72165012261226 -0.67018976677668
 6  3.97736170167017 -0.36326683278328 -0.17492700910091
 6  2.60062711131113 -0.65110958245825  0.00924597199720
 6 -2.10911946214621  4.02025660826083 -1.21271041844184
 6 -1.77722480798080  1.56461920632063 -0.22617863426343
 6  1.69027757275728  0.43876543804380 -0.35704426632663
 6  2.15639896099610 -1.94685747304730  0.39967233513351
 6 -0.40011227012701  1.53674499579958 -0.45952931273127
 6  0.40675550635064  0.42658432623262 -0.09262252305231
 1 -10.97431417291729  1.56629841514151 -0.10289213441344
 1 -12.39731320442044 -2.01499151285129  2.03177107180718
 1 -10.88488615821582 -2.17964715971597  1.28509179177918
 1 -12.35416905050505 -3.21180028732873 -0.27517265516552
 1 -10.06279168046805 -0.36540486488649  2.61232985688569
 1 -11.13906407300730  1.36238931593159  2.71273599549955
 1 -11.64041163346335 -0.04507108810881  3.37908208600860
 1 -13.58390959275927  0.70001600390039  0.30919739003900
 1 -13.77635340594060  0.12263387078708  1.99304330633063
 1 -12.84533321872187  1.51829545134513  1.63407389068907
 1  12.39333670037004  2.17836278577858 -0.33438559535954
 1  12.67616204330433  2.14997903680368  1.38279588078808
 1 -12.24221770037004 -1.82269906640664 -2.37815200590059
 1  13.33960354515452 -0.34129387518752  1.13162349824982
 1 -9.20040240594059 -1.15170002900290  0.17356491649165
 1  13.70103524762476 -1.42740577987799 -0.97002215821582
 1  13.18962538003800  0.23921249914992 -1.86163608740874
 1  9.07732443004300  1.98016806860686  0.95333058045805
 1  10.01821368296830  2.58624122652265 -0.44044712921292
 1  10.44126780008001  2.92125709740974  1.49613576457646
 1  11.44737757905791 -0.48211546014601  2.75437185858586
 1  9.91440641124112  0.21092855185519  2.61800492859286
 1  11.17936883598360  1.34838263506351  2.77123206620662
 1 -9.84125662366237  0.10551046174617 -2.44813220892089
 1 -11.37030608690869  1.45346134463446 -2.75916298159816
 1 -11.16677452255226 -0.04603335463546 -3.48181593919392
 1 -14.52257553085309 -2.84633358595860 -0.54088229202920
 1  8.27978704670467  0.01219144434443  0.08096074227423
 1 -8.60836600550055  1.96876852965297 -0.15579089948995
 1  10.86826256075608 -2.81893338933893 -1.41807465896590
 1  10.12972583898390 -1.39040514221422 -2.39363529752975
 1  11.79669896359636 -1.87914100420042 -3.14544049214921
 1  15.08197737803780  1.00877897769777  1.03113108200820
 1  9.50568034433443 -2.74762784448445  0.10139369686969
 1 -5.55397985898590 -1.17091424212421  0.25833323012301
 1 -7.02149104720472 -1.30129210241024  1.31109336173617
 1 -7.18631486668667 -1.38577702590259 -0.46967518231823
 1 -6.57414970147015  2.55694448954895 -0.45600880258026
 1  6.51284483348335 -3.58178160076008  1.53657335303530
 1  6.14689203440344 -4.22771795959596 -0.23926351755176
 1  7.83888378577858 -4.32652883748375  0.24258122542254
 1  6.61384981188119 -0.23174041344134 -0.79835195709571
 1 -4.27186941854185  0.59701936713671 -0.05812186978698
 1  4.55019862336234 -2.29303855685569  0.29289162836284
 1 -4.59531557725773  3.56551453325332 -0.35953560906091
 1  4.26185626182618  0.50998833773377 -0.58336755415542
 1 -1.45581533973397  3.94151559825983 -2.11847011891189
 1 -1.26246908530853  4.33716087338734 -0.44425638543854
 1 -2.71149063716372  4.71245366086609 -1.32583087678768
 1 -2.09544842524252  0.61595822132213  0.28832410241024
 1  2.08821786388639  1.36408039723972 -0.83956097119712
 1  1.98269679737974 -2.19373577597760  1.63101147964796
 1  1.13136820812081 -2.09056834793479 -0.07215850095009
 1  2.92104485388539 -2.79529731693169  0.03427918491849
 1  0.11697758265827  2.27893773347335 -0.78623561506151
 1 -0.15740863686369 -0.36906707650765  0.38328767376738

