%nproc=4
%Mem=4GB
# td=(NStates=1) CAM-B3LYP/6-31G(d,p) 

TD

0 1
 8 -14.09772564776478 -1.93633201490149  0.24404465976598
 8  14.77436927372737  0.94352193879388  0.27494809070907
 6 -11.83315617521752  0.16724279917992  1.22960778077808
 6 -11.03792075457546  0.35596836783678 -0.04759104630463
 6 -12.09661514211421 -1.39080356475648  1.46732457375738
 6 -12.66005939943994 -2.08104916971697  0.18116226712671
 6 -11.56893218211821 -0.35810328862886 -1.30471596149615
 6  11.01486481708171  1.05486712921292  1.09606988668867
 6 -11.12175364856486  0.78877061586159  2.35783283398340
 6 -13.29777593999400  0.86233188008801  1.20597167396740
 6  12.36836401690169  1.53069249574957  0.75243262946295
 6 -12.25443642954296 -1.53552141994199 -1.10113288198820
 6  13.50563218411841  0.45447311991199  0.33939125802580
 6  10.71079055335534  0.01397198699870  0.00561414651465
 6 -9.57291605550555  0.04598174997500  0.18968897649765
 6  13.06194417201720 -0.17647486688669 -0.97302288858886
 6  11.51828491729173 -0.48897394269427 -0.88975403420342
 6  10.19745663126313  2.26956626862686  1.06998971237124
 6  10.87366819931993  0.31182035743574  2.49246980828083
 6 -11.08215271277128  0.15879752125213 -2.53527578577858
 6 -8.46458255855586  0.77339232163216 -0.01172479497950
 6  9.25789071837184 -0.41564934073407 -0.09875979217922
 6  11.11513145864586 -1.47538050485049 -2.02437204190419
 6 -7.08269959285929  0.47107434923492  0.11765967666767
 6  8.83830028642864 -1.67360715821582 -0.29097423842384
 6 -6.69132055355536 -0.99848860576058  0.48472136073607
 6  7.47024551205120 -2.10320319231923 -0.17231829412941
 6 -6.10590036603660  1.41719529402940 -0.21857371397140
 6  7.18367156135614 -3.60146386858686  0.09134935313531
 6  6.40512778177818 -1.21700198889889 -0.31266360876088
 6 -4.73636761046105  1.33106664586459 -0.25374628802880
 6  5.05259610551055 -1.51534937783778 -0.23635141534153
 6 -4.03942531493149  2.41386441264126 -0.54953614261426
 6 -2.61253169126913  2.54603256085609 -0.65606835463546
 6  4.09941390689069 -0.59980048614861 -0.29686920332033
 6  2.73155020362036 -0.84480895239524 -0.21592654525453
 6 -1.86922547274727  3.88801338393839 -0.87020616801680
 6 -1.78451553705371  1.42462520692069 -0.37668368476848
 6  1.77608615361536  0.25070663216322 -0.50347890979098
 6  2.18911223232323 -2.22958574587459  0.18007037493749
 6 -0.43913617251725  1.35833715501550 -0.57197055685569
 6  0.36433126392639  0.20351201900190 -0.43812707350735
 1 -11.16617335883588  1.58785057035704 -0.37089893509351
 1 -12.68068154125413 -1.48929894359436  2.35672356705671
 1 -11.20288795839584 -1.91584077907791  1.73139642224222
 1 -12.57465109870987 -3.26434554185419  0.31601646374637
 1 -10.20621602290229  0.33050472607261  2.51641026492649
 1 -10.75751591819182  1.83207628462846  2.20662538443844
 1 -11.67484507680768  0.90920433943394  3.36148032583258
 1 -13.93209441124112  0.17003300560056  0.40177664796480
 1 -13.90444621522152  0.85357696509651  2.12812681468147
 1 -13.02519120452045  2.04351797359736  0.88485896919692
 1  12.31990935763576  2.42970792029203 -0.02165432223222
 1  12.82870729782978  2.08251229012901  1.68354595579558
 1 -12.50353383198320 -2.17597439393939 -1.89150334103410
 1  13.38876846164617 -0.38460820662066  1.00340067596760
 1 -9.43409577527753 -1.03642850185019  0.69169672967297
 1  13.49891503560356 -1.14655769506951 -1.18397355335534
 1  13.37105352285229  0.43667224512451 -1.72061198499850
 1  9.08394509210921  2.14631468326833  1.25979122652265
 1  10.22903476507651  2.83701630403040  0.09951686718672
 1  10.36932060536054  3.05218018971897  1.63857000800080
 1  11.49552239353935 -0.47338458705871  2.54606102750275
 1  9.85850082068207  0.12224968396840  2.67700082818282
 1  11.23810470957096  0.94480227702770  3.36486142914291
 1 -10.00309280728073  0.17111702240224 -2.84576197189719
 1 -11.46578563486349  1.18305430393039 -2.77546461176118
 1 -11.62415026012601 -0.44784353565357 -3.44706246384638
 1 -14.53073634693469 -2.57066601920192 -0.41064926872687
 1  8.51440050805081  0.43971419661966  0.01783442964296
 1 -8.85062023092309  1.80117176997700 -0.59682500290029
 1  11.30110584508451 -2.48268976497650 -1.54072692419242
 1  10.16453932033203 -1.32685878757876 -2.26616255025503
 1  11.67857715141514 -1.33650674077408 -2.97949389748975
 1  15.10529971027103  1.24833293309331  1.06549451835184
 1  9.57165694199420 -2.27762084378438 -0.20153659615962
 1 -5.76800126112611 -1.30388753945395  0.67152454925493
 1 -7.27925682378238 -1.28133010621062  1.26676892929293
 1 -6.86395263046305 -1.90022847104711 -0.27565578037804
 1 -6.44811709820982  2.46784557965797 -0.37612081378138
 1  6.78256180518052 -4.02820624322432  1.11741143684368
 1  6.57272461766177 -4.10980616841684 -0.58504809600960
 1  8.16185608300830 -4.14679086368637  0.05216218351835
 1  6.76960538743874 -0.33290052945295 -0.64424654655466
 1 -4.32828506010601  0.32033169836984  0.05167911031103
 1  4.79642324582458 -2.51584083708371  0.16000834003400
 1 -4.53069911561156  3.38370635243524 -0.72502215771577
 1  4.42246232243224  0.48531587048705 -0.58464768216822
 1 -1.41510126832683  3.89132057875788 -1.95369364126413
 1 -0.94220705910591  4.00005716301630 -0.17866982678268
 1 -2.64745423352335  4.65014743024302 -0.92422071577158
 1 -2.24158303870387  0.24900152565257 -0.18334306430643
 1  2.21976101820182  1.21267525672567 -0.55455247034703
 1  2.72014054175418 -2.51352775517552  1.23736211471147
 1  1.06908197949795 -2.18474776587659  0.49672838773877
 1  2.22595534493449 -2.81344913211321 -0.67499174217422
 1  0.10968685358536  2.21220105980598 -0.79685667716772
 1 -0.21754465046505 -0.76413658345835 -0.10834148914891

