%nproc=4
%Mem=4GB
# td=(NStates=1) CAM-B3LYP/6-31G(d,p) 

TD

0 1
 8 -14.05779165436544 -2.08236661836184  0.32755301060106
 8  14.78652048884888  0.87574516111611  0.11668226412641
 6 -11.80563342294229 -0.02963688878888  1.26584140414041
 6 -11.08512547504751  0.32889566056606 -0.00152643984398
 6 -12.04723020362036 -1.50108459285929  1.32009985128513
 6 -12.72156555005501 -2.08783984878488  0.11561571247125
 6 -11.55703099199920 -0.24657213551355 -1.26422191209121
 6  11.11447477807781  1.04930657315732  0.93850413011301
 6 -10.99889136233623  0.34719645844584  2.50222727342734
 6 -13.19402556495650  0.58899454635464  1.32443352015201
 6  12.56820400090009  1.42678210471047  0.83154054025403
 6 -12.26537752365237 -1.42597046484648 -1.20065283398340
 6  13.50288190909091  0.27528520112011  0.38641596049605
 6  10.71099057335734 -0.02324173437344 -0.04558097299730
 6 -9.61095985988599 -0.02025487368737  0.03677368496850
 6  13.09765774337434 -0.34234145354535 -0.89972555885589
 6  11.58030111891189 -0.63475852115212 -0.89327438623862
 6  10.32092897849785  2.41323063506351  0.62574528792879
 6  10.92940377287729  0.47652682808281  2.35280584188419
 6 -11.36486098359836  0.44078572007201 -2.52936519471947
 6 -8.55168126842684  0.81984696709671 -0.08519214171417
 6  9.25286021532153 -0.31357913371337  0.00654073787379
 6  11.20204014951495 -1.60797376417642 -2.03434303900390
 6 -7.12136345924592  0.53962120392039 -0.06435852515252
 6  8.79477593399340 -1.63454325182518 -0.04930007100710
 6 -6.66503792529253 -1.01498025492549  0.16378926752675
 6  7.36681516901690 -2.01121399339934 -0.03930499279928
 6 -6.15660543654365  1.57243081758176 -0.31036289288929
 6  7.14933812801280 -3.52894661686169  0.30242046024602
 6  6.36323359235924 -1.12805309400940 -0.22889523192319
 6 -4.78058203190319  1.47402094129413 -0.27499841324132
 6  4.96953779967997 -1.53445128802880 -0.12578035823582
 6 -3.99451082348235  2.58095112131213 -0.49809099809981
 6 -2.55583602170217  2.61395935353535 -0.60403315111511
 6  3.94635860136014 -0.68102860896090 -0.28148766516652
 6  2.59959700830083 -0.76902137363736 -0.12714766736674
 6 -1.97747629782978  3.99842442504250 -0.97095624302430
 6 -1.71220830633063  1.50964370877088 -0.20663668006801
 6  1.77664620962096  0.30289185068507 -0.39535809770977
 6  2.06118944004400 -2.19211199849985  0.26572894079408
 6 -0.37991024992499  1.42184350565057 -0.45140850065007
 6  0.44973980478048  0.26526819461946 -0.35788904970497
 1 -11.07857459895989  1.33945573087309 -0.14370621582158
 1 -12.68126159925993 -1.71140115381538  2.27973586828683
 1 -11.07677534713471 -2.05274446944694  1.56271955455546
 1 -12.41552518611861 -3.25748485578558 -0.04181931983198
 1 -10.12671807310731 -0.26471479587959  2.41917054095410
 1 -11.04026419301930  1.50567364436444  2.76844156605661
 1 -11.41016860916092 -0.05823240424042  3.38224240204020
 1 -13.90832203400340  0.36132213451345  0.66236270657066
 1 -13.59284505510551  0.17165877327733  2.28509251125113
 1 -12.93291197659766  1.61561518331833  1.23948443174317
 1  12.74462182888289  2.01705665516552 -0.05796795359536
 1  13.11114554165416  1.77943198209821  1.88867646884689
 1 -12.57729120772077 -1.94404120062006 -1.93538772947295
 1  13.44461404620462 -0.45945569136914  1.40073040894089
 1 -9.30058242394239 -1.13377823682368  0.33991155115512
 1  13.70321546564657 -1.26663970327033 -1.06528168416842
 1  13.28323474097410  0.31047962586259 -1.70088001180118
 1  9.34816151375137  2.36987703950395  1.07303255065507
 1  10.11376323792379  2.55567817021702 -0.40768385288529
 1  10.94882855615561  3.31468644034403  1.02711886288629
 1  11.48497133843384 -0.15695294389439  2.58602502390239
 1  9.80221519211921  0.18110556955696  2.41875500360036
 1  11.15598649774977  1.27777557435744  3.14913985698570
 1 -10.44156665466547  0.80165007570757 -2.76391378707871
 1 -12.10198925522552  1.31818781728173 -2.54610167546755
 1 -11.78046589168917 -0.05615436673667 -3.36130388798880
 1 -14.63267654095410 -2.40167912051205 -0.46631483528353
 1  8.46514558255826  0.35744596979698  0.33943658985899
 1 -8.80719588848885  2.02679433223322 -0.33289861026103
 1  11.45474120862086 -2.77335883188319 -1.52036488798880
 1  10.26136900330033 -1.64138023972397 -2.55499143314331
 1  12.01781107480748 -1.65397848794879 -2.73790973907391
 1  15.12327150745075  1.20784888468847  0.85681365026503
 1  9.56245602190219 -2.43719680138014  0.02941649914992
 1 -5.61862632363236 -1.43806095679568  0.02474987178718
 1 -7.15669456755676 -1.17842981618162  1.08387063946395
 1 -7.18747498269827 -1.69634808300830 -0.55951416621662
 1 -6.67078936543654  2.59223801890189 -0.35298850055006
 1  6.81511506050605 -3.70229365196520  1.37650734643464
 1  6.23310065526553 -3.98116330413041 -0.00964055525553
 1  7.94472436983698 -4.21847803240324  0.31844881218122
 1  6.71468989588959 -0.12814005340534 -0.56345846774677
 1 -4.20376260786079  0.48410807600760 -0.15784184178418
 1  4.97422102560256 -2.60416966996700  0.15603794299430
 1 -4.48513455915591  3.45364334613461 -0.99039869536954
 1  4.39666974317432  0.18805614451445 -0.35218443584359
 1 -1.53469322752275  3.82815426212621 -2.07072534443444
 1 -1.03620645904591  4.34474163146315 -0.26128808860886
 1 -2.61101058915892  4.82695511101110 -0.99938823252325
 1 -2.22194107450745  0.58360498599860  0.17267253725373
 1  2.43789283138314  1.31973596279628 -0.57769478457846
 1  2.20710923862386 -2.29086548894890  1.49402778127813
 1  1.01503657495750 -2.22637192829283  0.01344005890589
 1  2.86529927932793 -2.77412519971997 -0.26421066406641
 1  0.16585247014701  2.38982882258226 -0.75015200670067
 1 -0.09188208420842 -0.66763693349335 -0.06658731373137

