%nproc=4
%Mem=4GB
# td=(NStates=1) CAM-B3LYP/6-31G(d,p) 

TD

0 1
 8 -14.10294616981698 -1.97436581828183  0.66411666696670
 8  14.75814765156516  0.77263485008501  0.32009260516052
 6 -11.70134299389939  0.21426750165016  1.36523134313431
 6 -10.90848781128113  0.45321809280928 -0.00954724192419
 6 -11.93551903250325 -1.28341282568257  1.62042988428843
 6 -12.70583397689769 -2.01980304510451  0.43256740764076
 6 -11.53227851675167 -0.46154363266327 -1.15346083598360
 6  11.05664899549955  1.01819346184618  1.27163744344434
 6 -10.84113558675867  0.82276401520152  2.56821387208721
 6 -13.04187034943494  0.92467811471147  1.37850892769277
 6  12.48647582808281  1.38949837633763  1.12618000420042
 6 -12.31679266516652 -1.49927779557956 -0.85718848754876
 6  13.42379400030003  0.32698037063706  0.41382870177018
 6  10.52791226552655  0.13643423322332  0.04613819891989
 6 -9.43130189408941 -0.06734958315832  0.05079508710871
 6  12.83060103770377  0.16837961856186 -1.04185977227723
 6  11.37868095689569 -0.30765581088109 -0.97824288308831
 6  10.23323020862086  2.23324263626363  1.48391110451045
 6  10.95221605410541  0.18135731113111  2.51068162946295
 6 -11.38254275177518 -0.03703206170617 -2.58689094729473
 6 -8.47033313361336  0.72619760216022 -0.32775639813981
 6  9.19896482578258 -0.36541431723172  0.12215229902990
 6  11.07022696819682 -0.96366933373337 -2.29746935163516
 6 -6.99733105600560  0.54128136993699 -0.38289037833783
 6  8.76054251065107 -1.67334713221322 -0.22316745774577
 6 -6.59261068256826 -0.93502225912591 -0.10542765416542
 6  7.41391987948795 -2.19674254625463 -0.14430549284929
 6 -6.17429720572057  1.52220579507951 -0.60775263186319
 6  7.15061825602560 -3.58117183938394 -0.07643742554255
 6  6.36317358635864 -1.30204049274928 -0.22524486688669
 6 -4.82620659435944  1.32618615781578 -0.51332224562456
 6  4.99265011091109 -1.63918176107611 -0.20014779497950
 6 -3.93273464586459  2.44125715191519 -0.69224041304130
 6 -2.53914435253525  2.52925088268827 -0.84389713751375
 6  3.94945891139114 -0.68140864696470 -0.37416693309331
 6  2.56446349494950 -0.91584605610561 -0.17226217881788
 6 -1.89428797899790  3.84953953655365 -1.04087323472347
 6 -1.71384847034703  1.37068981338134 -0.65267128352835
 6  1.77054559955996  0.15670723222322 -0.40748931083108
 6  2.07237055815582 -2.24826761406141  0.27540990889089
 6 -0.35734799369937  1.28555987728773 -0.61628498829883
 6  0.39993482428243  0.17308897669767 -0.41319458025803
 1 -11.18788553005300  1.56601838713871 -0.20368221342134
 1 -12.58128160126012 -1.43107312101210  2.48376627132713
 1 -11.19220689028903 -1.73872306730673  1.73903718631863
 1 -12.26966059965997 -3.06482558985899  0.58237309940994
 1 -9.80152555385539  0.25083675927593  2.68658728262826
 1 -10.60028019461946  1.76696977397740  2.47595231713171
 1 -11.25455304760476  0.89407282628263  3.72960713851385
 1 -13.80315151695170  0.08693469576958  0.77159362966297
 1 -13.48270404100410  0.93875548294830  2.51856585858586
 1 -13.06226491189119  1.82898652045205  0.92541302460246
 1  12.72308967566757  2.23492844234423  0.52213005620562
 1  12.83925835293529  1.81116515541554  2.11739934113411
 1 -12.63663714231423 -2.00017681418142 -1.53812800350035
 1  13.56810639543954 -0.50033977977798  1.24862519841984
 1 -9.26533889958996 -1.17132199119912  0.29144670467047
 1  13.41300644474448 -0.50586362566257 -1.46116127212721
 1  12.82189860736074  1.04466304420442 -1.70798072187219
 1  9.39460615821582  2.06528658045805  1.77885313271327
 1  10.38812067366737  2.53533613601360  0.34216113161316
 1  10.71527520082008  3.23752872457246  2.04580073107311
 1  11.53109595089509 -0.74554180278028  2.41716813821382
 1  9.80677564816482 -0.10399294029403  2.49843297139714
 1  10.92955385448545  0.73224102090209  3.41540648364836
 1 -10.42191468946895  0.00304021472147 -2.93286068176818
 1 -11.80468952525253  0.96157215571557 -2.89843690899090
 1 -11.60915876097610 -0.74791354265427 -3.27966572417242
 1 -14.40990426372637 -2.47482643524352 -0.04961316511651
 1  8.34291335933593  0.33003322852285  0.63552619881988
 1 -8.60058522742274  1.70014166696670 -0.62613793419342
 1  11.47246298079808 -2.09569106510651 -2.23808666016602
 1  9.95848871527153 -1.03267936963696 -2.34752068606861
 1  11.46117541124112 -0.38301139123912 -3.11686763486349
 1  15.25919509980998  0.52754085388539  1.34671264016402
 1  9.62537231353135 -2.32084516621662 -0.47737417991799
 1 -5.43347780878088 -0.95863301400140 -0.07240984418442
 1 -6.86392529062906 -1.11617359055906  0.94617687008701
 1 -6.89529576477648 -1.67209565776578 -0.98401661646165
 1 -6.60311259775978  2.50690948604860 -0.70315351705170
 1  6.78529207820782 -3.88048147074707  0.85354505020502
 1  6.50827817301730 -4.00689587738774 -0.82494208540854
 1  8.08822872027203 -4.07733391799180 -0.32471550425043
 1  6.47115554245425 -0.21804904430443 -0.51692381428143
 1 -4.41904413601360  0.37266693189319 -0.50861691929193
 1  4.63713731723172 -2.67094634763476 -0.38199586038604
 1 -4.44977102280228  3.37472545434543 -1.01796145164516
 1  4.28060813701370  0.54242158105811 -0.09035825322532
 1 -1.57030678887889  3.98692013871387 -2.08163643554355
 1 -1.22643548194820  3.94163132043204 -0.33981594139414
 1 -2.56285577367737  4.85287770327033 -0.89289758345835
 1 -2.34159303970397  0.50007663316332 -0.29457418741874
 1  2.33068211031103  1.04484847404740 -0.61876889198920
 1  2.81511003870387 -2.69057545994599  1.03280165866587
 1  0.93343841514151 -2.32091138223822  0.89423813871387
 1  2.16791954135414 -2.89005679287929 -0.67428167116712
 1  0.06558244314432  2.31919175887589 -1.05799279077908
 1 -0.13268616461646 -0.62824299409941 -0.16802745774577

