%nproc=4
%Mem=4GB
# td=(NStates=1) CAM-B3LYP/6-31G(d,p) 

TD

0 1
 8 -14.04708058325832 -1.96973535523552  0.47849810511051
 8  14.79455129192919  1.03521110771077  0.23195379127913
 6 -11.69081194079408 -0.00653457855786  1.42290711071107
 6 -10.95617257975798  0.37401017201720  0.10455416821682
 6 -11.86578205880588 -1.54909939433943  1.43474131543154
 6 -12.64803819731973 -2.06419748454845  0.29336348724873
 6 -11.67208249714971 -0.20707818611861 -1.20077556745675
 6  11.07064039463946  1.01923356585659  1.17888816851685
 6 -10.78700017321732  0.41053279207921  2.57489454015402
 6 -12.91711787418742  0.72786843374337  1.55417649444944
 6  12.43048022852285  1.55531495799580  0.89277666386639
 6 -12.36983796969697 -1.30177804560456 -1.04551732043204
 6  13.45998761966197  0.55175284788479  0.41941926082608
 6  10.63733320762076 -0.00650006020602  0.08082166726673
 6 -9.50797956185619 -0.02364521272127  0.09929993759376
 6  13.02156013361336 -0.05596281568157 -0.88891447774777
 6  11.42103519231923 -0.42510755605561 -0.91272633143314
 6  10.10625751135114  2.21396070807081  1.17039975337534
 6  10.92096292879288  0.34549372477248  2.43826438773877
 6 -11.45757025452545  0.52539418091809 -2.46136839503950
 6 -8.46028212851285  0.87712269466947 -0.05466908940894
 6  9.25230015931593 -0.44297207300730  0.10287037083708
 6  11.12285223072307 -1.29534250105010 -2.07235684038404
 6 -7.17228855175518  0.55165240704070 -0.17270936023602
 6  8.83394985138514 -1.75924572207221  0.01403626262626
 6 -6.72525394689469 -0.86669542644264 -0.04200131153115
 6  7.40845933343334 -2.17879075107511 -0.01940300260026
 6 -6.19105888188819  1.47766134063406 -0.40503235983598
 6  7.18367156135614 -3.71408513071307  0.16030624882488
 6  6.34816208520852 -1.32192248094809 -0.12226456885689
 6 -4.78222219591959  1.30846438563856 -0.52460337373737
 6  4.96809765566557 -1.59533737663766 -0.11069885008501
 6 -3.90110148254825  2.49685271147115 -0.68754994399440
 6 -2.53311374947495  2.55011296889689 -0.89890263806381
 6  4.00868483398340 -0.72973347944794 -0.27914743114311
 6  2.54163121172117 -0.85023949544954 -0.20503545614561
 6 -1.83577212741274  3.88639322192219 -1.22297144454445
 6 -1.79456654215422  1.38875161956196 -0.58749476587659
 6  1.75934447944794  0.07702926442644 -0.62875143704370
 6  2.10265358645865 -2.15018780608061  0.17515988388839
 6 -0.43466572547255  1.41146246754675 -0.82555591539154
 6  0.39223405420542  0.23360502830283 -0.46807006780678
 1 -11.02129887138714  1.42729451475147  0.02622077687769
 1 -12.46376985008501 -1.70234024772477  2.33494138883888
 1 -10.96744441404140 -2.15469466446645  1.39779306190619
 1 -12.42679631323132 -3.14469357665766 -0.11716685458546
 1 -9.84402980428043 -0.26698502290229  2.63213183708371
 1 -10.33009317591759  1.52593567056706  2.48142286418642
 1 -11.20435802810281  0.38146156515652  3.58356253405341
 1 -13.68193939573957  0.44407040934093  0.68407487778778
 1 -13.38249402000200  0.53757536493649  2.51658566056606
 1 -12.65158384378438  1.76424004580458  1.52011249454946
 1  12.22783014971497  2.48179312881288  0.24463230643064
 1  12.74289871697170  1.95178921782178  1.90583818501850
 1 -12.94510798939894 -1.77243403990399 -1.76683087378738
 1  13.53658324312431 -0.28667841364136  1.22586292219222
 1 -9.39707207290729 -1.11224608360836  0.16409396939694
 1  13.57056220032003 -1.10269330863086 -1.12089724572457
 1  13.22676909440944  0.56642522042204 -1.79531945574557
 1  8.98787548514851  2.07745779757976  1.39729497689769
 1  9.96939880148015  2.54531713411341  0.23272018751875
 1  10.52777645094509  2.99649462116212  1.69449560056006
 1  11.47244008530853 -0.51149839843984  2.60166658805881
 1  9.87419238983898 -0.13120566156616  2.68517164526453
 1  11.20062096119612  0.99372716951695  3.35595053805381
 1 -10.48996149414942  0.54664457515752 -2.89397679337934
 1 -12.09022807910791  1.41928792729273 -2.25725279057906
 1 -12.02567041214121  0.15976722542254 -3.32431018861886
 1 -14.32121539483948 -2.28098705130513 -0.35000320412041
 1  8.67108617661766  0.25331555675568  0.58229087528753
 1 -8.85647081598160  1.80901255405541 -0.44123944434443
 1  11.28413414791479 -2.40431192719272 -1.91917476897690
 1  10.16380924732473 -1.15434153585359 -2.62253818781878
 1  11.83949324302430 -0.85911900200020 -3.01288723682368
 1  15.31781096139614  1.06619471927193  1.14243221212121
 1  9.68974875117512 -2.57991107280728  0.08046160366037
 1 -5.59155361636164 -1.05760291099110 -0.51550415361536
 1 -7.00983988208821 -1.38853082628263  1.01098335073507
 1 -7.30846708190819 -1.51175962416242 -0.60878909370937
 1 -6.63713600010001  2.51252004710471 -0.30256345804580
 1  6.47212076107611 -3.87517093969397  1.01545124082408
 1  6.57360470567057 -3.96196138393839 -0.86458604980498
 1  8.15742563996400 -4.13099928452845  0.21894886218622
 1  6.63300172707271 -0.17531477087709 -0.27378950085008
 1 -4.31176340794079  0.28534820002000 -0.83602966056606
 1  4.80256385988599 -2.53830308330833  0.08699103830383
 1 -4.40174622032203  3.63098107990799 -0.61851150665067
 1  4.25101517771777  0.27198453735373 -0.76210542794279
 1 -1.18510826902690  3.77751919861986 -2.16101437333733
 1 -1.26708954735474  4.05669282658266 -0.36911887168717
 1 -2.86323581168117  4.41329374487449 -1.41623991769177
 1 -2.32486136653665  0.52552917841784 -0.27943267326733
 1  2.14941398349835  1.04406839603960 -1.01616863196320
 1  2.23836236393639 -2.38697509990999  1.40260863936394
 1  0.98136320762076 -2.30210950205021 -0.18406969206921
 1  2.77813056245625 -3.11292908010801 -0.13883812681268
 1  0.05709159405941  2.32005184488449 -1.40616760826083
 1 -0.18530142614261 -0.63370354015402  0.03847319231923

