%nproc=4
%Mem=4GB
# td=(NStates=1) CAM-B3LYP/6-31G(d,p) 

TD

0 1
 8 -14.00998687388739 -1.96564494619462  0.42375263056306
 8  14.69352118891889  0.82160974757476  0.11081167706771
 6 -11.66415927552755 -0.05538946404640  1.36759157915792
 6 -10.94490145264527  0.27673044404440  0.03712742554255
 6 -11.86718219881988 -1.58401288568857  1.39772761406141
 6 -12.60282367586759 -2.12203326812681  0.20753490439044
 6 -11.65803109200920 -0.33223070137014 -1.19061455135514
 6  11.07702103270327  0.93831547404740  1.04302458215822
 6 -10.90819229242924  0.41284302310231  2.49422647334733
 6 -13.01774793719372  0.60499614651465  1.38265934273427
 6  12.52835001550155  1.40050947744774  0.74440182638264
 6 -12.28661964786479 -1.54775264306431 -1.11788455715572
 6  13.43193481438144  0.22213988658866  0.32786010491049
 6  10.63950342464246  0.02468305810581 -0.03466988188819
 6 -9.52072083598360 -0.10911375957596 -0.10428042044204
 6  12.97392537013701 -0.20573779317932 -0.97889347564756
 6  11.49239232803280 -0.56162120742074 -0.91317637643764
 6  10.09175606120612  2.22186149814981  1.05834854825483
 6  10.95022585508551  0.30040921632163  2.48447900920092
 6 -11.35352985048505  0.27164880638064 -2.53894615281528
 6 -8.54972107240724  0.82210719311931 -0.28363198569857
 6  9.22326725602560 -0.38620639643964 -0.06501641784178
 6  11.04584452995299 -1.39036200300030 -2.13582318701870
 6 -7.09629095199520  0.57116435823582 -0.16393848314831
 6  8.80135659205921 -1.61479127662766 -0.12765790679068
 6 -6.60203162466247 -0.93275203210321  0.14387727632763
 6  7.43522200970097 -2.06797966996700 -0.07241830413041
 6 -6.21236101210121  1.63731730623062 -0.36529838643864
 6  7.08653184738474 -3.55196891909191  0.38330854905491
 6  6.38422569156916 -1.27285757445745 -0.13911625402540
 6 -4.82342631633163  1.53212675187519 -0.38065897929793
 6  5.02327317321732 -1.57192503540354  0.11909412921292
 6 -4.02490386278628  2.67271029722972 -0.68141933093309
 6 -2.62184262236224  2.66427438503850 -0.71262401020102
 6  4.03567753325333 -0.59134964106411 -0.19518903530353
 6  2.64224127272727 -0.78315278677868 -0.22005695829583
 6 -1.93507205740574  3.99119370197020 -1.12404155155516
 6 -1.72152923842384  1.62679542394239 -0.42712872927293
 6  1.80830937593759  0.32536409790979 -0.31412997489749
 6  1.96178950005000 -2.13457624492449  0.09529189708971
 6 -0.32432469136914  1.52181350265026 -0.34466782658266
 6  0.42525735653565  0.41981364916492 -0.19804306510651
 1 -11.06963370487049  1.30755254055406 -0.13716556175618
 1 -12.27370084318432 -1.93802381608161  2.35263315801580
 1 -10.84578224782478 -2.05474466946695  1.51583486608661
 1 -12.38668230183018 -3.25162426972697  0.16018088018802
 1 -9.91711711301130 -0.19430775517552  2.57952657655766
 1 -10.60088025462546  1.37930100710071  2.53114783668367
 1 -11.38502609490949  0.21722514151415  3.44043822162216
 1 -13.82548375017502  0.30169617191719  0.74627109740974
 1 -13.73107887848785  0.58501010841084  2.29476347834783
 1 -12.82602128752875  1.74206782858286  1.09202968626863
 1  12.74734210091009  2.12691764126413 -0.07347950475048
 1  13.09300372747275  1.69552359125913  1.67839544074407
 1 -12.76506998559856 -1.99572636913691 -2.03870806150615
 1  13.63892347714772 -0.51043078887889  1.20535087098710
 1 -9.23930629632963 -1.12518737773777  0.03316087608761
 1  13.52695783988399 -1.00744378367837 -1.19862501850185
 1  13.16433285078508  0.58056663456346 -1.75742566636664
 1  9.11148784638464  2.11659171097110  1.70746599399940
 1  9.82175403700370  2.48154075647565 -0.08366145064506
 1  10.61676534983498  3.09866483818382  1.37000315131513
 1  11.60064290559056 -0.65105235383538  2.42601902330233
 1  9.90101507210721 -0.05643818481848  2.97392052015202
 1  11.57893879297930  0.97244504130413  3.25670061306131
 1 -10.35589808780878  0.34438434913491 -2.85327272297230
 1 -11.82851190749075  1.18331432993299 -2.75166223152315
 1 -11.91094893999400 -0.59433818511851 -3.26981473907391
 1 -14.55163843714372 -2.07585653825383 -0.35561376517652
 1  8.52080114811481  0.49136936213621 -0.02269962376238
 1 -8.84511968086809  1.92620427322732 -0.37281260166017
 1  11.37440317481748 -2.47947944394439 -2.15778863036304
 1  9.97165003140314 -1.30021612331233 -2.28354428842884
 1  11.79387868156816 -1.10250334043404 -2.94502045014502
 1  14.98890807110711  0.88751685148515  0.83343131203120
 1  9.44559433573357 -2.49646272797280 -0.26454289678968
 1 -5.63905836683668 -0.96585373607361  0.32187958475848
 1 -7.00117901600160 -1.31883385658566  0.98600085248525
 1 -6.94726096129613 -1.55369381758176 -0.72283049784979
 1 -6.75395768226823  2.53488228332833 -0.55314851655166
 1  6.33172672167217 -3.49757317991799  1.40615031073107
 1  6.57437478267827 -4.12967815561556 -0.45451504270427
 1  7.98203810121012 -4.18898508310831  0.68044501180118
 1  6.65379380628063 -0.31765900530053 -0.39157127902790
 1 -4.41038326992699  0.63125279047905 -0.28449450705070
 1  4.71433503700370 -2.50563981698170  0.30328266746675
 1 -4.60147619331933  3.52338031983198 -0.69965962146215
 1  4.51501157735774  0.52125946484648 -0.36774599199920
 1 -1.41355111331133  3.77959940664066 -1.96405467736774
 1 -1.28246108450845  4.43612076937694 -0.15393735353535
 1 -2.61863135123512  4.84389680518052 -1.39990828452845
 1 -2.23583246364636  0.58609523502350 -0.26445117511751
 1  2.34455349744975  1.29255324452445 -0.83893090819082
 1  2.14696322402240 -2.14742114451445  1.23041141964196
 1  0.94370944224422 -1.98604789588959  0.00339905480548
 1  2.51344409380938 -2.95049283648365 -0.50740498349835
 1  0.26958284318432  2.24277411711171 -0.96595358685869
 1 -0.24533742974297 -0.47288745854585  0.26892623762376

