%nproc=4
%Mem=4GB
# td=(NStates=1) CAM-B3LYP/6-31G(d,p) 

TD

0 1
 8 -14.08747462266227 -2.06639502120212  0.61236149144914
 8  14.90737257405740  0.88955654225423  0.61778237413741
 6 -11.66252911251125  0.07215329022902  1.40795561556156
 6 -10.90500746324632  0.40823359435944  0.06595030783078
 6 -11.97597307790779 -1.43319780418042  1.57273511481148
 6 -12.65279867336734 -2.08351941674167  0.40139429032903
 6 -11.65550083898390 -0.30150762906291 -1.15302079197920
 6  11.03280661126113  1.06929857235724  1.12446272597260
 6 -10.94404587778778  0.72738447724772  2.63869091979198
 6 -12.97561372377238  0.86351199809981  1.29648072487249
 6  12.53956113661366  1.54504393089309  0.94508189438944
 6 -12.33149413531353 -1.48796666446645 -0.92639540824082
 6  13.49297091799180  0.47028470107011  0.64305162406241
 6  10.74169364366437 -0.06337574777478  0.05698928402840
 6 -9.49479824372437 -0.01124397259726  0.16826683428343
 6  13.08202618021802 -0.09546676607661 -0.70781636793679
 6  11.69179226802680 -0.48249329462946 -0.76476153495350
 6  10.06210309590959  2.18518783078308  0.88586129952995
 6  10.68242907540754  0.48531770717072  2.61034159545955
 6 -11.45873037053705  0.21396303780378 -2.48442070027003
 6 -8.55642174247425  0.88562354475448 -0.18521214371437
 6  9.28942387168717 -0.48396617241724  0.00829091289129
 6  11.42382232773277 -1.22021498829883 -2.02986259095910
 6 -7.09562088498850  0.53408064986499  0.00356826752675
 6  8.82190864726473 -1.80063986148615 -0.10352549354935
 6 -6.72061348284829 -0.90007876477648  0.18505139373937
 6  7.44862334983498 -2.11884475647565 -0.17836889918992
 6 -6.21411118711871  1.47798137263726 -0.47919977657766
 6  7.22414560876088 -3.59565328752875  0.04203442164216
 6  6.35690295929593 -1.24493478217822 -0.39990233263326
 6 -4.75618959265927  1.42346588578858 -0.43890480388039
 6  4.95699654555455 -1.63654149704970 -0.31634941514151
 6 -4.09048042044204  2.49030205640564 -0.73066425542554
 6 -2.66272671077108  2.56827478507851 -0.81002375017502
 6  3.92056602210221 -0.66809731583158 -0.43069258565857
 6  2.54439148774878 -0.96299077057706 -0.47446239883988
 6 -1.91211976217622  3.89969455205521 -0.94180332773277
 6 -1.81989907540754  1.36394913931393 -0.65131114751475
 6  1.74882342734273  0.11542310381038 -0.62681124302430
 6  1.99776309740974 -2.34920770807081 -0.31112874497450
 6 -0.46881914081408  1.36456777807781 -0.76469982978298
 6  0.31035586638664  0.21671333913391 -0.69757301810181
 1 -11.06467320882088  1.38531031633163 -0.00115196039604
 1 -12.45004847794779 -1.67236725042504  2.34640253495350
 1 -10.85110277987799 -2.00051924692469  1.80732401500150
 1 -12.45184881848185 -3.13881298859886  0.48027288938894
 1 -9.97788318961896  0.38911058665867  2.96501512541254
 1 -10.89157932453245  1.94398747574757  2.62434715661566
 1 -11.69137672997300  0.70082350135013  3.52860703850385
 1 -13.59773097489749  0.56373237553755  0.35827229752975
 1 -13.64170994159416  0.65051665906591  2.10228423042304
 1 -12.77988667406741  1.95228885068507  1.12489297259726
 1  12.42904027072707  2.30509545904590  0.29535737893789
 1  12.92448687578758  2.21767580648065  1.85437303850385
 1 -12.64063754235424 -2.03959075557556 -1.87228141884188
 1  13.55952553735374 -0.39321906770677  1.44070440634063
 1 -9.25394776047605 -1.05808066706671  0.25522308230823
 1  13.94999014311431 -0.92950598989899 -0.87901305730573
 1  13.25887230473047  0.70781935983598 -1.55120504430443
 1  9.21710840844084  1.97493754555456  1.33752900030003
 1  9.92152401400140  2.38711131353135 -0.20459354385439
 1  10.35446912021202  3.04895986768677  1.42137828882888
 1  11.16038888018802 -0.38277552615262  2.76951337273727
 1  9.55798076867687  0.34792225122512  2.73046617471747
 1  10.91426232533253  1.14227202400240  3.40494543754375
 1 -10.40193269126913  0.62335224592459 -2.58205560126013
 1 -11.85316437273727  1.05758175667567 -2.51801886718672
 1 -11.82403024812481 -0.53193194449445 -3.19190694829483
 1 -14.53363663696370 -2.59976892949295 -0.14658286208621
 1  8.55396446444644  0.22657288248825  0.23610625682568
 1 -8.81929709860986  2.02841449424943 -0.27642296269627
 1  11.80735647014702 -2.32031352735273 -2.20258310981098
 1  10.42824569096910 -1.37905400710071 -2.07187312131213
 1  11.75871516521652 -0.64580767086709 -2.87799374747475
 1  15.01815099539954  1.51268936873687  1.38445641454145
 1  9.63033280958096 -2.65322840454045 -0.50939738223822
 1 -5.60695515651565 -0.76197334803480  0.49110650745074
 1 -7.41613051115112 -1.30835280848085  1.06480873327333
 1 -6.97576381158116 -1.54818326652665 -0.78854706950695
 1 -6.52559484598460  2.43857265236524 -0.88027122882288
 1  6.78406195519552 -4.08172159475948  1.02245194089409
 1  6.44983232843284 -3.90116530433043 -0.85052464366437
 1  8.17367726512651 -4.24285046964696 -0.00590362306231
 1  6.54178260516052 -0.25794303370337 -0.46022814471447
 1 -4.29937216881688  0.50587025222522 -0.54049010661066
 1  4.69762336583658 -2.78732798579858 -0.34963262406241
 1 -4.45698174387439  3.47391537333733 -0.98324798029803
 1  4.28960903710371  0.36623396229623 -0.62388160556056
 1 -1.19598935713571  4.12683413011301 -1.76626489838984
 1 -1.29079191759176  4.22221937923792  0.20656869706971
 1 -2.53760324842484  4.88536095159516 -1.02973126682668
 1 -2.21003988438844  0.44767139263926 -0.36211094109411
 1  2.30347939003900  1.01605559475948 -0.87926494159416
 1  2.17584611231123 -2.78327472987299  0.73836221472147
 1  1.02448752005201 -2.26803609470947 -0.46865815091509
 1  2.63015576497650 -2.86023381058106 -0.87297154015401
 1  0.10640652555255  2.26318615831583 -0.84980197169717
 1 -0.14292718871887 -0.72177234703470 -0.58584923992399

