%nproc=4
%Mem=4GB
# td=(NStates=1) CAM-B3LYP/6-31G(d,p) 

TD

0 1
 8 -14.10984685988599 -2.05635401710171  0.36887714301430
 8  14.79135097189719  1.01685927252725  0.04719531543154
 6 -11.73920678027803 -0.05361928702870  1.25758057805781
 6 -10.95789275177518  0.40663343434343 -0.07455374257426
 6 -11.95167064766477 -1.60113459785979  1.29517735903590
 6 -12.63999739323932 -2.14528559335934  0.07604175507551
 6 -11.57954324322432 -0.24885236353635 -1.24685017491749
 6  10.99655298589859  1.12506414891489  0.87292757245725
 6 -10.96460793399340  0.36385812461246  2.48683573427343
 6 -13.08595475787579  0.69810545744574  1.27165824262426
 6  12.41161834233423  1.65185461196120  0.58057544374437
 6 -12.33568455435544 -1.35125299309931 -1.18767153585359
 6  13.47120874177418  0.51134880748075  0.36404372327233
 6  10.61803127742774 -0.05963537373737 -0.02182859775978
 6 -9.52428119201920 -0.02511535973597  0.06917692529253
 6  13.04318229582958 -0.35453267266727 -0.78455404170417
 6  11.49235232403240 -0.69746479177918 -0.90339539833983
 6  10.05790267586759  2.29260857285729  0.72116482988299
 6  10.86308714121412  0.63027220262026  2.39968052935294
 6 -11.24476897439744  0.46428807030703 -2.61602386058606
 6 -8.55540164046405  0.88187316971697 -0.15554917741774
 6  9.24945987528753 -0.54072184798480  0.03534361816182
 6  11.24638458395840 -1.77821078787879 -1.91528113281328
 6 -7.06615793869387  0.50433767556756 -0.04791688098810
 6  8.79709616601660 -1.74491428892889 -0.05321046204620
 6 -6.62922434393439 -0.79654841174117  0.31563445204520
 6  7.42740122762276 -2.18361123312331  0.01867080478048
 6 -6.20489026502650  1.49780335483548 -0.14323618021802
 6  7.13404659885989 -3.64569829202920  0.31907212541254
 6  6.37569483848385 -1.28330861956196 -0.14185652805281
 6 -4.80663463716372  1.49985352455246 -0.16613752715272
 6  4.99140998689869 -1.52805064796480 -0.08824660486049
 6 -3.95640701310131  2.58926195239524 -0.32228341734173
 6 -2.56914735283528  2.67663562116212 -0.52331507930793
 6  4.02197616311631 -0.65054556065607 -0.32024154055406
 6  2.65272232083208 -0.89260373187319 -0.29923487608761
 6 -1.79987853805381  3.83512809540954 -0.82205135253525
 6 -1.79330641614161  1.52741548594859 -0.34049006540654
 6  1.82142068706871  0.26764832633263 -0.42375093699370
 6  2.10068338943894 -2.20481326862686  0.03483585148515
 6 -0.38856111501150  1.50789211051105 -0.49010237003700
 6  0.38105293609361  0.33815548334833 -0.40293355415542
 1 -11.03885062656266  1.47866965226523 -0.19224106930693
 1 -12.86838031113111 -1.76414642834283  2.21841973667367
 1 -11.10563823342334 -2.00454964996500  1.62236551915192
 1 -12.27934156775678 -3.25494460176018 -0.22587772567257
 1 -10.16322172347235 -0.11628995339534  2.44146277017702
 1 -10.75294546114612  1.40234331133113  2.32709743164316
 1 -11.69456704900490  0.11074449344935  3.30390456825683
 1 -13.58605980778078  0.27206320862086  0.41935840614061
 1 -13.62536830743074  0.52216382378238  2.20059406140614
 1 -13.04936362176218  1.80696431823182  1.03242372567257
 1  12.54383174987499  2.41616656615662 -0.17883003980398
 1  12.46598102520252  2.12776681558156  1.60122772397240
 1 -12.72048552715272 -1.76472326882688 -2.08050224092409
 1  13.26556614141414 -0.16163590939094  1.26432676857686
 1 -9.29478184388439 -1.10983584258426  0.37039459945995
 1  13.54717986208621 -1.30508354765477 -0.71054621062106
 1  13.13204962246225 -0.02358378047805 -1.75872579637964
 1  9.11692839043904  2.21765181698170  1.14657990539054
 1  10.16303816541654  2.70690329272927 -0.26057914241424
 1  10.68577225052505  3.15112008370837  1.13974012501250
 1  11.82438527982798 -0.11646889548955  2.44761118251825
 1  9.75593056365637  0.39535699469947  2.72733586168617
 1  11.16153705280528  1.65767356415642  3.06733167616762
 1 -10.08908140614061  0.27037694839484 -2.55786318201820
 1 -11.51373042934294  1.49969596809681 -2.71666873217322
 1 -11.57659550465046 -0.22754150545054 -3.60538829642964
 1 -14.50924419771977 -2.73248220082008 -0.34268247204720
 1  8.53681274927493  0.35475570077008  0.23547619381938
 1 -9.02652782168217  1.92531418421842 -0.26451177157716
 1  11.52305804030403 -2.78762025802580 -1.59330218171817
 1  10.37006987338734 -1.92660876257626 -2.28467440144014
 1  12.03703299699970 -1.60671376147615 -2.87966391449145
 1  15.10781996229623  1.53887198699870  0.87074504340434
 1  9.43348312461246 -2.63770685238524 -0.19274571707171
 1 -5.48340280128013 -0.84302145284528  0.20095749254925
 1 -6.90317921602160 -1.05717769096910  1.23181543394339
 1 -7.09861609680968 -1.55154360256026 -0.39603781858186
 1 -6.65213750025003  2.50695949104910 -0.36663986568657
 1  6.61634518351835 -3.72447587018702  1.28837853355336
 1  6.62412975817582 -4.16967215501550 -0.46237582878288
 1  8.14464436183618 -4.34340052465247  0.33249021632163
 1  6.75411383828383 -0.23980121952195 -0.45588771067107
 1 -4.43110534213421  0.34214387958796  0.01580552295230
 1  4.60759436293629 -2.59422867586759 -0.01062872367237
 1 -4.45862190789079  3.59044702650265 -0.38218787428743
 1  4.12299237543754  0.36310364926493 -0.36669588698870
 1 -1.15509526772677  3.62983443014301 -1.72429070097010
 1 -0.91303414181418  4.35761291859186 -0.28546050585059
 1 -2.49453894199420  4.64849726522652 -1.02040033373337
 1 -2.27082596299630  0.46538316381638  0.00046531653165
 1  2.30016905900590  1.50730471967197 -0.52316933203320
 1  2.16973550125012 -2.56438284068407  1.04647302580258
 1  0.96885195649565 -2.28817810891089 -0.07949923502350
 1  2.47213996339634 -2.96391417861786 -0.56456069906991
 1  0.13932981788179  2.58863870357036 -0.59306629812981
 1 -0.12228512451245 -0.69432960276028 -0.19674032903290

