%nproc=4
%Mem=4GB
# td=(NStates=1) CAM-B3LYP/6-31G(d,p) 

TD

0 1
 8 -14.05044091929193 -1.87210559225923  0.57699795509551
 8  14.81628346514651  1.01870945754575  0.35418601450145
 6 -11.69266212581258  0.02154822972297  1.49956477647765
 6 -10.99971693419342  0.34933770477048  0.10869458225823
 6 -11.92354783538354 -1.55421990639064  1.43653149444944
 6 -12.71628502200220 -2.00995206000600  0.26673082398240
 6 -11.62275756465647 -0.27851532983298 -1.15135062496250
 6  11.05892922352235  1.05515715821582  1.06078635833583
 6 -10.85556702990299  0.29805154395440  2.65127217791779
 6 -12.99678584098410  0.85161080798080  1.66610768756876
 6  12.46018319881988  1.55808523502350  0.81566895309531
 6 -12.38565955185519 -1.32563043084308 -1.03108587728773
 6  13.43692531343134  0.48118579117912  0.43882120102010
 6  10.68090756505651 -0.06780619081908  0.06031961706171
 6 -9.51332009590959 -0.05861871007101  0.00414042164216
 6  13.06969494709471 -0.14895211461146 -0.86822240854085
 6  11.61260434923492 -0.41238628392839 -0.95589064786479
 6  9.98623550915092  2.12888220022002  0.93461617501750
 6  10.96333716621662  0.41749092449245  2.43576413771377
 6 -11.41267576507651  0.42482412391239 -2.40016227442744
 6 -8.50209630993099  0.75631061346135 -0.21152477497750
 6  9.34669959925993 -0.49086686248625  0.05155523932393
 6  11.23699364486449 -1.46370933773377 -1.99563916861686
 6 -7.12120344324433  0.46998424022402 -0.45509759905991
 6  8.80438689508951 -1.75176497399740 -0.11004614561456
 6 -6.64809623112311 -1.00602935983598 -0.25112222362236
 6  7.41954044154415 -2.11781465346535 -0.04715577787779
 6 -6.24241401740174  1.57958153265327 -0.56547840444044
 6  7.09267246144614 -3.48901262346235  0.20975119331933
 6  6.33381065006501 -1.19246953565357 -0.12174451685169
 6 -4.80742471617162  1.36964050325033 -0.65718663206321
 6  4.96571741764176 -1.57589543244324 -0.03442122232223
 6 -3.96516788918892  2.46796982318232 -0.83033422242224
 6 -2.50412085018502  2.54421237883788 -0.71673442124212
 6  3.97900186568657 -0.53961446754675 -0.16030554695470
 6  2.61843889248925 -0.87618208970897 -0.13724867746775
 6 -1.88304685488549  4.00955553815382 -0.84329347674767
 6 -1.82641972747275  1.45059780418042 -0.81681769816982
 6  1.70758930393039  0.12731429292929 -0.43912247414742
 6  2.07420074117412 -2.29029181648165  0.10730309820982
 6 -0.40992325122512  1.38604992629263 -0.70662402220222
 6  0.32801763256326  0.18959062686269 -0.43782704350435
 1 -11.14385112661266  1.46203798909891  0.06021417621762
 1 -12.34986845994599 -1.88688870257026  2.28086598129813
 1 -11.04204187378738 -2.08530772577258  1.63611689428943
 1 -12.57435106870687 -2.95621472877288  0.20996585868587
 1 -9.86991239253925 -0.18375670007001  2.66994561846185
 1 -10.43203336993699  1.20086316331633  2.57945266716672
 1 -11.31132872517252  0.16243966296630  3.50459463726373
 1 -13.92378358015802  0.52284828712871  1.09512598289829
 1 -13.57907367796780  0.67694930233023  2.66774077607761
 1 -12.71174986038604  1.90424404620462  1.62653313661366
 1  12.45122248894890  2.17001195069507 -0.07895005180518
 1  12.95561998909891  2.00507454635464  1.70201780298030
 1 -12.63040651925193 -1.63158995549555 -2.11850604130413
 1  13.24060364516452 -0.31745149094910  1.10739107500750
 1 -9.27353971967197 -1.27079193819382  0.04993255325533
 1  13.97407255135514 -1.01817485678568 -1.02887804380438
 1  13.38224464196420  0.53983256115612 -1.65882580638064
 1  9.11178787638764  1.65736578837884  1.30081532893289
 1  9.90790265186519  2.56885948834883 -0.16410949544954
 1  10.36223989728973  2.94910988268827  1.74739089008901
 1  11.82961580288029 -0.35397264586459  2.72934935633563
 1  10.07315228582858  0.00702816181618  2.63301642974297
 1  10.96358725782578  1.10020781758176  3.15100004300430
 1 -10.34508700670067  0.79477938863886 -2.71694909060906
 1 -11.98558761506151  1.45530152865287 -2.43101016631663
 1 -11.71448929402940 -0.37226597789779 -3.36363412101210
 1 -14.68760203350335 -2.53393234583458 -0.13924212801280
 1  8.63911297929793  0.11529175437544  0.55638828502850
 1 -8.70911608050805  1.91707336013601 -0.41670699109911
 1  11.74155989048905 -2.41932342834283 -1.79813266476648
 1  10.16314918131813 -1.32473857555756 -2.24860079407941
 1  11.79071836553655 -1.25390848094809 -3.02787873597360
 1  15.13366254655466  1.28243634343434  1.29574754365437
 1  9.56644642094209 -2.39422250395039 -0.46922336483648
 1 -5.56299076007601 -1.22669982068207 -0.45499810301030
 1 -6.67332623072307 -1.39170114331433  0.62635488788879
 1 -7.33314955015502 -1.51579002720272 -0.98754696949695
 1 -6.82054434093409  2.45298409350935 -0.83608681038104
 1  6.48411196019602 -3.57516093869387  1.18978867456746
 1  6.43922126732673 -3.93721890969097 -0.64525411661166
 1  8.09885978337834 -4.15817200180018  0.42258922622262
 1  6.63019144604460 -0.18664590399040 -0.38108022992299
 1 -4.35152738433843  0.35138480368037 -0.50894695229523
 1  4.74083768726873 -2.49344859785979  0.13459579877988
 1 -4.50624667036704  3.42869085088509 -0.85940559605961
 1  4.48838891509151  0.34488182708271 -0.14886410381038
 1 -1.45763552175218  4.02236368306831 -1.98874714661466
 1 -1.25810864926493  3.96427358465847  0.19654769496950
 1 -2.60098958705871  4.81309372487249 -0.70219851355135
 1 -2.23798267866787  0.42611923742374 -0.82735746574657
 1  2.28869791189119  1.12576656585659 -0.28512552765277
 1  2.43176170387039 -2.73210961336134  1.09367774627463
 1  0.99652472377238 -2.17650694179418  0.34234294919492
 1  2.24085683508351 -2.92641042824282 -0.86761100410041
 1  0.29165505040504  2.42303214291429 -0.66657364886489
 1 -0.20053294929493 -0.82561273107311 -0.41413206820682

