%nproc=4
%Mem=4GB
# td=(NStates=1) CAM-B3LYP/6-31G(d,p) 

TD

0 1
 8 -14.27990386558656 -1.94311269296930  0.40990124542454
 8  14.82408424522452  1.00007759435944 -0.12001140524052
 6 -11.79577243684368  0.03747982288229  1.27128194819482
 6 -11.03140010251025  0.22098486948695 -0.05081136833683
 6 -12.06154163476348 -1.42140662506251  1.37847568886889
 6 -12.84450784428443 -2.11318238303830  0.25350950185018
 6 -11.57989327822782 -0.52146962526253 -1.25768125802580
 6  11.21312464306431  0.85903754625463  1.07326760646065
 6 -10.99394086728673  0.58921065986599  2.41048809950995
 6 -13.13907006940694  0.87564321122112  1.16999807660766
 6  12.63302048254826  1.42856228272827  0.79579696589659
 6 -12.43048403430343 -1.60655852365237 -1.09105187388739
 6  13.61039266016602  0.38163583618362  0.25249256815682
 6  10.72535200950095 -0.06977638783878 -0.05040145504550
 6 -9.49298806270627 -0.12827567576758  0.06927693529353
 6  13.07878585618562 -0.20787800720072 -1.02329791609161
 6  11.60848393719372 -0.69924496979698 -0.92351741054105
 6  10.27085397099710  2.08341765376538  1.12115482888289
 6  11.20440127262726  0.12967214261426  2.54322488378838
 6 -11.15924042154215 -0.02868122662266 -2.62707496569657
 6 -8.57358345864587  0.74609959235924 -0.06654027652765
 6  9.27909283858386 -0.48759653545355  0.00439052285229
 6  11.19541948744874 -1.56526949374937 -2.05599520422042
 6 -7.12770409330933  0.46896413821382 -0.13916600590059
 6  8.67714417081708 -1.66864666216622 -0.05496063706371
 6 -6.66223764526453 -0.97647640454045  0.08613150175017
 6  7.37502599009901 -2.08146101810181  0.05755469316932
 6 -6.17621739773977  1.53611718621862 -0.30127198379838
 6  7.13662685688569 -3.51061478367837  0.17351756995700
 6  6.39682695169517 -1.12886317501750 -0.09099144154415
 6 -4.76542051575158  1.41390492969297 -0.26251716511651
 6  4.98518936483648 -1.46165400830083 -0.04935271547155
 6 -4.07703907630763  2.51586461266127 -0.50339152815282
 6 -2.61920235833583  2.61596955455546 -0.69187193499350
 6  4.02738670417042 -0.43115362146215 -0.24964448084808
 6  2.59320636923692 -0.58465293679368 -0.16921187378738
 6 -2.08326687688769  4.06399098169817 -0.92485163256326
 6 -1.77853493899390  1.61768451285129 -0.36340235663566
 6  1.75848439343934  0.43417497899790 -0.34603316521652
 6  2.06757007810781 -1.99232201950195  0.12415478337834
 6 -0.40137239613961  1.58077939923992 -0.46820017981798
 6  0.42543737453745  0.38458012581258 -0.21485474627463
 1 -10.80414715621562  1.17367915321532 -0.53086493169317
 1 -12.92949642274227 -1.65786580028003  2.28474636933693
 1 -11.05953362296230 -2.00456965196520  1.49229251185119
 1 -12.60517415101510 -3.10547965526553  0.27293215531553
 1 -9.86569197049705  0.15961763736374  2.56115473937394
 1 -10.77870803740374  1.73762683968397  2.31647636953695
 1 -11.53672126442644  0.16190960996100  3.52036621442144
 1 -13.72655385718572  0.46928293059306  0.18155462576258
 1 -13.67045281588159  0.71155276267627  2.20546454845485
 1 -13.09568825422542  1.89437305910591  1.04529501280128
 1  12.57677504420442  2.27246219571957 -0.07581973877388
 1  13.07791221832183  1.87330136903690  1.75041264246425
 1 -12.78911238983899 -2.25481227772777 -1.80902509320932
 1  13.78557814261426 -0.33649339513951  1.10001033693369
 1 -9.45242760846085 -1.13883874287429  0.19935749574958
 1  13.68243338743874 -1.08371141044104 -1.54092924892489
 1  12.84128054555456  0.55484406230623 -1.85167509130913
 1  9.36541323892389  2.20476052785279  1.60823607100710
 1  10.19164102570257  2.59752235463546  0.05866278177818
 1  10.89543321662166  2.84761973367337  1.74446059705971
 1  12.09931277257726 -0.59467671627163  2.65118153955396
 1  10.16698166876688 -0.31662420342034  2.76113924202420
 1  11.16288718781878  1.02908070487049  3.31395633863386
 1 -10.12519501750175 -0.03615370467047 -2.68724612031203
 1 -11.69947900420042  0.87193319181918 -2.91427849314932
 1 -11.52582042714271 -0.75256400770077 -3.46491424902490
 1 -14.72320559385939 -2.32689164176418 -0.48025622942294
 1  8.69983905190519  0.36317654285429  0.43576622282228
 1 -8.87261243014301  1.81182283508351 -0.29367468786879
 1  11.70439617411741 -2.65278677467747 -1.87640049154916
 1  10.11364423082308 -1.56975307700770 -2.27304323832383
 1  11.56400569426943 -1.13933702380238 -2.98146409450945
 1  15.30845002530253  1.37432553235324  0.70977894679468
 1  9.37630740704070 -2.46890997269727 -0.22452889538954
 1 -5.59005346634663 -1.21018816951695  0.34815221202120
 1 -7.13118201630163 -1.36289826302630  0.95174742714271
 1 -6.81269750495049 -1.52030047824782 -0.96401461626163
 1 -6.64475676217622  2.47003579867987 -0.54513771547155
 1  7.03232678167817 -4.00756417901790  1.31794148984899
 1  6.41898924412441 -3.93699888768877 -0.51638122932293
 1  8.16376627402740 -3.97874405900590 -0.15852888558856
 1  6.71998042494250 -0.03557079647965 -0.12779490139014
 1 -4.49022125372537  0.46322598779878 -0.22912897049705
 1  4.75757936143614 -2.46533578657866 -0.07607526832683
 1 -4.59048509420942  3.56426440824082 -0.64131378687869
 1  4.46514659085909  0.60489782868287 -0.28026724412441
 1 -1.36248600680068  4.32254370107011 -1.84207247914791
 1 -1.28720155855586  4.44399155645565  0.00728876907691
 1 -2.86036552465247  4.62026444194419 -0.97043533723372
 1 -2.22384126452645  0.60109673517352 -0.01663639363936
 1  2.09433847594759  1.32859684888489 -0.64788180328033
 1  2.69183771147115 -2.44821122352235  1.03373175167517
 1  1.00740581188119 -2.09952924402440 -0.06880816591659
 1  2.44814756415642 -2.75798358555856 -0.65776001900190
 1  0.14870075497550  2.45504534423442 -0.64889188068807
 1 -0.09235213121312 -0.44322449224922  0.27632697769777

