%nproc=4
%Mem=4GB
# td=(NStates=1) CAM-B3LYP/6-31G(d,p) 

TD

0 1
 8 -14.04485036023602 -1.99171755345535  0.62287254255426
 8  14.82769460626062  0.92429001560156  0.01564216011601
 6 -11.73842670227023 -0.05143906900690  1.13347816781678
 6 -10.89006596909691  0.20424319531953 -0.10314660186019
 6 -11.95863134373437 -1.54944942934293  1.44384222552255
 6 -12.61168456195620 -2.12063312811281  0.23816796769677
 6 -11.63139842874287 -0.55020249854985 -1.38940443034303
 6  11.10874420502050  0.94423606610661  1.02180245994599
 6 -10.96919839303930  0.55286702550255  2.38119517021702
 6 -13.09097525992599  0.76649229612961  1.10524160096010
 6  12.49625680618062  1.43942336883688  0.65416280248025
 6 -12.38817980388039 -1.52631049884989 -1.17224999369937
 6  13.51210283118312  0.37599527212721  0.25297261616162
 6  10.62446192049205 -0.15738514871487 -0.09451586648665
 6 -9.44630339423942 -0.17045989418942 -0.06669666206621
 6  12.94347232483248 -0.24133135253525 -1.10999658595860
 6  11.40525361416142 -0.59437448274827 -1.01973703250325
 6  10.11086797239724  2.09818913091309  1.02423513691369
 6  11.14660549304931  0.26596577197720  2.32855341664166
 6 -11.20244474197420  0.02617425892589 -2.69032129032903
 6 -8.50547664796480  0.80162514491449 -0.29548317081708
 6  9.22822775207521 -0.57864564036404 -0.00567048324833
 6  11.06407635313531 -1.40339330613061 -2.21565116981698
 6 -7.04262558545855  0.54831207300730 -0.20021211051105
 6  8.77110356675668 -1.79069886738674 -0.19884502550255
 6 -6.61956337783778 -0.84006276317632 -0.06698380978098
 6  7.36440492799280 -2.15175804780478 -0.02755381768177
 6 -6.13157293329333  1.59803337783778 -0.40749260586059
 6  7.04972816701670 -3.60188391059106  0.10753097129713
 6  6.35427269626963 -1.22174246294629 -0.03802614501450
 6 -4.72926690039004  1.47378091729173 -0.36507742114211
 6  4.98928977487749 -1.48608645154515  0.14896711651165
 6 -3.97202857525753  2.67185021122112 -0.55448663766377
 6 -2.63369380748075  2.70565852345235 -0.53409615741574
 6  3.92328629412941 -0.54212471857186  0.07309779337934
 6  2.53598064666467 -0.64890936243624  0.22574762216222
 6 -2.00557910811081  4.06067064966497 -0.88627777517752
 6 -1.73582066756676  1.66205895029503 -0.31201721812181
 6  1.76559510451045  0.44972653415342 -0.11104966686669
 6  2.04818813991399 -2.06562935023502  0.45873824172417
 6 -0.35874813371337  1.61081240254025 -0.27450080988099
 6  0.38151298209821  0.49105077287729 -0.10577383818382
 1 -10.94220096159616  1.30029181448145 -0.41934377957796
 1 -12.41932540564056 -1.69132914661466  2.51427932263226
 1 -10.87209487908791 -2.11743093809381  1.27302058465847
 1 -12.49171280488049 -3.26468557585759  0.21538640074007
 1 -10.04109951125113  0.21183285888589  2.56210483438344
 1 -10.65394556115612  1.64925800280028  2.28456317821782
 1 -11.36847443974397  0.22007542654265  3.40317449524953
 1 -13.76906810861086  0.40526652895290  0.41226769706971
 1 -13.70611638223822  0.64640624802480  2.13521752375238
 1 -12.83439212461246  1.73820744254425  0.89866034933493
 1  12.52645001170117  2.25995094459446 -0.14449660646065
 1  12.70941536863686  2.12228626752675  1.38642624382438
 1 -12.75951943054305 -2.03191998849885 -2.03856804750475
 1  13.50881046584658 -0.54770451625162  1.04184452035204
 1 -9.05008737443744 -1.16265112411241  0.21406896689669
 1  13.45291043514352 -1.13338637793779 -1.45045020102010
 1  12.96025244274428  0.65059363726373 -2.05469539333933
 1  9.00812751035103  1.81344139593959  1.20634588198820
 1  10.22142400400040  2.73554615701570  0.03096001150115
 1  10.58112178547855  2.82161713341334  1.67345349634964
 1  12.02125496679668 -0.44617186578658  2.31909833123312
 1  10.31960693129313 -0.14518705970597  2.76814994309431
 1  11.52892379147915  0.95761355815582  3.14496943994399
 1 -10.08214071207121 -0.35013510281028 -3.03290068576858
 1 -11.34266332263226  1.22061806030603 -2.68199526482648
 1 -11.76994483958396 -0.75246399769977 -3.42636039363936
 1 -14.56072934623462 -2.50235918851885 -0.04595279907991
 1  8.45586465446545  0.20349057425743  0.58685133133313
 1 -8.69432460136014  1.86741839463946 -0.28629394979498
 1  11.48460419491949 -2.30941243724372 -2.05984883638364
 1  9.97861072747275 -1.34046014771477 -2.17312324632463
 1  11.50433972767277 -1.12820591069107 -3.22446839493949
 1  15.14623380368037  1.44488258805881  0.87828579747975
 1  9.39029880618062 -2.64842792449245 -0.32497894039404
 1 -5.60325478647865 -1.01962911361136  0.02349974677468
 1 -7.12010090819082 -1.13654562776278  0.83315556795680
 1 -7.05992222742274 -1.40177862606261 -1.00752896769677
 1 -6.53548583508351  2.64273306840684 -0.54346754845485
 1  6.68668221722172 -3.96169959255926  0.94451414711471
 1  6.10723806900690 -3.82101728952895 -0.66042563376338
 1  8.07744764216422 -4.30874705930593 -0.36405943864386
 1  6.80988941584158 -0.20801804120412 -0.14040616251625
 1 -4.32165439703970  0.36626629182918 -0.07964402200220
 1  4.64454805830583 -2.32384163716372  0.59826216541654
 1 -4.44874091979198  3.68236621842184 -0.78490814631463
 1  4.46109618581858  0.41765910481048 -0.11991120852085
 1 -1.14232399059906  3.91537298399840 -1.40232850475048
 1 -1.85544838323832  4.40456761406141  0.38077611781178
 1 -2.73254274237424  4.79747216271627 -1.44920321402140
 1 -2.20619950035004  0.74098072357236 -0.02719744974497
 1  2.09121816391639  1.39332332153215 -0.24168118321832
 1  2.61668019571957 -2.48772517491749  1.28762714121412
 1  1.02928800010001 -2.23151244234423  0.72748146304630
 1  2.08456120552055 -2.72809059625963 -0.46440068306831
 1  0.21685757065707  2.58479831953195 -0.51700869236924
 1 -0.18653154915492 -0.39906007580758  0.10255960096010

