%nproc=4
%Mem=4GB
# td=(NStates=1) CAM-B3LYP/6-31G(d,p) 

TD

0 1
 8 -14.27245312051205 -1.83738211991199  0.44115437073707
 8  14.81515335213521  0.95662324892489  0.13631422732273
 6 -11.83056591619162  0.15614168906891  1.36272109210921
 6 -10.98881584408441  0.40124289528953  0.06487019981998
 6 -12.11428690929093 -1.36985146954695  1.51319916121612
 6 -12.79954334783478 -2.07569863466347  0.24670882178218
 6 -11.60856614551455 -0.33096057435744 -1.11588707860786
 6  11.05615894649465  0.99473111561156  1.09741002070207
 6 -11.07720919411941  0.59177091589159  2.56375342604260
 6 -13.17780394279428  0.90527617451745  1.18941001780178
 6  12.46703388388839  1.60564999149915  0.73022040824082
 6 -12.30292127802780 -1.50470833863386 -1.17568033673367
 6  13.51773339423942  0.49619729232923  0.38147546644664
 6  10.62888236253625  0.03897448724872 -0.02365878077808
 6 -9.45420418431843 -0.07684053225323  0.16396640424042
 6  12.98608658625863 -0.17065428482848 -0.84109969626963
 6  11.58930201900190 -0.47817286258626 -0.91543660246025
 6  10.10578746434643  2.30809012101210  1.15392810621062
 6  11.09728056055605  0.31727090249025  2.38544910621062
 6 -11.09348384588459  0.33903554505451 -2.38671092929293
 6 -8.49475557585759  0.66830181258126 -0.30288391089109
 6  9.23631856115612 -0.37692546834683 -0.07611752795280
 6  11.11627157265726 -1.30349331613161 -2.06934653935394
 6 -7.06141746464646  0.31121836363636 -0.26943903320332
 6  8.84441089748975 -1.73634343184318 -0.05519066006601
 6 -6.59055047654766 -1.04777353425343 -0.05101221262126
 6  7.43991247874787 -2.15040791279128 -0.10391145344534
 6 -6.25005478147815  1.38381195569557 -0.48699055565557
 6  7.22406560076008 -3.59851357355736  0.11273149134913
 6  6.33343061206121 -1.22900318901890 -0.16065840824082
 6 -4.76135010871087  1.34100763996400 -0.43966487988799
 6  4.97627847374737 -1.61113895679568 -0.07132491269127
 6 -3.96189756215622  2.42609563576358 -0.62409359835984
 6 -2.59555999409941  2.59157711531153 -0.72208495629563
 6  3.96890085558556 -0.67766827292729 -0.24168368476848
 6  2.56880392899290 -0.89791426292629 -0.13814876747675
 6 -1.87390594079408  3.93454803740374 -0.89226837423742
 6 -1.75100218571857  1.49405214961496 -0.49689570597060
 6  1.82400094509451  0.18126968846885 -0.34690325222522
 6  2.05404872597260 -2.25375816311631  0.20658302620262
 6 -0.37373963286329  1.33146446774677 -0.49339269906991
 6  0.44516934773477  0.27751941974197 -0.31169443024302
 1 -11.13832057355735  1.37471925722572 -0.23262510771077
 1 -12.71002447554755 -1.52407242094209  2.51632952765277
 1 -11.09604727432743 -1.85540473547355  1.69911319391939
 1 -12.54635826942694 -3.18339744704470  0.29424428652865
 1 -10.19510491179118 -0.12842116651665  2.70186881078108
 1 -10.58618878547855  1.53000607760776  2.40262498439844
 1 -11.69678727102710  0.63922734173417  3.61421559935994
 1 -13.67147834963496  0.30507650995099  0.32351882218222
 1 -13.76746251685169  0.73388499589959  2.20416441844184
 1 -12.78602728812881  1.93399702150215  0.99242972627263
 1  12.38684605130513  2.47489243874387 -0.06932908970897
 1  12.82337676477648  2.25670970987099  1.56613421462146
 1 -12.63940741934193 -2.11615841234123 -1.98472266296630
 1  13.67024660946095 -0.19263900970097  1.27820815671567
 1 -9.19011137683768 -1.01733659265927  0.48068562856286
 1  13.56043118721872 -1.01635467476748 -1.05061021702170
 1  13.25034145164516  0.35395397329733 -1.77954787858786
 1  9.06375307290729  2.11818186998700  1.72471771917192
 1  9.58585044664467  2.88138074047405  0.07913482898290
 1  10.66373004630463  2.84653962566257  1.80785693669367
 1  11.85787862916292 -0.51865911451145  2.28689511091109
 1  10.05968093869387 -0.18382092309231  2.55136826492649
 1  11.50425132423242  0.83278107490749  3.03374831783178
 1 -9.99744224222422  0.49840975167517 -2.47140453615362
 1 -11.57397645394540  1.39103510201020 -2.56171323662366
 1 -11.36762460756076 -0.12346109740974 -3.28315607320732
 1 -14.70847412071207 -2.33395234783478 -0.27311551535153
 1  8.54870393839384  0.44213443864386 -0.00321767556756
 1 -8.65636080498050  1.71107276007601 -0.51285660606061
 1  11.46832256675668 -2.39190068606861 -2.02026487798780
 1  10.08433129952995 -1.30524662636264 -2.41959789378938
 1  11.86936623032303 -1.01394448454845 -2.97883383148315
 1  15.26941612191219  1.09182728252825  1.04603257215722
 1  9.65088486478648 -2.40063314501450 -0.02020846334633
 1 -5.51943640464046 -1.27693484418442  0.01114851165117
 1 -6.93355225332533 -1.13413538673867  0.85716796919692
 1 -7.04239047424742 -1.70179862806281 -0.74606282108211
 1 -6.50347263376338  2.34964375947595 -0.76907010871087
 1  7.03667721672167 -4.03512693529353  1.04943463916392
 1  6.52430977617762 -4.07973316111611 -0.55341493269327
 1  8.16177607500750 -4.03300948554855 -0.18563159585959
 1  6.45693412031203 -0.08948618801880 -0.67210933283328
 1 -4.21309354095410  0.38996866206621 -0.37063312091209
 1  4.67408101160116 -2.65944519751975 -0.20556821762176
 1 -4.42849889558956  3.33576155795580 -0.97551720722072
 1  4.35769584578458  0.28012535143514 -0.44942415981598
 1 -1.29557931613161  3.91396284298430 -1.85606387828783
 1 -1.15897873627363  4.00407756505651  0.02913095329533
 1 -2.54030351845184  4.81449386488649 -0.89881817551755
 1 -2.17969685008501  0.44356098159816  0.08679394939494
 1  2.41951099319932  1.06826081528153 -0.60435745084508
 1  2.97525605330533 -2.87021342374238  0.76549492799280
 1  1.14522959425943 -2.15225451655165  0.69659837473747
 1  1.86810956035604 -2.84022180938094 -0.94814905790579
 1  0.04298018291829  2.26056589628963 -0.64605159665967
 1 -0.24858775477548 -0.61341151095109 -0.07746840184018

