%nproc=4
%Mem=4GB
# td=(NStates=1) CAM-B3LYP/6-31G(d,p) 

TD

0 1
 8 -14.11777765296530 -1.93421180288029  0.54330458575858
 8  14.76835867266727  1.12333992059206  0.10762135803580
 6 -11.79229208880888  0.05511158605861  1.42385720572057
 6 -10.92593955645565  0.32887565856586  0.11341505430543
 6 -11.96172165276528 -1.43803828822882  1.44346218751875
 6 -12.59220261376138 -2.00850191499150  0.20635478637864
 6 -11.60916620552055 -0.24700217851785 -1.17861335123512
 6  11.11213454405440  1.03165480798080  1.07409768946895
 6 -11.04599607280728  0.48152989178918  2.60754780548055
 6 -13.12208837123712  0.69963561046105  1.32045312211221
 6  12.46855403590359  1.60834026052605  0.82369975617562
 6 -12.39817080298030 -1.34895276307631 -1.04745751445145
 6  13.41403302420242  0.56432410501050  0.46021334023402
 6  10.66546602090209 -0.05085449564957  0.09632321742174
 6 -9.44041280518052  0.06975412721272  0.21815182278228
 6  13.03809178677868 -0.14346156555656 -0.79239482578258
 6  11.47446053485348 -0.58995404070407 -0.78048310711071
 6  10.01421830743074  2.12630194219422  1.07257997139714
 6  11.13106393889389  0.34805398079808  2.53112367366737
 6 -11.17083158065807  0.17148879037904 -2.52673493169317
 6 -8.41628772907291  0.87634261666167 -0.08943256575658
 6  9.23804873417342 -0.51415919171917  0.13669375317532
 6  11.21556150165016 -1.50558352515252 -1.90252985768577
 6 -7.07714903780378  0.46307354915492 -0.07407949724973
 6  8.81241769816982 -1.75154495199520  0.02976783578358
 6 -6.69797121862186 -0.91548030493049  0.12199508810881
 6  7.39480796829683 -2.16393926592659 -0.05358642094209
 6 -6.22669244524452  1.49392296679668 -0.39848170477048
 6  7.08981217541754 -3.65389911211121  0.08083830203020
 6  6.42176944594459 -1.26598688738874 -0.17656999939994
 6 -4.78041201490149  1.42168570777078 -0.42630354375438
 6  4.98949979587959 -1.51006884978498 -0.13276105630563
 6 -3.98527990039004  2.56511953815382 -0.70924211321132
 6 -2.59501994009401  2.54002195979598 -0.70008275607561
 6  3.98538250375038 -0.59767027312731 -0.26719623602360
 6  2.58639568816882 -0.85308978047805 -0.44947990059006
 6 -1.98952750295030  3.90274485708571 -1.04805395279528
 6 -1.75054213971397  1.46157890229023 -0.56278229462946
 6  1.72304084908491  0.16845840734073 -0.48011657355736
 6  2.16115943704370 -2.28355114241424 -0.36833446554655
 6 -0.36248850775078  1.37193851515152 -0.73429678947895
 6  0.34854968576858  0.20326199399940 -0.70327358815882
 1 -11.06576331783178  1.40541232653265  0.09246740154015
 1 -12.61851532463246 -1.93966398009801  2.26728462316232
 1 -11.01868953855385 -2.00558975397540  1.59813309590959
 1 -12.56078971257126 -2.95551465876588  0.14967983008301
 1 -10.13973937523753  0.04514619021902  2.82808143204320
 1 -10.79622978957896  1.61605468246825  2.64400912281228
 1 -11.64491208350835  0.28607202620262  3.54654883268327
 1 -13.73230443224322  0.26524252655265  0.58745521582158
 1 -13.68032380298030  0.39787139453945  2.14889889188919
 1 -13.00177886328633  1.83432705450545  1.25070555385539
 1  12.51402876957696  2.45168011751175  0.10632847604760
 1  12.61802622972297  2.04723876277628  1.68384598579858
 1 -12.72397587618762 -2.06733352985299 -1.75513970467047
 1  13.51471105590559 -0.24354410021002  1.30217055295530
 1 -9.16654902060206 -0.89545440444044  0.48021558155816
 1  13.52998814291429 -1.09931297059706 -1.02757791379138
 1  13.26411282878288  0.55302388028803 -1.52139206300630
 1  9.19784648224822  1.64482453425343  1.64520976837684
 1  9.68166002760276  2.64607721012101 -0.01061414591459
 1  10.31103477677768  2.97782275397540  1.78065421642164
 1  11.94850769206921 -0.40359760836084  2.53053947534754
 1  10.10433540414041 -0.11515405640564  2.66885001310131
 1  11.27801870097010  1.09357715451545  3.33744868786879
 1 -9.98939143714371  0.11636154685469 -2.59983737943794
 1 -11.32212126842684  1.22230822932293 -2.59416648194820
 1 -11.79865771087109 -0.33279203050305 -3.24369212681268
 1 -14.49414268756876 -2.11016996959696 -0.45042324612461
 1  8.48874794279428  0.20220044524452  0.32731537773777
 1 -8.72581775067507  1.87142879567957 -0.36541186158616
 1  11.67817355185518 -2.54065556155616 -1.85332818431843
 1  10.13222608900890 -1.77019312101210 -2.08532446644664
 1  11.74003329702970 -0.94804789488949 -2.73745969406941
 1  15.17659683998400  1.57125522532253  0.85126309520952
 1  9.62476225252525 -2.43629671137114  0.08118167566757
 1 -5.58363282428243 -1.06479363006301  0.05875327212721
 1 -6.91273017111711 -1.06961893509351  1.17582983538354
 1 -7.15043127832783 -1.56225467366737 -0.45988420322032
 1 -6.50464275077508  2.48152694779478 -0.51561476317632
 1  6.54683823282328 -3.73268669126913  0.98378807450745
 1  6.45855320052005 -4.09116430423042 -0.79036862806281
 1  7.89229912731273 -4.20394657925793  0.18490545784578
 1  6.67553598049805 -0.09994723412341 -0.16287840974097
 1 -4.32666489808981  0.56459612481248 -0.32311836943694
 1  4.72710631413141 -2.65288454145415 -0.00432809360936
 1 -4.60787683338334  3.39056703850385 -0.90757041254125
 1  4.09859993619362  0.53305064396440 -0.24443366076608
 1 -1.35822558075808  3.77320876757676 -1.96452472437244
 1 -1.19969280768077  4.17805496279628 -0.40104206400640
 1 -2.79617910601060  4.84969738523852 -0.91574986868687
 1 -2.30789967036704  0.53671029652965 -0.26302103210321
 1  2.22777181928193  1.17124111331133 -0.64336135123512
 1  2.36570509820982 -2.47494389678968  0.87400577907791
 1  1.03857892919292 -2.40199949104910 -0.81400268536854
 1  2.76197894729473 -2.81663945114511 -0.93682792579258
 1  0.32462834773477  2.27086692639264 -0.71021801330133
 1 -0.26188908490849 -0.79703987378738 -0.68308896389639

