%nproc=4
%Mem=4GB
# td=(NStates=1) CAM-B3LYP/6-31G(d,p) 

TD

0 1
 8 -14.15978185338534 -1.96897527922792  0.56904716001600
 8  14.82211404820482  0.71608919551955  0.19226982288229
 6 -11.73348620822082 -0.05767969306931  1.44096891689169
 6 -11.03460042254225  0.31221399239924 -0.00920720792079
 6 -12.09484496509651 -1.59104358875888  1.46504434573457
 6 -12.71731512501250 -2.13799486428643  0.30167431833183
 6 -11.61686697559756 -0.42622010031003 -1.23417890779078
 6  11.13321665226523  1.02413405590559  1.03909418911891
 6 -10.91958343154315  0.46085782458246  2.61003805450545
 6 -13.05458162056206  0.80446609350935  1.37557863466347
 6  12.57947512801280  1.39401882838284  0.75644303050305
 6 -12.38138912481248 -1.53242110991099 -1.04707747644764
 6  13.46444806570657  0.31742941554155  0.39222654155416
 6  10.74891436573657 -0.02118152835284  0.00234381948195
 6 -9.61256001990199 -0.04100694889489 -0.02463245564556
 6  13.06993497109711 -0.27872509190919 -0.95127071337134
 6  11.56944003280328 -0.51450649594959 -0.91913697249725
 6  10.23079996559656  2.22914222622262  1.11292400580058
 6  11.08180901340134  0.30911008640864  2.52439300060006
 6 -11.30472496999700  0.06820846234623 -2.58433069126913
 6 -8.59015511581158  0.86492147454745 -0.25149877237724
 6  9.29968489778978 -0.43501127692769  0.12468255205521
 6  11.02162210771077 -1.33724669146915 -2.19786939163916
 6 -7.13920524342434  0.55433267506751 -0.33469555885589
 6  8.80332678907891 -1.67730752825283 -0.12053719471947
 6 -6.75609703120312 -0.87138589548955 -0.04623173457346
 6  7.42067055455546 -2.08992186418642 -0.08499956225623
 6 -6.23008278427843  1.54383795829583 -0.41811366796680
 6  7.11905509970997 -3.51298502070207  0.01920213841384
 6  6.36940420942094 -1.17183747244724 -0.17971031343134
 6 -4.81799577327733  1.49904344354435 -0.54927584098410
 6  5.00580142604260 -1.44630247314731 -0.00053783398340
 6 -4.04629600200020  2.55218824502450 -0.75893708270827
 6 -2.57987842594259  2.64144210181018 -0.74527727552755
 6  4.06128009350935 -0.44703520962096 -0.17383690009001
 6  2.65800284888489 -0.72182665416542 -0.02811776437644
 6 -1.87505605580558  4.02539712231223 -0.94152329972997
 6 -1.74888197369737  1.42732547694769 -0.56724274067407
 6  1.79145769076908  0.43370493199320 -0.32597115901590
 6  2.21574489558956 -2.10706349364937  0.39243161106111
 6 -0.43491575047505  1.50459178047805 -0.56051941174117
 6  0.38858368916892  0.31441310911091 -0.32067532833283
 1 -11.06641338283828  1.47416920222022 -0.20053189838984
 1 -12.48176164926493 -2.20424043774377  2.30577847254725
 1 -11.18069573917392 -2.06661585658566  1.58199148174817
 1 -12.46443007660766 -3.25770487778778  0.21268613071307
 1 -9.99660506180618 -0.05233355775578  2.50697932183218
 1 -10.88470863746375  1.50717379437944  2.61719644154415
 1 -11.43108070037004  0.14615803480348  3.57292146994699
 1 -13.60862206400640  0.34094009630963  0.64038050835084
 1 -13.54672044264426  0.75439704710471  2.38365236723672
 1 -12.94035272067207  1.93815743754375  0.82601308460846
 1  12.56741410811081  2.07289223872387  0.05250309350935
 1  13.02593702080208  2.06285032393239  1.57783538473847
 1 -12.75392887148715 -1.85403219971997 -2.13556774747475
 1  13.34429401420142 -0.47433717951795  1.17852818871887
 1 -9.31296366206621 -1.07811267026703  0.26837439743974
 1  13.69724486858686 -1.22456549584959 -1.25991114711471
 1  13.37755417291729  0.41370994889489 -1.50980090389039
 1  9.41704840244024  1.89373942574257  1.39047429482948
 1  9.90515237683768  2.66537914031403  0.06281319681968
 1  10.69195286858686  2.97021199289929  1.67107325832583
 1  11.90076291759176 -0.51449869846985  2.44898131953195
 1  10.07987295789579 -0.20082262326233  2.60240336843684
 1  11.23254415351535  1.00252804960496  3.40445538853885
 1 -10.37557005500550  0.25854576527653 -2.63907130283028
 1 -11.58113717001700  0.94910090859086 -2.91664873017302
 1 -11.54022186728673 -0.61770052135213 -3.50333809140914
 1 -14.58742201550155 -2.13849280188019 -0.36009421322132
 1  8.77727679567957  0.39803002820282  0.56724937113711
 1 -8.73882905180518  1.82008366116612 -0.40835615601560
 1  11.42662839733973 -2.41132262826283 -2.24520737223722
 1  9.82370523692369 -1.36451255295530 -2.17974390839084
 1  11.53813310701070 -0.83399648974897 -3.00274622272227
 1  15.19536871717172  0.77276537633763  1.16436440534053
 1  9.46637641394140 -2.62975605730573 -0.53189963246325
 1 -5.57504196519652 -1.12884003470347 -0.13046564976498
 1 -6.96951584968497 -1.38754072727273  1.03447569997000
 1 -7.38003423862386 -1.56262471067107 -0.76699491429143
 1 -6.74527681418142  2.55360415551555 -0.56062926462646
 1  6.55422897189719 -3.89224264686469  0.88220791649165
 1  6.31343868906891 -3.73812900070007 -0.93102269346935
 1  7.94810470787079 -4.32447863246325 -0.01195422812281
 1  6.48839726662666 -0.09724696409641 -0.09863198509851
 1 -4.24680691229123  0.38201786698670 -0.65530158775878
 1  4.84490809430943 -2.48096734973497  0.08320065926593
 1 -4.54928097379738  3.66125410721072 -0.61810146564656
 1  4.63673374957496  0.43862120102010 -0.50745996339634
 1 -1.16689644784479  3.92811425812581 -1.78554682658266
 1 -1.21155399379938  4.28094525182518  0.07853589378938
 1 -2.74643413151315  4.79198161366137 -1.05216351005100
 1 -2.23273215361536  0.44905153065307 -0.18902363236324
 1  2.11843088518852  1.36715070427043 -0.63036005110511
 1  2.45885441314131 -2.37248365076508  1.35763414191419
 1  1.17790286158616 -2.30642993409341  0.27875659055906
 1  2.58498124752475 -3.00626841404140 -0.24747899089909
 1 -0.00406452155215  2.59787962766277 -0.73689068056806
 1 -0.12548544454445 -0.63312348214822 -0.01980263526353

