%nproc=4
%Mem=4GB
# td=(NStates=1) CAM-B3LYP/6-31G(d,p) 

TD

0 1
 8 -14.11158703390339 -2.14515289698970  1.00380063536354
 8  14.83362519931993  0.74569215581558  0.48286888278828
 6 -11.80923378297830  0.15150122502250  1.35070989098910
 6 -11.09727669016902  0.39378214921492  0.00119383218322
 6 -11.85736121672167 -1.36524100850085  1.67274511581158
 6 -12.67336072957296 -2.21219228402840  0.59588373927393
 6 -11.82059734863486 -0.43819129742974 -1.14913040294029
 6  11.09198252885288  0.83366500900090  1.23167344704470
 6 -10.89435090829083  0.78808054685469  2.42907995869587
 6 -13.20864702710271  0.72437808470847  1.38709978677868
 6  12.58020520102010  1.44062348884888  1.15269265546555
 6 -12.37992897879788 -1.63082094989499 -0.82787555625563
 6  13.57313893479348  0.27383505610561  0.65193251215122
 6  10.72888236253625 -0.03537294749475  0.10998458355836
 6 -9.63718248214822 -0.05009785798580 -0.07580757315732
 6  13.16993497109711 -0.21830905030503 -0.69273485978598
 6  11.60818390719072 -0.51419646494649 -0.77575263406341
 6  10.21715860146015  2.06247555955596  1.31658437183718
 6  10.93229406190619  0.10487966336634  2.59674023532353
 6 -11.61624612211221  0.05228687018702 -2.53575583378338
 6 -8.60388648894889  0.83843882628263 -0.18059168166817
 6  9.32826775607561 -0.34537231303130  0.06846693049305
 6  11.38841878737874 -1.19249221602160 -2.10380998569857
 6 -7.14506582948295  0.47134437623762 -0.25745783508351
 6  8.80044650105011 -1.64171396889689 -0.22070721172117
 6 -6.64458588008801 -0.94432318921892 -0.09002611401140
 6  7.48705719321932 -2.02028490049005 -0.18529959225923
 6 -6.31209098509851  1.52371594609461 -0.37190904750475
 6  7.18302149634963 -3.51656537873787  0.03393361156116
 6  6.35615288428843 -1.06737702640264 -0.34619696209621
 6 -4.85012898659866  1.41019455865587 -0.52914382778278
 6  5.04194504040404 -1.49849769266927 -0.33857163736374
 6 -4.00727209960996  2.44631765796580 -0.77784897389739
 6 -2.65481591969197  2.55022297989799 -0.87390013781378
 6  4.00875484098410 -0.54536504260426 -0.60582009840984
 6  2.61656870547055 -0.75863033453345 -0.52685763836384
 6 -2.10650920112011  3.94886946954695 -1.17146629402940
 6 -1.67243432893289  1.47674041844184 -0.60944696109611
 6  1.80822936793679  0.33405496699670 -0.74683324522452
 6  2.13032635373537 -2.18782156945695 -0.17799543164316
 6 -0.27032929182918  1.67113843514351 -0.69436279607961
 6  0.40055488628863  0.44976664446445 -0.54221748254825
 1 -10.88957569906991  1.42243402870287 -0.30256210141014
 1 -12.38889236233623 -1.52983299699970  2.62996089078908
 1 -10.75526319591959 -1.67330652565257  1.84765804840484
 1 -12.45760939453946 -3.24668377567757  0.50768563066307
 1 -9.83086848814882  0.35604728032803  2.52983160706071
 1 -10.83890405700570  1.86827990499050  2.28927364926493
 1 -11.38430602290229  0.67837125612561  3.55347952575258
 1 -13.63628483028303  0.48923492579258  0.49741621192119
 1 -13.79049482008201  0.53047465486549  2.27837183918392
 1 -13.17390607600760  1.75145876767677  1.15287577087709
 1  12.61517888458846  2.04826977647765  0.29177702090209
 1  12.97364179127913  1.78905294419442  2.05737333853385
 1 -12.94942842144214 -2.15774257075708 -1.65315950665066
 1  13.47819740454045 -0.37533727952795  1.50466080198020
 1 -9.37006937263726 -1.00962582158216  0.13090065006501
 1  13.71554669876988 -1.19817285658566 -1.03684884088409
 1  13.56188260576058  0.49847842574257 -1.44681460526053
 1  9.07541423902390  2.07370742254225  1.66280152755276
 1  10.29464132573257  2.66383898629863  0.38160507600760
 1  10.79892356565657  2.69399437113711  2.05642179317932
 1  11.56997983928393 -0.66728397699770  2.72211863326333
 1  9.98902387298730 -0.16337887888789  2.56333946204620
 1  11.04963586268627  0.80858865566557  3.40062500550055
 1 -10.67708020602060  0.37159707040704 -2.75453284898490
 1 -12.36070512681268  0.93439943844384 -2.68195526082608
 1 -11.86837468256826 -0.77207595889589 -3.22812056965697
 1 -14.51819509280928 -2.54686363896390  0.25171696789679
 1  8.51571063906391  0.32265249044904  0.26108875507551
 1 -8.94577974687469  1.89383103590359 -0.19991531193119
 1  11.54853058755875 -2.14310580658066 -2.28021087258726
 1  10.32015488188819 -1.10193629532953 -2.55179111311131
 1  11.89116841054105 -0.60189327942794 -2.94886083418342
 1  15.32741192149215  1.17891599139914  1.17539550845085
 1  9.47681745804580 -2.57162024372437 -0.46937337983798
 1 -5.57222168316832 -1.03631078177818 -0.30796339953995
 1 -7.04409330743074 -1.28260023322332  0.92002425482548
 1 -7.26242247744774 -1.68635708390839 -0.68798701350135
 1 -6.88662094859486  2.43651244634463 -0.42257545924592
 1  7.04175772477248 -3.90117353995400  0.96683637933793
 1  6.28702604780478 -3.81907709550955 -0.70921051225123
 1  8.16743664106411 -3.88109429402940 -0.44361739443944
 1  6.66619504640464 -0.02030927032703 -0.71248337023702
 1 -4.30746297789779  0.38763842904290 -0.35239129672967
 1  4.75060866436644 -2.31914116711671 -0.19265692649265
 1 -4.56224226992699  3.50685866766677 -0.93568322382238
 1  4.33836391259126  0.34762210111011 -0.89882910031003
 1 -1.48403816201620  4.02919436613661 -2.06266453835384
 1 -1.58313115151515  4.26839399669967 -0.23955591539154
 1 -2.88757824592459  4.53907632313231 -1.17269556325633
 1 -2.24652353275328  0.66500312581258 -0.32353708370837
 1  2.39433847594759  1.21047503670367 -0.67645466056606
 1  2.39079760746075 -2.53869027142714  0.75121349984998
 1  1.04350942224222 -2.25216450755076 -0.29574085918592
 1  2.75220797019702 -2.90372816001600 -0.81729597259726
 1  0.22414829972997  2.67831767146715 -0.93516050755076
 1 -0.18759165516552 -0.59124929472947 -0.43098375337534

