%nproc=4
%Mem=4GB
# td=(NStates=1) CAM-B3LYP/6-31G(d,p) 

TD

0 1
 8 -14.03155903110311 -2.08731711341134  0.35452570787079
 8  14.71701353815381  0.80860844744474  0.16047664356436
 6 -11.70980383998400 -0.10282420752075  1.28335315531553
 6 -10.91310827332733  0.35115788678868 -0.00575686288629
 6 -11.94278975957596 -1.56062054645465  1.36555439673967
 6 -12.58451184468447 -2.26938800360036  0.18206235713571
 6 -11.42485777467747 -0.37439491779178 -1.26640213011301
 6  10.92270560116012  1.10791243374337  0.95470575027503
 6 -11.04886635983598  0.45538727752775  2.58439549024903
 6 -13.07342350475047  0.69354500140014  1.18517959475948
 6  12.43707088758876  1.52995242174217  0.53640102630263
 6 -12.18748973487349 -1.52541040884088 -1.22905567426743
 6  13.41232285318532  0.32656032863286  0.37389470837084
 6  10.61260073437344 -0.09472888308831 -0.06652306720672
 6 -9.46307507140714 -0.08577142534253  0.05140514811481
 6  13.04647262486248 -0.49309652905291 -0.80310589688969
 6  11.56977006580658 -0.71874691999200 -0.90894595339534
 6  10.08665555115511  2.32138145014501  0.88711142454245
 6  10.82769360186019  0.66160533593359  2.36300686198620
 6 -11.16038053555356  0.23455509700970 -2.59876213441344
 6 -8.47770387068707  0.89992497489749 -0.11328495099510
 6  9.21335626492649 -0.47511528732873  0.07532761656166
 6  11.13179312481248 -1.66123909070907 -1.92407201190119
 6 -7.06285760866087  0.58303554535454 -0.02264435373537
 6  8.68176463286329 -1.77004680218022 -0.08744388538854
 6 -6.63084450595059 -0.92326108300830  0.25796868546855
 6  7.36650513801380 -2.08360123212321 -0.02411347364736
 6 -6.12064184018402  1.53857743224322 -0.28759061566157
 6  7.06846004020402 -3.63221694389439  0.11084130233023
 6  6.31398866786679 -1.23639392809281 -0.23323566596660
 6 -4.67383135683568  1.52514605380538 -0.18895980938094
 6  4.93741458735874 -1.49522736563656 -0.19275705590559
 6 -3.99019039143914  2.64951797799780 -0.61081227022702
 6 -2.55591602970297  2.76086404400440 -0.63390613841384
 6  3.93847781328133 -0.52061256735674 -0.36319583598360
 6  2.62054910351035 -0.78572304380438 -0.21582653525353
 6 -1.94371292149215  4.13695827842784 -0.81820096749675
 6 -1.75523260876088  1.54927767216722 -0.45430144654465
 6  1.74736328132813  0.31018257975798 -0.33079164106411
 6  2.15530885198520 -2.13586637393739  0.16457882578258
 6 -0.37891014991499  1.59634095539554 -0.43457681748175
 6  0.41132596339634  0.44406607440744 -0.27107036783678
 1 -10.97251399289929  1.38345013031303 -0.12019386458646
 1 -12.73247672077208 -1.67854786848685  2.06493438813881
 1 -11.08771644124412 -2.12646184118412  1.52103538613861
 1 -12.36058969256926 -3.37934704200420  0.13968883098310
 1 -9.85367076837684 -0.01812013641364  2.87869649354935
 1 -10.96040620722072  1.50347342434243  2.69563428532853
 1 -11.40698829112911  0.21202462146215  3.54543872167217
 1 -13.68507970977098  0.60730673297330  0.23753022332233
 1 -13.59160493109311  0.43016462386239  2.13380738273827
 1 -12.85830451585158  1.80132375417542  1.17878836213621
 1  12.15251261796180  2.00854580408041 -0.63167532433243
 1  12.96638106520652  2.24589862876288  1.12853045424543
 1 -12.40832431103110 -2.04183097959796 -2.08362255295530
 1  13.40609019381938 -0.19141888768877  1.17272760866087
 1 -9.38828119381938 -1.11345620462046  0.11427898789879
 1  13.73964910901090 -1.42209524882488 -0.90742589858986
 1  13.26839325682568  0.11269984788479 -1.64327425122512
 1  9.01785848344834  2.12825287708771  1.05722096949695
 1  10.27547940954095  2.90787338973897 -0.05955904040404
 1  10.60545421872187  3.01201617331733  1.44255040604061
 1  11.48991183248325 -0.44027127572757  2.75377179857986
 1  9.69505447604760  0.59128658765876  2.74897802590259
 1  11.19295019411941  1.36975477227723  3.27019196219622
 1 -10.21714421242124  0.45216512721272 -2.70434783048305
 1 -11.79544860116012  1.07827382588259 -2.80506757205721
 1 -11.45895374047405 -0.60489924122412 -3.21921967956796
 1 -14.55616889018902 -2.26190514311431 -0.41967017081708
 1  8.47083615161516  0.28870909610961  0.48695134133413
 1 -8.85563073197320  1.88338999179918 -0.13038835923592
 1  11.27248298279828 -2.78834033003300 -1.57139999149915
 1  10.12985585198520 -1.49960606230623 -2.19702563656366
 1  11.74837413111311 -1.63923701380138 -2.85772172027203
 1  14.98187736803680  1.28827692749275  0.97733570247025
 1  9.21630140644065 -2.67577065876588 -0.18555499799980
 1 -5.50794525552555 -1.03534068476848  0.48781617841784
 1 -7.17685658375838 -1.22902487568757  1.25325757815782
 1 -7.07339357455746 -1.41486993519352 -0.48541675647565
 1 -6.41121340784078  2.55385418051805 -0.30674387608761
 1  6.59614316331633 -3.97542096469647  1.16108580428043
 1  6.59689703490349 -3.97482267006701 -0.69106869806981
 1  8.13472336973697 -4.07645382998300  0.02025899319932
 1  6.65763419031903 -0.07111435083508 -0.35067718961896
 1 -4.24678691029103  0.65428509370937  0.10747468986899
 1  4.70165376887689 -2.56814606760676 -0.05656331713171
 1 -4.54962100780078  3.46511449324933 -0.95522517801780
 1  4.29542961916192  0.59995733463346 -0.44442365976598
 1 -1.19106886508651  4.19580102680268 -1.67288556045605
 1 -1.60971380978098  4.52152931023102  0.26230427062706
 1 -2.69362885098510  4.76288870437044 -1.04566285998600
 1 -2.21528040844084  0.61855848134814 -0.22899762976298
 1  2.30348939103910  1.17634162336234 -0.66053306840684
 1  2.67313584128413 -2.42060846324632  1.08413679217922
 1  0.94543961526153 -2.16686597769777  0.44605332023202
 1  2.25889863926393 -3.04154194139414 -0.69239348234824
 1  0.31516740164016  2.40522036173617 -0.50799779127913
 1 -0.29327222322232 -0.36804697449745  0.08447779277928

