%nproc=4
%Mem=4GB
# td=(NStates=1) CAM-B3LYP/6-31G(d,p) 

TD

0 1
 8 -14.26641251645164 -1.94200258195820  0.55539579487949
 8  14.77241907870787  0.78429601620162  0.23337393329333
 6 -11.77187004660466  0.05717179207921  1.23927874787479
 6 -11.02386934943494  0.27471024202420 -0.15692197939794
 6 -11.97405288588859 -1.34956944134413  1.46847468876888
 6 -12.77685107860786 -2.01817288208821  0.36885103600360
 6 -11.66461175007501 -0.50982846114611 -1.25406089598960
 6  11.04428775937594  0.92916455895590  0.99850012971297
 6 -11.09869134233423  0.66140787958796  2.45152220292029
 6 -13.16397255965597  0.80079572647265  1.06572764956496
 6  12.54860204070407  1.47382680918092  0.80252763896390
 6 -12.36723770967097 -1.60959882768277 -1.02875564426443
 6  13.51730335123512  0.38128580118012  0.48103542244224
 6  10.67802727702770  0.01426201600160 -0.02075849074907
 6 -9.52778154205421 -0.12977582578258 -0.05177516991699
 6  13.07241521912191 -0.30119733913391 -0.77330291659166
 6  11.53550663946395 -0.47264230953095 -0.96611166996700
 6  10.23948083368337  2.23080239223922  1.00164287768777
 6  10.89060989348935  0.30297947334733  2.43031359265927
 6 -11.29273377087709  0.04279592109211 -2.63468572677268
 6 -8.49734583488349  0.74998998139814 -0.17332095459546
 6  9.27433236253625 -0.33908168396840 -0.01978189438944
 6  11.16890683618362 -1.37494046084608 -2.16573617831783
 6 -7.03391471437144  0.40774801660166 -0.13674576387639
 6  8.76212266866687 -1.56762656015602 -0.22896803780378
 6 -6.69582100360036 -0.90903966086609  0.28277116571657
 6  7.41881036853685 -2.13501637363736 -0.14941600390039
 6 -6.19384916091609  1.51989556405641 -0.26877873447345
 6  7.18461165536554 -3.50277399959996 -0.07308709050905
 6  6.36151342034203 -1.24451474017402 -0.08329067146715
 6 -4.77967194089409  1.48038157735774 -0.14108502190219
 6  5.04673551945194 -1.59651749464947 -0.09488726892689
 6 -3.91121249364936  2.65133816001600 -0.43143433243324
 6 -2.51304174227423  2.65099305690569 -0.58802154995500
 6  4.06664062956296 -0.60720122622262 -0.19117863426343
 6  2.63529057765777 -0.71257572907291 -0.17371232383238
 6 -1.87577612781278  3.89475405800580 -0.94946409380938
 6 -1.74096118161816  1.51882462686269 -0.47935395179518
 6  1.81322986798680  0.26045760726073 -0.36323488538854
 6  2.16244956605661 -2.17831061836184  0.04853722162216
 6 -0.29571183008301  1.51223254455446 -0.60375373517352
 6  0.39807463826383  0.28858052585259 -0.25268852965297
 1 -10.82265900740074  1.32241402670267 -0.40413225842584
 1 -12.36594006710671 -1.42214222792279  2.51745964066407
 1 -11.00281795139514 -2.00093928892889  1.56750003260326
 1 -12.54566820042004 -3.10262937023702  0.43776863896390
 1 -10.15136053735374  0.10300197579758  2.68733735763576
 1 -10.85307547414742  1.71954503150315  2.25519024092409
 1 -11.76318391069107  0.33112653165317  3.35612979077908
 1 -13.63877507930793  0.47746374867487  0.19706617691769
 1 -13.80785655625563  0.41350295769577  1.94290829282928
 1 -13.25709439483948  1.99464308610861  1.05306578987899
 1  12.65222258895890  2.20074502400240 -0.03139529632963
 1  12.73981840894089  2.12597663656366  1.71238884008401
 1 -12.49281275987599 -2.30093689018902 -1.72995718641864
 1  13.52099168396840 -0.40606035183518  1.26969730563056
 1 -9.21131349704971 -1.06643150215022 -0.08836127612761
 1  13.80119526362636 -1.01073411271127 -0.96754191019102
 1  13.45672208970897  0.15435401330133 -1.72768269206921
 1  9.20994769236924  2.02733278507851  1.35194044144414
 1  9.87183904550455  2.47860046244624 -0.09491257575758
 1  10.68571224452445  3.25151012271227  1.42962911391139
 1  11.54920776207621 -0.46514376297630  2.47931435283528
 1  9.73321829242924 -0.02848538953895  2.46204933303330
 1  11.16430732983298  0.99735753255326  3.28122306530653
 1 -10.15266776477648  0.35247515821582 -2.57684508020802
 1 -12.15667472377238  0.94729072757276 -2.80133719901990
 1 -11.46756460156016 -0.68324707600760 -3.45599335693569
 1 -14.67735100840084 -2.52079103170317 -0.34074227802780
 1  8.66309537753775  0.48900912611261 -0.04329168296830
 1 -8.81483665256526  1.76987864066407 -0.36749206960696
 1  11.57010274477448 -2.38253974997500 -2.01244409590959
 1  10.20033289968997 -1.35374147584758 -2.47948388238824
 1  11.83800309400940 -0.88682177227723 -2.83103905200520
 1  14.91569074937494  1.74567266706671  1.01956992589259
 1  9.45897567386739 -2.58045112681268 -0.24164060656066
 1 -5.77872233323332 -1.15398254895490  0.22002939973997
 1 -7.21825072317232 -1.20461243444344  1.33730598299830
 1 -7.25242147734773 -1.74421286948695 -0.41359957475748
 1 -6.44440672717272  2.57983677877788 -0.44517771947195
 1  6.68612216121612 -3.86588001060106  0.91482117781778
 1  6.49355670087009 -3.80476566436644 -0.87004659585959
 1  7.98202810021002 -4.14723090769077 -0.12625565826583
 1  6.65286371327133 -0.20982822222222 -0.19021114301430
 1 -4.28766099769977  0.50364002920292  0.13093703610361
 1  4.76922052555256 -2.62158141114111 -0.00038769956996
 1 -4.52330837653765  3.57213519531953 -0.67703735923592
 1  4.40893096929693  0.45441278017802 -0.43771298869887
 1 -1.39393915211521  3.92587403410341 -2.13823209510951
 1 -0.95840867926793  4.17232438973897 -0.40066202600260
 1 -2.61440092819282  4.66188860436044 -0.91311960566057
 1 -2.30977985838584  0.68651527702770 -0.25900063006301
 1  2.18002704480448  1.22765675487549 -0.53485050015001
 1  2.39069759745975 -2.44096049844984  1.07268564706471
 1  1.08105317661766 -2.11034032513251  0.00308902380238
 1  2.50671342074207 -2.95742352955296 -0.55971021402140
 1  0.11408729362936  2.42567240694069 -0.91217820932093
 1 -0.28804170017002 -0.67244741454145 -0.06029668466847

