%nproc=4
%Mem=4GB
# td=(NStates=1) CAM-B3LYP/6-31G(d,p) 

TD

0 1
 8 -14.18389426462646 -1.76049443114311  0.81118137343734
 8  14.67731956875688  1.14297188378838  0.23269386528653
 6 -11.70283314291429  0.21258733363336  1.24818963896390
 6 -10.94003096559656  0.41683445444544 -0.06059234643464
 6 -12.04474995559556 -1.28446293069307  1.60902874417442
 6 -12.77791118461846 -1.98868993379338  0.38667281818182
 6 -11.59916520542054 -0.46000347864786 -1.17230272017202
 6  11.04512784338434  1.04753639613961  1.26203648334833
 6 -10.75571704490449  0.77206894569457  2.31343839453945
 6 -13.08598476087609  0.97434308120812  1.30575165196520
 6  12.39025620612061  1.65732515901590  0.85008239443944
 6 -12.43613459935994 -1.49536740454045 -0.90917368606861
 6  13.35867748864887  0.58775644824482  0.51851917081708
 6  10.61613108740874  0.09888047784778  0.13638722382238
 6 -9.46406517041704 -0.07029987818782 -0.13878387078708
 6  12.97011498909891 -0.03990120952095 -0.71763735003500
 6  11.50450353915391 -0.45255030033003 -0.80302536133613
 6  10.04978186378638  2.13108242024202  1.15041775517552
 6  10.98363919641964  0.35706488188819  2.57570813211321
 6 -11.41428592609261  0.01938357985799 -2.62163442164216
 6 -8.45057115741574  0.80301528392839 -0.23361698419842
 6  9.23041797109711 -0.41055883168317  0.23737382118212
 6  11.18337828332833 -1.19583255005501 -2.10700030473047
 6 -7.07774909780978  0.41271851365137 -0.08263035233523
 6  8.82671912831283 -1.65804560206021 -0.30600574157416
 6 -6.59753117461746 -0.99664842174217  0.19393228182818
 6  7.47789627712771 -2.17678055005501 -0.23313437573757
 6 -6.25761553755375  1.49694326882688 -0.38326018261826
 6  7.36549974417442 -3.77864158635864 -0.03805358715872
 6  6.35861313031303 -1.36614690339034 -0.18351069346935
 6 -4.86330030373037  1.38948248744874 -0.27684859825983
 6  5.02284313021302 -1.59241708460846 -0.28386616681668
 6 -3.97227860026003  2.52484551075108 -0.71639282828283
 6 -2.54928536663666  2.49915787338734 -0.69224197199720
 6  4.04915888138814 -0.72798330443044 -0.45037455385539
 6  2.69085613421342 -1.01778625012501 -0.46891184378438
 6 -1.86666521672167  3.88143272587259 -0.78944809220922
 6 -1.83445053055306  1.27482022642264 -0.65104112051205
 6  1.78881742674267  0.04722628412841 -0.39462802470247
 6  2.17378069916992 -2.47744053135314 -0.26934456655666
 6 -0.36295855475548  1.28928024932493 -0.55397875767577
 6  0.41696652745275  0.13020468826883 -0.52797605840584
 1 -10.78123486498650  1.49856164146415 -0.55728757395740
 1 -12.72281575467547 -1.18887890159016  2.55928382308231
 1 -11.13443111271127 -2.03599279427943  1.91126440904090
 1 -12.67996162976298 -3.05989509680968  0.26069093119312
 1 -9.94468987028703  0.26192786838684  2.44734335823582
 1 -10.65010517711771  1.76375945294529  2.13317803970397
 1 -11.14739233153315  0.75987940694069  3.44322850065007
 1 -13.62418362016202  0.31965796809681  0.55213168346835
 1 -13.47426319691969  1.02687429482948  2.41857585958596
 1 -12.96049473487349  2.22106572837284  0.88912939623962
 1  12.24284165086509  2.44715966546655  0.17110495369537
 1  12.78946337343734  2.12335637453745  1.74610221142114
 1 -13.12544602320232 -2.11041783828383 -1.70332452315231
 1  13.44048363316332 -0.12238198399840  1.34493482938294
 1 -9.30061242694269 -0.98125298429843  0.16139369936994
 1  13.62959810391039 -0.84955799509951 -0.92071722772277
 1  13.13719013651365  0.70536911481148 -1.54163408720872
 1  9.09588628622862  1.87834788658866  1.65699094649465
 1  9.99796165776578  2.48859146154615 -0.08120120462046
 1  10.52738641194119  2.88142311401140  1.70329648064806
 1  11.86162900420042 -0.19009625822582  2.70927734913491
 1  10.18696366696670 -0.49641218221822  2.69400252835284
 1  10.93519441854185  1.04835263206321  3.50450539353935
 1 -10.33490598859886 -0.24437452675268 -2.90522791849185
 1 -11.51105016131613  1.14538053655366 -2.54412147744774
 1 -12.05816366146615 -0.61006975827583 -3.39213697129713
 1 -14.70062333563356 -2.04441339393939 -0.00599880368037
 1  8.42930199819982  0.25116534173417  0.82194484068407
 1 -8.61057622652265  1.90982263506351 -0.11198651905190
 1  11.22134786928693 -2.39280077607761 -2.20326317781778
 1  10.05401826822682 -0.99858596029603 -2.23075900990099
 1  11.74817411111111 -0.86811990209021 -2.87721366946695
 1  15.04508368866887  1.04640274007401  1.26137410631063
 1  9.45182495879588 -2.51237431913191 -0.51592803530353
 1 -5.49182364336434 -1.01130828152815  0.07527492429243
 1 -6.67930682878288 -1.01755372857286  1.44818707110711
 1 -7.19397563276328 -1.76961540974097 -0.39362757755776
 1 -6.63617590409041  2.60201899699970 -0.53699690139014
 1  7.23814736373637 -4.05832925552555  1.03591328702870
 1  6.48040538573857 -4.06039122692269 -0.58351794299430
 1  8.29661955935594 -4.22083826842684 -0.22677571027103
 1  6.63181160806081 -0.22563980338034 -0.29105122702270
 1 -4.25748798039804  0.42986265146515  0.19024296669667
 1  4.71806541004100 -2.64937419041904 -0.56816447724773
 1 -4.42029807550755  3.49656763856386 -1.14554420992099
 1  4.40203027922792  0.36058339723972 -0.41311052845285
 1 -1.10502026022602  3.92717416411641 -1.59242751465147
 1 -1.25379821822182  3.90951810911091  0.26783482368237
 1 -2.49848933703370  4.65312772827283 -0.94786308000800
 1 -2.50744962536254  0.36443306880688 -0.91597632763276
 1  2.51337037913791  0.91879586878688 -0.50376739183918
 1  2.22047057475748 -2.78129453185319  0.78381676017602
 1  1.16506157745775 -2.53145243634363 -0.64914619971997
 1  2.67135988538854 -3.12797058425843 -1.09006324932493
 1  0.09717560246025  2.32909274897490 -0.60832782428243
 1 -0.03602649864987 -0.77360753055306 -0.51891254625463

