%nproc=4
%Mem=4GB
# td=(NStates=1) CAM-B3LYP/6-31G(d,p) 

TD

0 1
 8 -14.30353622882288 -1.93150153185319  0.26169642494249
 8  14.85994783158316  1.09823741034103 -0.33906331043104
 6 -11.82741560116012 -0.00949487458746  1.14198901890189
 6 -10.90697766026603  0.31939471047105 -0.08941522872287
 6 -12.20043552415241 -1.45607009140914  1.24604244554455
 6 -12.91864525802580 -1.99292035683568 -0.00989683878388
 6 -11.53109839873987 -0.33485096339634 -1.35463095299530
 6  11.19187251785178  0.93145478797880  0.95846612631263
 6 -10.98561003420342  0.37778951775178  2.53199024972497
 6 -13.11434759715972  0.98266391329133  1.04436551335134
 6  12.69553673417342  1.55488491499150  0.63792117831783
 6 -12.38667965386539 -1.35286315411541 -1.26250901960196
 6  13.56562818371837  0.56283395599560  0.08455577447745
 6  10.72340181448145 -0.09935934613461 -0.04123053795380
 6 -9.50561932583258 -0.11589443764376  0.15587559515952
 6  13.04876285388539 -0.15377259665967 -1.08848443474347
 6  11.61287437623762 -0.55850089538954 -1.01349640844084
 6  10.24587147274728  2.21279059105911  1.15517823122312
 6  11.24109494199420  0.28202737813781  2.33338389968997
 6 -10.98735323282328  0.25204684618462 -2.60818307650765
 6 -8.44225032533253  0.66772175457546 -0.05308893139314
 6  9.37086201550155 -0.38456623242324  0.09901998579858
 6  11.13580352585258 -1.63521648844884 -2.10785038973897
 6 -7.07132845574557  0.38267550935093 -0.00311240054005
 6  8.83599005540554 -1.60761055855586  0.06983184218422
 6 -6.64899632113211 -1.01851060796080  0.33490637923792
 6  7.43729221672167 -2.04430730273027  0.08149708740874
 6 -6.23723349934993  1.41233480798080 -0.28323017961796
 6  7.18770196439644 -3.54267798999900  0.24650486868687
 6  6.32817008600860 -1.20975126382638 -0.12933527592759
 6 -4.81057503120312  1.40776431563156 -0.31252216561656
 6  4.95975682158216 -1.55785362826283  0.04173639343934
 6 -4.04316568896890  2.53420644684468 -0.58213940294029
 6 -2.54315475357536  2.59503746134613 -0.57186993479348
 6  3.93453741924192 -0.65429593569357 -0.01519103550355
 6  2.50812786138614 -0.81827629912991  0.01810685808581
 6 -2.00750930113011  3.85410999359936 -0.83203235063506
 6 -1.79765685118512  1.48857160156016 -0.37826384278428
 6  1.77964650965097  0.27915947744774 -0.14591315321532
 6  1.91048436953695 -2.15294808210821  0.32529489738974
 6 -0.39071133003300  1.40017133843384 -0.34462782258226
 6  0.40531536233623  0.27597926572657 -0.07696095689569
 1 -11.00198694019402  1.32735452075208 -0.17203904910491
 1 -13.00805427852785 -1.64275428912891  2.10300819551955
 1 -11.30468813841384 -1.85144433943394  1.58681196379638
 1 -12.63829746334634 -3.25984509180918 -0.22932807070707
 1 -10.16931233253325 -0.33710203460346  2.66655527942794
 1 -10.83829399599960  1.60053313031303  2.63180790269027
 1 -11.70120771307131 -0.02412899389939  3.41115529332933
 1 -13.79462066386639  0.67891389368937  0.40206667696770
 1 -13.89634540514052  1.04240584798480  2.03288729072907
 1 -12.91667035243524  2.00217383918392  0.78644912821282
 1  12.35786315301530  2.23566851635164 -0.19284144094409
 1  13.07328175527553  2.25598963786379  1.57520512171217
 1 -12.93697717631763 -1.98287508400840 -2.08708289898990
 1  13.64382396719672 -0.17174692049205  1.08164850075007
 1 -9.40116248194819 -1.16053091209121  0.41404896489649
 1  13.59495463956396 -1.04220726002600 -1.32065722172217
 1  12.94263068056806  0.39603818171817 -2.20564048784878
 1  9.37323402100210  1.87901795359536  1.66727197459746
 1  10.09344120572057  2.51900450285029  0.24429134463446
 1  10.80816448974897  3.08421339303930  1.66821297229723
 1  12.05593843514352 -0.40069731833183  2.18676509790979
 1  10.24976994759476 -0.13433597459746  2.69883301140114
 1  11.43433433253325  0.90864866166617  2.97092203520352
 1 -9.83318581658166  0.49401931263126 -2.71564896059606
 1 -11.27708676497650  1.25554155265527 -2.66970403570357
 1 -11.30265811091109 -0.09723847514751 -3.45988374597460
 1 -14.92653592689269 -1.65626457905791 -0.61869007280728
 1  8.81532060006001  0.41284150935093  0.36081872807281
 1 -8.69298446734673  1.70433208600860 -0.38776409680968
 1  11.36193192769277 -2.65872736873687 -1.89333218471847
 1  9.92332519891989 -1.48316441814181 -2.27986392039204
 1  11.58752804650465 -1.32424551465147 -3.10454640274027
 1  15.44234341464146  1.44220232003200  0.37223519241924
 1  9.48755853215322 -2.55475855755576  0.09185274277428
 1 -5.53113757475748 -1.14865201590159  0.23566096289629
 1 -6.90974987308731 -1.25177715091509  1.63611586398640
 1 -7.05959219441944 -1.63577202540254 -0.29326754155415
 1 -6.65698798529853  2.37073586868687 -0.51078428012801
 1  6.80042359135914 -3.82236565916592  1.26666636233623
 1  6.42421976717672 -3.93223841164116 -0.28395798699870
 1  8.15828572597260 -4.04648083268327  0.06021298859886
 1  6.53079150605061 -0.20627786718672 -0.31464358625863
 1 -4.28350058165817  0.19774944014401 -0.23700975857586
 1  4.50509411291129 -2.61949120212021  0.51479381858186
 1 -4.65720176587659  3.45000298209821 -0.46825648114812
 1  4.20134021022102  0.55992333123312 -0.13902311971197
 1 -1.32015177337734  3.74667611431143 -1.91363963586359
 1 -1.38205104350435  4.35452260956096  0.01326936713671
 1 -2.73263275137514  4.65981839733973 -0.92991128482848
 1 -2.45757463786379  0.59312593809381 -0.40716544654466
 1  2.29677871997200  1.21611560076008 -0.63387040214021
 1  2.30901942964296 -2.60493689608961  1.31315969446945
 1  0.82406747804781 -2.14293358445845  0.52725144004401
 1  1.77363011241124 -3.11039882708271 -0.36903114611461
 1  0.16300218511851  2.37313715341534 -0.68841583308331
 1 -0.24063695969597 -0.63153332313231 -0.24356501150115

