%nproc=4
%Mem=4GB
# td=(NStates=1) CAM-B3LYP/6-31G(d,p) 

TD

0 1
 8 -14.27151302650265 -1.72990137183718  0.65347560286029
 8  14.81268310511051  0.95300288688869  0.43805440134013
 6 -11.79030188978898  0.05642171707171  1.39466428642864
 6 -10.90292725522552  0.36337910891089  0.05122883568357
 6 -12.09710519111911 -1.49051353575358  1.53157099839984
 6 -12.86177957145715 -2.00229129392939  0.39937408830883
 6 -11.67481277017702 -0.29372685098510 -1.05819130903090
 6  11.12692602320232  0.94656629912991  1.20707098679868
 6 -10.91602307550755  0.55166690549055  2.59608665936594
 6 -13.03178934133413  0.83621926882688  1.41466254305431
 6  12.47779495999600  1.52077150365037  1.02342972917292
 6 -12.35158614451445 -1.45614348214821 -0.93575634433443
 6  13.53048466936694  0.55585325792579  0.56911423032303
 6  10.66062553685369  0.04752534233423  0.06117970307031
 6 -9.48229699359936 -0.10969381758176  0.13878388598860
 6  13.10085806340634 -0.07282450185019 -0.77146273257326
 6  11.57913100190019 -0.33579862516252 -0.78586364516452
 6  10.08593547914792  2.15993530553055  1.24618733213321
 6  10.94053488598860  0.25270444584458  2.49621018231823
 6 -11.35090958845885  0.14345598709871 -2.48439069726973
 6 -8.56190229052905  0.76843182558256 -0.14241786428643
 6  9.27573250255026 -0.46376415221522  0.14173425722572
 6  11.13762370787079 -1.19617258405841 -2.04660426512651
 6 -7.08525984888489  0.48678592039204 -0.03974606390639
 6  8.87053350975098 -1.69331912941294  0.01540639963996
 6 -6.71763318481848 -0.97276603350335  0.36118900750075
 6  7.44979346684668 -2.18321119311931 -0.07459852215222
 6 -6.19832960896090  1.44635821032103 -0.46540839743974
 6  7.28158135233523 -3.59580330253025 -0.12521230303030
 6  6.34181145014501 -1.22694298299830 -0.21624396679668
 6 -4.66137011071107  1.43226676587659 -0.33386429982998
 6  5.00402124802480 -1.64860270317032 -0.35746352655266
 6 -3.92896426882688  2.56726975317532 -0.73201439043904
 6 -2.50347078517852  2.57483544114411 -0.89240198799880
 6  3.97568153365337 -0.68789929602960 -0.50414993139314
 6  2.65056210481048 -0.90331480298030 -0.46304125672567
 6 -1.93767231743174  3.88473305590559 -1.30599974737474
 6 -1.74124120962096  1.43924666906691 -0.80667668406841
 6  1.80021856685669  0.08794035553555 -0.70794935683568
 6  2.17124044514451 -2.28220100740074 -0.24688232033203
 6 -0.40708296719672  1.36775809710971 -0.84767812761276
 6  0.33981881268127  0.19070073787379 -0.61448470927093
 1 -10.94377111861186  1.50267205250525 -0.20799264446445
 1 -12.45711918501850 -1.61213122682268  2.41191908660866
 1 -11.19339700930093 -1.85309450445045  1.45448873147315
 1 -12.72351598519852 -3.04397350465046  0.24736959905991
 1 -10.02457785908591 -0.17747607200720  2.46478510241024
 1 -10.72965313191319  1.50401347834783  2.33164788668867
 1 -11.55666325862586  0.57544096309631  3.48281245904590
 1 -13.71863306510651  0.38172417471747  0.57119358965897
 1 -13.37767353795379  0.90421202860286  2.39444344634463
 1 -12.67923660906091  1.83223684548455  1.17332781608161
 1  12.53108047474747  2.42514746424642  0.29950779397940
 1  12.92647707480748  1.93535757465747  2.04074167536754
 1 -12.74930840944094 -1.98079487598760 -1.74143833453345
 1  13.39252883768377 -0.35860560636064  1.33352368826883
 1 -9.17106947264726 -1.15175003400340  0.29858741874187
 1  13.57425256935693 -1.05891893119312 -0.89265442144214
 1  13.33373979147915  0.62483106100610 -1.56243616741674
 1  8.96009270687069  2.10346039783978  1.64172942034203
 1  9.89376123772377  2.65627823022302  0.27027394289429
 1  10.58763243654365  3.14972994469447  1.90510666166617
 1  11.56700954225423 -0.74928217681768  2.45747216861686
 1  9.85513048364836  0.17022448144814  2.73729685778578
 1  11.02407330643064  0.98025582238224  3.45950089308931
 1 -10.37660015801580  0.23498340904090 -2.57677507320732
 1 -11.86299535583558  1.15010100860086 -2.60811787708771
 1 -11.79467731283128 -0.73576232753275 -3.26601435903590
 1 -14.62228550185018 -2.14283323592359 -0.14667287108711
 1  8.57308637663766  0.29436966216622  0.60353299949995
 1 -8.82533770267027  1.84554620742074 -0.39338465886589
 1  11.30184591909191 -2.20572206820682 -2.03358621012101
 1  10.07089995639564 -1.18024412611261 -2.13577951195120
 1  11.44670396409641 -0.49765285538554 -2.87312326042604
 1  14.89134831513151  1.28060616041604  1.58948691759176
 1  9.53840361666167 -2.50879396109611 -0.08101454395440
 1 -5.61808626962696 -1.19547669836984  0.17966536333633
 1 -7.10332923102310 -1.16923889708971  1.41257350975098
 1 -7.30328656385639 -1.57752620082008 -0.36556477127713
 1 -6.74685697219722  2.48268706380638 -0.94683788548855
 1  6.95198874787479 -4.13344676727673  0.95356505220522
 1  6.51258860406041 -3.72656784458446 -0.93485307650765
 1  8.22649254665467 -4.07192337693769 -0.40092312501250
 1  6.46256468336834 -0.26753399279928 -0.47194931683168
 1 -4.19479171077108  0.51672133733373  0.04933887628763
 1  4.67817142064206 -2.67572682568257 -0.24779244004400
 1 -4.45910195589559  3.56838482028203 -0.87767742324232
 1  4.48739881608161  0.41952929182918 -0.60140935833583
 1 -1.89169892809281  3.80939238593859 -2.47711598349835
 1 -0.80862370077008  4.12797995529553 -0.74734669446945
 1 -2.74898438653865  4.71027344284428 -0.94592288598860
 1 -2.25721460186019  0.42552917841784 -0.31323605360536
 1  2.37258630073007  1.03184717391739 -0.85459247434743
 1  2.05993452115212 -2.60529693209321  0.94137251575157
 1  1.10190526182618 -2.38994828592859 -1.08399968506851
 1  2.81323407280728 -3.02381016821682 -0.66120036303630
 1  0.30482636753675  2.27210705040504 -0.83601059255926
 1 -0.28609150515051 -0.66558672847285 -0.52381303630363

