%nproc=4
%Mem=4GB
# td=(NStates=1) CAM-B3LYP/6-31G(d,p) 

TD

0 1
 8 -14.07847372257226 -2.03589197089709  0.54583483878388
 8  14.82305414221422  0.92313990059006  0.15782637853785
 6 -11.75611847144715  0.07432350725073  1.19756457645765
 6 -10.99158612111211  0.32156492749275 -0.04508079527953
 6 -12.01460694129413 -1.43783826822682  1.35857369866987
 6 -12.71908530203020 -2.15546661146115  0.20939509040904
 6 -11.56944223312331 -0.42507998629863 -1.27398288818882
 6  11.10757408800880  1.07966960946095  0.93231351105111
 6 -10.94541601480148  0.44219595839584  2.47450450115012
 6 -13.05168133053305  0.95455110201020  1.25093617041704
 6  12.40241742224222  1.59239866636664  0.62744013021302
 6 -12.27585857175718 -1.54304217201720 -1.15853862256226
 6  13.44039566046605  0.47650532313231  0.29000631953195
 6  10.66146562086209 -0.00252966316632 -0.05292170707071
 6 -9.50840960486049 -0.03350619881988 -0.03338333073307
 6  12.95589356695669 -0.10791801120112 -1.02106769306931
 6  11.50834392319232 -0.53441848714871 -0.94695975477548
 6  10.06720360596060  2.24086339833983  0.92547526092609
 6  10.99111994449445  0.41461063646365  2.42691325262526
 6 -11.28163266076608  0.16464810631063 -2.69129138733873
 6 -8.44518061836184  0.86764174657466 -0.16556017851785
 6  9.29720464976498 -0.58240601640164  0.06792687648765
 6  11.16472641814181 -1.61134410121012 -2.08504810951095
 6 -7.10359168206821  0.48256549834984 -0.12190427972797
 6  8.82218867526753 -1.70340013751375 -0.00206534753475
 6 -6.63684510601060 -0.88624738163816  0.14482737133713
 6  7.43165165266527 -2.16688956095610  0.17598653635364
 6 -6.18994877087709  1.53684725922592 -0.33013487008701
 6  7.20138333253325 -3.69394311651165  0.22829304750475
 6  6.42033930293029 -1.32169245794579 -0.04258660106011
 6 -4.75791976567657  1.44260779998000 -0.30942185558556
 6  4.95620646654665 -1.62830067296730 -0.00439822002200
 6 -4.01705307770777  2.57910093629363 -0.43476466546655
 6 -2.56996743484348  2.67451540914091 -0.43207595539554
 6  4.01923588908891 -0.65373587968797 -0.21821133753375
 6  2.62771982058206 -0.86839131063106 -0.21029598219822
 6 -1.84612316251625  3.96724130673067 -0.75270441784178
 6 -1.72929001450145  1.48392113651365 -0.41133715011501
 6  1.77434597959796  0.28405996749675 -0.39250781268127
 6  2.08654197529753 -2.18895168246825  0.00219258715872
 6 -0.44785704460446  1.52048336963696 -0.58428178797880
 6  0.30982581338134  0.35816748454845 -0.42640590139014
 1 -10.95280202170217  1.27879966526653 -0.06559840504050
 1 -12.70308378147815 -1.53872388608861  2.39843773847385
 1 -11.11435910551055 -2.19226842184218  1.67922120472047
 1 -12.44366800040004 -3.13192229952995  0.02213707580758
 1 -10.07924332563256  0.15776745234523  2.54958358225823
 1 -10.76495666226623  1.47431050805081  2.47229195109511
 1 -11.50451804410441 -0.11459804080408  3.22907708550855
 1 -13.79442064386439  0.54257025932593  0.63768023832383
 1 -13.60673644424443  0.84739634703470  2.13132713471347
 1 -12.82818150355035  1.90687430923092  1.14030451375138
 1  12.43411077777778  2.33122807230723 -0.16668882568257
 1  12.94568899599960  2.08846288518852  1.59636723792379
 1 -12.89548302690269 -1.79092588908891 -2.02002619331933
 1  13.31438102290229 -0.31913165896590  0.99511984788479
 1 -9.26852921862186 -1.00508536753675  0.36456401640164
 1  13.71080622472247 -0.93915695499550 -1.52970812681268
 1  12.85026144364436  0.73905248314831 -1.76420634443444
 1  9.23110980858086  2.11206125792579  1.46716196359636
 1  9.79140100170017  2.50355295769577 -0.04800788528853
 1  10.50877455075508  3.16973194489449  1.51872802380238
 1  11.61394423572357 -0.46180342894289  2.43471989338934
 1  9.86746171677168  0.07977543654365  2.85429855795580
 1  11.35903680278028  1.11521931873187  3.21965690869087
 1 -10.23700619861986  0.21575148584859 -2.97601499719972
 1 -11.56759581588159  1.32457845634563 -2.69414647994799
 1 -11.89424726982698 -0.25060381168117 -3.48051580918092
 1 -14.81806507980798 -2.04234318691869 -0.19455765956596
 1  8.50735980398040  0.37455768096810  0.50124277047705
 1 -8.67007217611761  2.01153280608061 -0.40540586098610
 1  11.48121385588559 -2.74992648864886 -1.97537038853885
 1  10.08009087548755 -1.34231033273327 -2.24943087708771
 1  11.67922721642164 -1.31100419051905 -3.06449239733973
 1  15.09882906320632  1.44599269906991  0.97356532543254
 1  9.45769554585459 -2.66507958965897 -0.26100254275428
 1 -5.59488394939494 -0.93648079877988  0.45600299709971
 1 -7.29734863296330 -1.43644561776178  0.86452870527053
 1 -6.60304653985399 -1.54724317251725 -0.94223243804380
 1 -6.46904919141914  2.59535833093309 -0.56342954465447
 1  6.56258980798080 -3.97264068666867  1.17597729342934
 1  6.43456080128013 -4.15579076687669 -0.49542913411341
 1  8.04288418581858 -4.34994117871787  0.50485745304531
 1  6.52158058495850 -0.18316555595560  0.10372825092509
 1 -4.37232946454645  0.40968063326333 -0.34022007960796
 1  4.78597220072007 -2.70895014801480  0.25416775597560
 1 -4.50078612431243  3.54669265106511 -0.37266692219222
 1  4.14725480168017  0.47530486938694 -0.24026324372437
 1 -1.59609936813681  3.91003244994499 -1.81185945784578
 1 -0.94102694109411  4.20255741304130 -0.26983894369437
 1 -2.65651513961396  4.80003241874187 -0.62668096179618
 1 -2.27665654605461  0.47051367686769 -0.29949467946795
 1  2.31638068016802  1.20476446564656 -0.59632664776478
 1  2.37670619831983 -2.62138854125413  1.01237961646165
 1  1.12297736903690 -2.11063035413541 -0.13413469856986
 1  2.49733248264827 -2.84114190139014 -0.87145138813881
 1  0.13033891879188  2.44828466816682 -0.73560055155516
 1 -0.25290818681868 -0.46054622442244 -0.11084173917392

