%nproc=4
%Mem=4GB
# td=(NStates=1) CAM-B3LYP/6-31G(d,p) 

TD

0 1
 8 -14.17268314351435 -2.03002138383838  0.37467772307231
 8  14.83998583538354  0.85269285588559 -0.00585999009901
 6 -11.77564042364236  0.09109518441844  1.28017283728373
 6 -11.00001696419642  0.35015778677868  0.00614432723272
 6 -12.17392287288729 -1.30919540394039  1.35862370367037
 6 -12.71862525602560 -2.16009707450745  0.23421757265727
 6 -11.64214950385039 -0.35313279157916 -1.18913440334033
 6  11.09204253485349  0.89607124962496  1.14636491619162
 6 -11.08687016021602  0.66281802060206  2.54285133583358
 6 -13.17375353775378  0.78718436533653  1.23975505230523
 6  12.62064924542454  1.44530395689569  0.81173856005601
 6 -12.29355034093409 -1.57258512631263 -1.11535430413041
 6  13.50665228612861  0.41905957855786  0.27210452935294
 6  10.69835931023102 -0.01819122932293  0.02057564266427
 6 -9.57653641754175 -0.15503835203520  0.02369237683768
 6  12.95028300590059 -0.08282550195019 -1.02180776707671
 6  11.46870995979598 -0.49639468476848 -0.93175823462346
 6  10.21198808440844  2.16587589958996  1.25841855525553
 6  11.26077691019102  0.17211638703870  2.44779534083408
 6 -11.29884438193819  0.28872051355136 -2.49925218341834
 6 -8.57466356665667  0.80258524092409 -0.14288791129113
 6  9.31278620792079 -0.34247202300230  0.09396948074807
 6  11.11787173267327 -1.35072803960396 -2.10080968566857
 6 -7.11603292619262  0.48650589238924 -0.01083317261726
 6  8.80563702010201 -1.64930472797280 -0.02992813381338
 6 -6.68382980448045 -0.91426018291829  0.23838672727273
 6  7.47891637913791 -2.10239311131113  0.03924286198620
 6 -6.19378915491549  1.41026460096010 -0.27368922552255
 6  7.16489968416842 -3.49072279447945  0.27880809900990
 6  6.40690795979598 -1.17594788348835 -0.18763110551055
 6 -4.78574254795480  1.36604014321432 -0.23841475487549
 6  5.03416426232623 -1.45312315521552 -0.13191097129713
 6 -4.05926729912991  2.52548557475748 -0.57966915591559
 6 -2.56915735383538  2.54075203280328 -0.73876662446245
 6  3.99900386588659 -0.51446195229523 -0.32383189958996
 6  2.63635068366837 -0.75834030553055 -0.24923987658766
 6 -1.90798934913491  3.86644122672267 -1.13380252765277
 6 -1.74555164066407  1.51994473887389 -0.46276229262926
 6  1.73751229622962  0.22997455895590 -0.32087064896490
 6  2.17110043114311 -2.23365615291529  0.07576994489449
 6 -0.40473273217322  1.42163348464846 -0.67634099389939
 6  0.37571240204020  0.27426909470947 -0.36393965476548
 1 -11.23719046054605  1.50110189548955 -0.29097094229423
 1 -12.71225469856986 -1.67003701740174  2.14184207890789
 1 -11.09363703330333 -1.66069526452645  1.30605388798880
 1 -12.43622725632563 -3.16692579987999  0.29324418651865
 1 -10.04781018231823  0.35442711831183  2.66519514341434
 1 -10.87656782338234  1.67551062806281  2.35444016591659
 1 -11.62175976827683  0.27256067506751  3.43347752555255
 1 -13.68592979477948  0.69429543184319  0.20053652395240
 1 -13.97086285688569  0.25005661306131  1.96521052305231
 1 -13.07026571197120  1.92556617841784  1.39732021532153
 1  12.46119348604861  2.37120206970697  0.17678552175218
 1  13.12439686678668  2.00246428532853  1.62649025022502
 1 -12.45999947854786 -2.24204100060006 -1.89732392309231
 1  13.78054763956396 -0.51318106390639  0.90383071897190
 1 -9.34393675937594 -1.25044990399040  0.23816137613761
 1  13.73975912001200 -1.03630666996700 -1.25350050605061
 1  13.27868428592859  0.64047262516252 -1.80422034583458
 1  9.01799849744975  1.84578463026303  1.65027027442744
 1  10.22038389999000  2.52546514891489  0.24531144664466
 1  10.48456212951295  3.02661763346335  1.88310446144614
 1  11.57511035233523 -0.83220046864686  2.22180860226023
 1  10.22469744034403 -0.01814435543554  2.72534566266627
 1  11.53090398949895  1.05202299909991  3.43066800980098
 1 -10.18724122212221  0.51139104980498 -2.35414280998100
 1 -11.95949500580058  1.12781878037804 -2.80674774007401
 1 -11.47626547164716 -0.47789654095409 -3.30387814541454
 1 -14.51693496679668 -2.24007295989599 -0.59761796559656
 1  8.57201626962696  0.50920114531453  0.45919856605661
 1 -8.74381955085509  1.93330498329833 -0.29993531393139
 1  11.43054878937894 -2.34480597659766 -1.95642849434944
 1  10.13638650505051 -1.36662276397640 -2.25867180118012
 1  11.56452574627463 -0.97691078117812 -3.05641158925893
 1  15.28267744804480  1.20450855065506  0.76641461036104
 1  9.54260403670367 -2.54908799049905  0.14775833333333
 1 -5.50197465846585 -1.14806195689569  0.28524592139214
 1 -7.05738463656366 -1.32197417061706  1.21949420182018
 1 -7.01472770797080 -1.37031547974797 -0.63700191499150
 1 -6.51618390489049  2.46821561666167 -0.41314451615162
 1  6.47855140414041 -3.64620804340434  1.22172186788679
 1  6.50422776797680 -3.81124631243124 -0.76969656085609
 1  8.11135103250325 -4.12672885748575  0.43657062436244
 1  6.80968939583958 -0.21462870227023 -0.18277039893989
 1 -4.15451768336834  0.51985165036504 -0.08389444704470
 1  4.78694229772977 -2.54583383638364 -0.07203486428643
 1 -4.53145919161916  3.57524550635063 -0.72914256975698
 1  4.37246732293229  0.57705504440444 -0.37594681208121
 1 -1.28104786298630  3.83391483818382 -2.17200547244724
 1 -1.24808764716472  4.26296345364536 -0.48057001680168
 1 -2.63920340844084  4.70070248574858 -1.28885717941794
 1 -2.35564444484448  0.60575720122012 -0.18129285928593
 1  2.44981402350235  1.22062605180518 -0.47242425752575
 1  2.29474800250025 -2.34586098849885  1.02994137263726
 1  1.10063513481348 -2.29946923802380  0.09430814571457
 1  2.53059580898090 -3.00817860506051 -0.50015425842584
 1  0.22024790969097  2.25530537023702 -0.81912890439044
 1  0.00202730673067 -0.79876004580458 -0.30596125112511

