%nproc=4
%Mem=4GB
# td=(NStates=1) CAM-B3LYP/6-31G(d,p) 

TD

0 1
 8 -14.24363023822382 -1.82456083778378  0.53009326462646
 8  14.77460929772977  1.17315490209021  0.10014060996100
 6 -11.77569042864286  0.15805188008801  1.23439825982598
 6 -11.01264822732273  0.30004277527753 -0.08495478267827
 6 -12.06058153875388 -1.32437692209221  1.36526436773677
 6 -12.81625501900190 -1.93621468626863  0.18411256215622
 6 -11.61788707760776 -0.34690216851685 -1.26213170307031
 6  11.12833616421642  0.95840748324833  1.02766304600460
 6 -11.09860133333333  0.59216095489549  2.44822187288729
 6 -13.17947410981098  0.91751739863986  1.23932500930093
 6  12.43358053855385  1.69628905540554  0.80331771797180
 6 -12.46099708560856 -1.41012888068807 -1.14939770847085
 6  13.46386800770077  0.55353302590259  0.27459477837784
 6  10.73402287658766 -0.06254566476648 -0.05444185908591
 6 -9.52749151305131 -0.06887973617362 -0.01205119751975
 6  13.04752272987299 -0.02251947134713 -0.96182176847685
 6  11.50744383318332 -0.43984903020302 -0.95072013081308
 6  10.18619550515051  2.26978629062906  0.98913162656266
 6  10.95117595009501  0.40479965536554  2.33541410271027
 6 -11.28166266376638  0.18462010351035 -2.51682394059406
 6 -8.45114121442144  0.76570155255526 -0.08637225972597
 6  9.34244917421742 -0.45928370417042  0.14282436623662
 6  11.17845779127913 -1.39286225302530 -2.05676528122812
 6 -7.10674199709971  0.41552879467947 -0.14591668096810
 6  8.87151360776078 -1.77259705720572  0.03759861886189
 6 -6.75212663416342 -0.98835759265927  0.03602649124913
 6  7.52298078557856 -2.19625249724972  0.05271420912091
 6 -6.21415119111911  1.48892246674667 -0.31180303690369
 6  7.19368256245625 -3.68507222942294  0.18424864306431
 6  6.44087135613561 -1.33890417911791 -0.16127847024702
 6 -4.76847082078208  1.33475701490149 -0.43227414081408
 6  5.03087393329333 -1.70137798069807 -0.07839561976198
 6 -4.00159153155316  2.48106113231323 -0.54143533253325
 6 -2.56322676077608  2.50840879847985 -0.59524227202720
 6  4.13656762226223 -0.74345485158516 -0.26219573597360
 6  2.68731578017802 -0.89970444194419 -0.17158211081108
 6 -1.89973852405241  3.81813639623962 -0.81739088648865
 6 -1.73046013151315  1.38200094449445 -0.37871388778878
 6  1.75974451945195  0.19051061256126 -0.32243080498050
 6  2.17376069716972 -2.23929671697170 -0.03810144224422
 6 -0.31584384328433  1.32522384368437 -0.39245260506051
 6  0.45518034883488  0.18953062086209 -0.28258151895190
 1 -11.03535027652765  1.45538732403240 -0.41165301050105
 1 -12.70456392949295 -1.40979099279928  2.39871776647665
 1 -11.12763043264326 -1.98929812481248  1.59023230583058
 1 -12.67351098469847 -2.95404451175117  0.20733559565957
 1 -10.01432683398340  0.13819549514952  2.35269389328933
 1 -10.91827199379938  1.63021609860986  2.40678540044004
 1 -11.72487007930793  0.35333875287529  3.30824500230023
 1 -13.62562376417642  0.77034303660366  0.42496896719672
 1 -13.86814258485849  0.50686229362936  2.12414641664166
 1 -12.88091677707771  1.91115473727373  1.61698218151815
 1  12.47547491419142  2.57550249974998  0.06606444964496
 1  12.92272669976998  2.34570860976098  1.63248084928493
 1 -12.87540101870187 -1.66505330183018 -2.06655084578458
 1  13.51703128792879 -0.18741848764876  0.88680901680168
 1 -9.17611997769777 -1.03387824682468  0.22290985098510
 1  13.56443158725873 -0.84192723202320 -1.64196935293529
 1  12.95879229672967  0.87764634253425 -1.81224114791479
 1  9.28746544414441  2.00134018581858  1.15881112851285
 1  10.06786864846485  2.74769737213721  0.11726864236424
 1  10.53500717401740  3.07617258895890  1.63005915691569
 1  11.79595243654366 -0.29839708830883  2.52313873527353
 1  9.99763473407341 -0.20668320932093  2.38428155625563
 1  11.02011291039104  1.16656445324532  3.11550649364937
 1 -10.25983848184819  0.24996490719072 -2.49824722042204
 1 -11.82957201350135  1.24644064256426 -2.83779084438444
 1 -11.62211005610561 -0.42034078537854 -3.39867762536254
 1 -14.52782605590559 -1.91021997459746 -0.35919412321232
 1  8.66998606660666  0.15163538873887  0.56323897009701
 1 -8.86360152905291  1.86873852665267  0.01617629722972
 1  11.45912164666467 -2.41039253525353 -1.68170102160216
 1  10.08117098349835 -1.43265936763676 -2.37339327332733
 1  11.68588788248825 -1.18668175827583 -2.98461440954095
 1  15.05918509880988  1.26131423122312  0.88332630153015
 1  9.57908768506851 -2.48341142284228 -0.22163860636064
 1 -5.57840230123012 -1.19375652635264 -0.12980558375838
 1 -7.11181007910791 -1.24062603580358  1.00159241164116
 1 -7.12039827502750 -1.74087253545355 -0.67953616841684
 1 -6.57449973647365  2.40024881998200 -0.09632283398340
 1  6.81895544454445 -3.76929035163516  1.20994068976898
 1  6.28752609780978 -3.87943313111311 -0.39971956315632
 1  8.02958285568557 -4.28571475607561 -0.01905493819382
 1  6.71958038493849 -0.35723296269627 -0.43860598249825
 1 -4.30157238883888  0.32083174837484 -0.32482854045405
 1  4.75796940044004 -2.69758901190119  0.14526686588659
 1 -4.60458650435043  3.37155513731373 -0.68594825032503
 1  4.41511158735874  0.32376971587159 -0.51239045644564
 1 -1.33298305650565  3.80417186388639 -1.63331160306031
 1 -1.28715155355536  3.94646180348035  0.16024406460646
 1 -2.61641112921292  4.47545996149615 -0.92338063176318
 1 -2.10587946834684  0.42647927342734  0.05420069006901
 1  2.13515255735574  1.16654064326433 -0.44176119121912
 1  2.58068659635964 -2.74959136153615  0.99491787028703
 1  1.05688075937594 -2.46721601270127  0.14764347924792
 1  2.34982773217322 -2.89503729092909 -0.82533677667767
 1  0.22269815471547  2.29767960766077 -0.98377536903690
 1  0.00159726372637 -0.77571774157416  0.01445079007901

