%nproc=4
%Mem=4GB
# td=(NStates=1) CAM-B3LYP/6-31G(d,p) 

TD

0 1
 8 -14.17734360956096 -2.03246162786279  0.58706896219622
 8  14.87394923172317  0.77552513911391  0.23609420532053
 6 -11.79407226682668  0.01497757265727  1.27711253125313
 6 -11.03068003050305  0.34728749974998 -0.02541882908291
 6 -11.93219870047005 -1.55883036743674  1.33076091739174
 6 -12.76571996549655 -2.08062912771277  0.14371852275228
 6 -11.60787607650765 -0.30704818311831 -1.20012550245024
 6  11.10359368996900  1.05640728322832  1.04453473317332
 6 -10.99071054425442  0.44502624142414  2.47900495119512
 6 -13.18422458485849  0.67975362226223  1.33625470227023
 6  12.58554573507351  1.58466789328933  0.79383676987699
 6 -12.44031501740174 -1.34926279407941 -1.10283305200520
 6  13.48008962986299  0.44783245584558  0.39056637553755
 6  10.74196367066707 -0.02939234943494 -0.04373078797880
 6 -9.55991475537554 -0.07481032923292 -0.00357034943494
 6  13.11821979957996 -0.13337055645565 -0.92453804010401
 6  11.63729681848185 -0.48673371867187 -0.91940699949995
 6  10.21312819841984  2.30535984798480  0.88293100650065
 6  11.07424825732573  0.51031020642064  2.45091565286529
 6 -11.39484398189819  0.47211885338534 -2.47064932313231
 6 -8.55152125242524  0.83398838123812 -0.15890951345135
 6  9.35738066736674 -0.49302707850785 -0.06739665586559
 6  11.25296524202420 -1.46469943674367 -2.09972957765777
 6 -7.05683700660066  0.51605884768477 -0.10496258555856
 6  8.72022847924793 -1.77055685318532 -0.08978411941194
 6 -6.62242366386639 -0.93790254715472 -0.00660777217722
 6  7.36551503900390 -2.19252212421242 -0.10231129342934
 6 -6.25890566656666  1.48810238473847 -0.31841369796980
 6  7.22440563476348 -3.76084980718072  0.27755797399740
 6  6.35523279227923 -1.27633792249225 -0.11812415481548
 6 -4.83482745644564  1.40384392359236 -0.43111402480248
 6  4.92470331623162 -1.53924176707671 -0.07918569876988
 6 -4.06715808820882  2.53129615581558 -0.53537472647265
 6 -2.56386682478248  2.45620357795780 -0.71003375117512
 6  4.00174413991399 -0.53051355745575 -0.29590910731073
 6  2.58494554315432 -0.73770824232423 -0.08868382098210
 6 -1.87811636183618  3.76999158175818 -0.96298544594459
 6 -1.80688777427743  1.39310205460546 -0.48985500190019
 6  1.78781732673267  0.39890145164516 -0.45417397929793
 6  2.06204952605261 -2.06339912721272  0.27782014991499
 6 -0.42123438233823  1.43048436973697 -0.61420478027803
 6  0.37710254105411  0.33596526432643 -0.34222748354836
 1 -11.16114285578558  1.51919370467047 -0.23523536873687
 1 -12.70257373047305 -1.91196120982098  2.15156305100510
 1 -10.99932760236024 -2.14918411341134  1.60580386298630
 1 -12.41940557415742 -3.11577068436844 -0.01690682858286
 1 -10.11241664296430  0.07565924152415  2.56141476537654
 1 -10.55419558615861  1.57021009800980  2.42929765166517
 1 -11.44491208350835  0.38508192719272  3.61580575837584
 1 -13.74742594439444  0.41486748904891  0.48286475677568
 1 -13.85550132073207  0.55771737913791  2.03110711271127
 1 -13.12505119051905  1.84374799659966  1.36722720602060
 1  12.54035140184018  2.30503545304530 -0.00181233803380
 1  12.88794322142214  2.03316735563556  1.76113371457146
 1 -12.74774825342534 -1.65511230773077 -2.11292548324832
 1  13.61799138393839 -0.12953269906991  1.29594993089309
 1 -9.45844821052105 -1.13581844084408  0.28443600360036
 1  13.67943308740874 -1.16280932023202 -1.11615677167717
 1  13.36962337983798  0.43453203110311 -1.68757868166817
 1  9.25043174077408  2.14129418121812  1.33777902530253
 1  10.26613847544754  2.70501310371037 -0.30848393289329
 1  10.44841851515151  3.16605157685769  1.51208735973597
 1  11.86473931523152 -0.17019426802680  2.82510893229323
 1  10.10067503810381  0.01754921392139  2.78152128022802
 1  11.11280217931793  1.37446524332433  3.12648759175918
 1 -10.28150064806481  0.89307921862186 -2.49076647234723
 1 -11.86235529182918  1.28246424492449 -2.63292035733573
 1 -11.57532537763776 -0.25685443674367 -3.29304706230623
 1 -14.75680895419542 -2.11156010861086 -0.28698690249025
 1  8.60217928592859  0.26856708190819 -0.05338269206921
 1 -8.75101026992699  2.05477713051305 -0.10340566096610
 1  11.48120385488549 -2.55983747974797 -1.96730958245825
 1  10.16598946534653 -1.38979508120812 -2.32683861786179
 1  11.87922721642164 -1.17914100420042 -3.00905685378538
 1  15.33002218251825  0.89281738153815  1.07090505940594
 1  9.17225700200020 -2.59005208690869 -0.28912535503550
 1 -5.70160462146215 -1.26970412111211  0.29473687048705
 1 -7.18813771187119 -1.31271324452445  0.92925517791779
 1 -7.01165740094009 -1.52091053925393 -0.81932014681468
 1 -6.58683096959696  2.50020881598160 -0.02784598629863
 1  6.74891844084408 -3.57029045164516  1.27374707040704
 1  6.41827917311731 -4.21033622142214 -0.44947453865387
 1  8.18559845724572 -4.23622980758076  0.39384635193519
 1  6.55486391329133 -0.24219145854585 -0.11103322522252
 1 -4.56771900350035  0.40410007520752 -0.43520957855786
 1  4.54982858635864 -2.52854210721072  0.03772611181118
 1 -4.32005805150515  3.61604958675868 -0.70695035053505
 1  4.50878095429543  0.50083742264226 -0.36340555795580
 1 -1.36480623882388  3.73190463716372 -1.83808208010801
 1 -1.24070690909091  3.89777693499350 -0.11856381618162
 1 -2.69254874297430  4.70402281778178 -0.74425271897190
 1 -2.27341622202220  0.35916254175418 -0.15644037403740
 1  2.36262530463046  1.31784577377738 -0.80074708980898
 1  2.48758728642864 -2.35421182358236  1.08167654615462
 1  1.12564763606361 -2.24578386948695  0.12225093999400
 1  2.56442919231923 -2.64787257445745 -0.52951719471947
 1  0.24597048194820  2.51125096479648 -0.65404239573957
 1  0.01462856685669 -0.70751092089209  0.00894023902390

