%nproc=4
%Mem=4GB
# td=(NStates=1) CAM-B3LYP/6-31G(d,p) 

TD

0 1
 8 -14.21301717691769 -1.78337671937194  0.43407366266627
 8  14.79195103190319  1.08892647924792  0.20371096699670
 6 -11.74392725232523  0.03558963386339  1.33785860586059
 6 -11.01849881238124  0.27931070207021 -0.02797908510851
 6 -12.05134061466147 -1.51979646404640  1.44006184748475
 6 -12.80492388588859 -2.00040110491049  0.30922507340734
 6 -11.63190847974797 -0.40951843014301 -1.25086057595760
 6  11.12116544714471  0.90733237573757  1.10129040874087
 6 -10.84350582378238  0.53090482928293  2.49695674637464
 6 -13.08918508090809  0.90237588448845  1.35734681148115
 6  12.44274145464546  1.51998142464246  0.78909629582958
 6 -12.39334031993199 -1.48691655945595 -1.06554932363236
 6  13.43992561346135  0.50468814141414  0.28297561646165
 6  10.70706018031803 -0.13043245344534  0.05591917701770
 6 -9.46153491739174 -0.08375122332233 -0.04374436683668
 6  12.99618759635963 -0.00632785218522 -1.05961154745475
 6  11.51881497029703 -0.44838988428843 -0.93941900070007
 6  10.07485437103710  2.10045935793579  1.24503721712171
 6  11.13893472597260  0.17634681008101  2.47340790209021
 6 -11.30195469296930  0.17105874737474 -2.54600685888589
 6 -8.53984008430843  0.83670865326533 -0.10126374887489
 6  9.31736666596660 -0.47187496329633  0.11799188298830
 6  11.18614856035603 -1.19868283508351 -2.10932053675368
 6 -7.09215053795380  0.41153839563956 -0.11976406570657
 6  8.88177463386339 -1.74759455695570 -0.11722686368637
 6 -6.66702812431243 -0.96425518241824  0.24463735233523
 6  7.41247973547355 -2.12719559155916 -0.11055211751175
 6 -6.20238001400140  1.46143971847185 -0.25286714331433
 6  7.15060825502550 -3.59002272447245  0.19813003120312
 6  6.43107037603760 -1.22434272297230 -0.19635197759776
 6 -4.74247822152215  1.40666420562056 -0.45367628102810
 6  5.04823566946695 -1.51764960786079  0.00807302710271
 6 -3.92400377277728  2.56873990019002 -0.58887007600760
 6 -2.55172561066107  2.52234019161916 -0.75788853665367
 6  3.95057902340234 -0.63551405750575 -0.22451196759676
 6  2.58037508610861 -0.81681615311531 -0.22597755035504
 6 -1.94756330653065  3.87051163376338 -1.16951609900990
 6 -1.73029011451145  1.49535227962796 -0.57525354175418
 6  1.74166271127113  0.23335489698970 -0.41435999789979
 6  2.06121944304430 -2.23144593189319  0.09248161606161
 6 -0.30269252815282  1.45364668596860 -0.52355571537154
 6  0.31541637243724  0.22547421522152 -0.42686594739474
 1 -10.95128186968697  1.36128791409141 -0.24127597279728
 1 -12.52882635573557 -1.59425943964396  2.44813270797080
 1 -11.08685635523552 -1.84598379337934  1.32237552015202
 1 -12.53939757335734 -2.99726883418342  0.20585544764476
 1 -9.91739714101410 -0.04039236363636  2.66752537643764
 1 -10.69550971757176  1.57107018401840  2.24892961486149
 1 -11.56432402470247  0.48648206720672  3.49653383118312
 1 -13.73179438123812  0.85472147444745  0.31004747504750
 1 -13.80117588818882  0.57144875227523  2.02229623162316
 1 -12.78782746814681  2.03117673947395  1.52550303360336
 1  12.19429679637964  2.14919986948695 -0.13899605640564
 1  12.62939736683668  2.17585162406241  1.65638323952395
 1 -13.00091356995700 -2.06465326182618 -1.90979517021702
 1  13.19925951075108 -0.26276602240224  1.00751108700870
 1 -9.19668203390339 -1.30226508550855  0.02521008100810
 1  13.61364650875088 -1.00565360466047 -1.38241339733973
 1  13.15385180268027  0.80235881378138 -1.62194211801180
 1  9.09796649424942  1.70310036183618  1.65692093949395
 1  10.02162402400240  2.25674827722772  0.20560747624762
 1  10.62287596089609  3.00843581528153  1.87680383138314
 1  11.75632847414742 -0.72321957055706  2.32121854325433
 1  10.18920389098910 -0.14168670967097  2.75730885898590
 1  11.48289918901890  0.91289908670867  3.25724066706671
 1 -9.95047754575458  0.08344825552555 -2.47653504920492
 1 -11.61089014531453  1.28555455395540 -2.84494155945595
 1 -11.78750659575958 -0.30914966626663 -3.42985074267427
 1 -14.59817309060906 -1.92278123072307 -0.43938214201420
 1  8.57003607160716  0.20532075727573  0.66910955715572
 1 -8.70288545744575  2.02456410921092 -0.13151847224722
 1  11.62587832233223 -2.23731522752275 -2.00077292879288
 1  10.08837170357036 -1.43293939563956 -2.22809874387439
 1  11.53348264196420 -0.75256834693469 -3.09108505660566
 1  15.12167134743474  1.11471957175718  1.22535050395040
 1  9.56289606590659 -2.49244232593259 -0.51408785128513
 1 -5.55175963696370 -0.95753290399040  0.40271766856686
 1 -6.90883978207821 -1.52720469366937  1.06635888828883
 1 -7.07578381358136 -1.75474392259226 -0.43766198099810
 1 -6.78337062356236  2.43562235733573 -0.40781398309831
 1  7.15271882088209 -3.90210363296330  1.29362905860586
 1  6.12029937513751 -3.88525371317132 -0.12049164036404
 1  7.87712761016102 -4.30312649724973 -0.16762979567957
 1  6.54817324422442 -0.12502974237424 -0.46891901380138
 1 -4.11641387298730  0.51464112931293 -0.40076613421342
 1  4.85981958545855 -2.49908916191619  0.57384972417242
 1 -4.40168621432143  3.36090407220722 -0.67851750725072
 1  4.40996107230723  0.31905924482448 -0.62758197559756
 1 -1.58575833403340  3.74260570727073 -2.25242351425142
 1 -0.90276311471147  4.17564472177218 -0.68489044884488
 1 -2.64926441454145  4.64433684918492 -1.26600489418942
 1 -2.28694757515752  0.72019864536454  0.02229749974997
 1  2.29815885798580  1.39668365756576 -0.70023703880388
 1  2.07656618431843 -2.50212661506151  1.23130150865087
 1  0.97193226452645 -2.19880917201720 -0.22503378847885
 1  2.61488423782378 -3.00357814501450 -0.50138438143814
 1  0.27168305320532  2.19979981968197 -0.96279327082708
 1 -0.45271816781678 -0.69990015981598 -0.07320797579758

