%nproc=4
%Mem=4GB
# td=(NStates=1) CAM-B3LYP/6-31G(d,p) 

TD

0 1
 8 -14.32205808100810 -1.75407378907891  0.51559181448145
 8  14.80366220302030  1.03265085168517  0.10328092399240
 6 -11.73935679527953  0.08079415431543  1.32966778677868
 6 -10.99727669016902  0.41592436343634  0.10730444324432
 6 -12.05156063666367 -1.41574605900590  1.48245608690869
 6 -12.85182857635764 -1.94086515131513  0.33667781868187
 6 -11.63985927482748 -0.37688516681668 -1.22994848474847
 6  11.07275060566056  0.99463110561056  1.10406068576858
 6 -10.83589506270627  0.50252199099910  2.53849089978998
 6 -13.02322848524853  0.81914756165617  1.38922999979998
 6  12.54528170867087  1.69812923942394  0.90428781498150
 6 -12.47515850175018 -1.42158002580258 -1.05432820152015
 6  13.50163178407841  0.60388806140614  0.32329964886489
 6  10.66555602990299 -0.08063747394739  0.04228781388139
 6 -9.55893465736574 -0.07989083728373  0.03813382098210
 6  12.95220319791979  0.04194697529753 -1.03531911821182
 6  11.49556264506451 -0.39365441074107 -0.97688274707471
 6  10.10859774537454  2.22862217421742  1.17122983638364
 6  11.11752258475848  0.28079725512551  2.55457601890189
 6 -11.19176367386739  0.23268490999100 -2.47233949214922
 6 -8.51379748004801  0.75898088048805 -0.15181880438044
 6  9.25972090139014 -0.54242201800180  0.21543162696270
 6  11.25439538503850 -1.22029499629963 -2.11817142184218
 6 -7.14917624052405  0.47609485128513 -0.20179226852685
 6  8.82674913131313 -1.75213501100110 -0.12599774077408
 6 -6.66687810931093 -0.98259701660166 -0.15519263066307
 6  7.40464895239524 -2.18387125912591 -0.08183924622462
 6 -6.18927870387039  1.47104067856786 -0.56101795839584
 6  7.22345553975398 -3.62094581678168  0.35150536873687
 6  6.43810107910791 -1.29493978267827 -0.12475481788179
 6 -4.78549252295230  1.35825936513651 -0.45512642604260
 6  5.01901274717472 -1.63496133903390 -0.06488426862686
 6 -3.97930930333033  2.49274230043004 -0.77394858385839
 6 -2.53449388748875  2.48842680028003 -0.72999574737474
 6  3.98279224472447 -0.70030053615362 -0.25218473487349
 6  2.65318236683668 -0.96093056455646 -0.31050600320032
 6 -1.88376692689269  3.94235881848185 -0.84675382278228
 6 -1.67951503700370  1.44696744114411 -0.51127714411441
 6  1.75010355535554  0.13398495999600 -0.55744430633063
 6  2.12182550365036 -2.35996878417842  0.05199756765677
 6 -0.35382764166417  1.36218754005401 -0.65968932873287
 6  0.35617044784478  0.17154882268227 -0.24063732453245
 1 -10.99836657815782  1.45638742404240 -0.00583242844284
 1 -12.48386185928593 -1.67321733543354  2.45546344104410
 1 -11.17384505410541 -1.83671286628663  1.55265854845485
 1 -12.64575820942094 -2.96971607890789  0.18434329642964
 1 -10.00755615691569 -0.16388471287129  2.61985060896090
 1 -10.50974114071407  1.55674875187519  2.26424114601460
 1 -11.43213080538054  0.61870528952895  3.49127330513051
 1 -13.88591979377938  0.55801180348035  0.64157062736274
 1 -13.59219499009901  0.51519312671267  2.24702870487049
 1 -12.64560324572457  1.99092271407141  1.51091157445745
 1  12.46004337103710  2.50858580808081  0.15326316951695
 1  12.78997342444244  1.96578061696170  1.89489709090909
 1 -12.88731220982098 -1.80362715921592 -2.05560975167517
 1  13.45850543534353 -0.20162990879088  1.05379571547155
 1 -9.26117848354835 -1.14605946494649  0.34646220622062
 1  13.56477162126213 -0.97486052535254 -1.31819697569757
 1  13.05429184668467  0.83872245014501 -1.80238016181618
 1  9.07746444404440  1.90531058285829  1.38653390079008
 1  10.19064092569257  2.93791639403940  0.21684860036004
 1  10.23291696499650  2.89254422612261  2.20731688268827
 1  12.05605844714472 -0.36422367096710  2.48598501990199
 1  10.13080805140514 -0.34998753975397  2.61480460856086
 1  11.11757265636564  1.08137593439344  3.20229517251725
 1 -10.16426892489249 -0.15228531783178 -2.68269566526653
 1 -11.31290034633463  1.39080507900790 -2.47845491079108
 1 -11.82502034713471  0.01834308300830 -3.30001775937594
 1 -14.60422369566957 -2.09246819941994 -0.39250745454545
 1  8.53744281228123  0.15307553275328  0.54409705590559
 1 -8.71810697959796  1.78778043084308 -0.49126444684468
 1  11.60593632813281 -2.24749624562456 -2.08191104260426
 1  10.12113497989799 -1.39786588828883 -1.99474540854085
 1  11.68349764346435 -0.88668175827583 -2.98712466056606
 1  15.24814399469947  1.54610271007101  0.74174214311431
 1  9.58827860416042 -2.62648573027303 -0.46840328282828
 1 -5.66203066406641 -1.03678082878288 -0.41145374857486
 1 -6.67640653875388 -1.55807778097810  0.94056630903090
 1 -7.30947718291829 -1.65773422162216 -0.87696591139114
 1 -6.48897118361836  2.58590738583858 -0.60740394209421
 1  6.92612616161616 -3.76032945554555  1.26595629132913
 1  6.28117546274627 -3.99012420022002 -0.34986457765777
 1  7.91810170757076 -4.19292547714772  0.06358332563256
 1  6.56183461036104 -0.22718995839584 -0.34709683158316
 1 -4.45849808140814  0.32776244144414 -0.16356241384138
 1  4.85772937643764 -2.71978123112311  0.23440577977798
 1 -4.77519356505651  3.25741372317232 -0.88034769026903
 1  4.54598467466747  0.22345968486849 -0.55749496689669
 1 -1.26974673287329  3.93452489918992 -1.78617688958896
 1 -1.38917175557556  4.32861001830183  0.08005604580458
 1 -2.80377986608661  4.44055647114711 -1.10947924162416
 1 -2.19435831623162  0.55410203570357 -0.23392812281228
 1  2.07442648474848  1.04218820802080 -0.77646466156616
 1  2.27855638333833 -2.43840024242424  1.01736011451145
 1  0.97302237353735 -2.34576386748675 -0.17359864496450
 1  2.65559830923092 -3.09102688988899 -0.60159440244024
 1  0.04788067296730  2.48356819651965 -0.99930692219222
 1 -0.25522841884188 -0.74716488628863  0.04749409440944

