%nproc=4
%Mem=4GB
# td=(NStates=1) CAM-B3LYP/6-31G(d,p) 

TD

0 1
 8 -14.12999887508751 -1.95868425012501  0.23297355265527
 8  14.73021485828583  1.03093067966797  0.05985658155816
 6 -11.77882074167417  0.08421449634964  1.16899171917192
 6 -10.95922288478848  0.33435620662066 -0.10640692789279
 6 -11.93292877347735 -1.53118760316032  1.32311015231523
 6 -12.77913130663066 -2.09565062986299  0.15029918081808
 6 -11.52813810271027 -0.41261874017402 -1.31721721162116
 6  11.07464079467947  1.05989763226323  0.92350262996300
 6 -10.98384985818582  0.42297403620362  2.46146319701970
 6 -13.17301346374637  0.65926157305731  1.17882895969597
 6  12.48372555305531  1.53397282378238  0.59510689688969
 6 -12.19468045394540 -1.56187405520552 -1.18628139683968
 6  13.52010363126313  0.34771244384438  0.31065838473847
 6  10.73230270457046 -0.11373078327833 -0.07004341924192
 6 -9.45422418631863 -0.02664551275128  0.04011401900190
 6  12.97601557915791 -0.23543076247625 -1.00479606590659
 6  11.50986407520752 -0.70084512981298 -0.99030408920892
 6  10.17713459905991  2.25159447144714  0.83754646804681
 6  10.97625845834583  0.41147032243224  2.29315987728773
 6 -11.07145164266427  0.14625626712671 -2.59260151835184
 6 -8.49518561886189  0.84395937833783 -0.18352197469747
 6  9.32529745904590 -0.52466024182418 -0.07473738993899
 6  11.16792673817382 -1.55641860866087 -2.10574017871787
 6 -7.04912623552355  0.59689693149315  0.03882179287929
 6  8.75875233163316 -1.72821261876188 -0.10126526752675
 6 -6.71088250975098 -0.87987674457446  0.25732862146215
 6  7.42271075857586 -2.06561943394339  0.03982291999200
 6 -6.21515129112911  1.63268684318432 -0.18200005660566
 6  7.14477767196720 -3.60646436863686  0.31518173637364
 6  6.30828809780978 -1.18193848254825 -0.02593493589359
 6 -4.83045701940194  1.55888942814281 -0.18113902730273
 6  4.98506935283528 -1.49097694059406  0.07478969876988
 6 -3.96820819321932  2.71343436963696 -0.42080326932693
 6 -2.57878831693169  2.66398435603560 -0.50713346114611
 6  3.96571053655366 -0.64059456555656 -0.21329084548455
 6  2.64147119571957 -0.84602907440744 -0.14528948154815
 6 -1.82854140434043  3.89577416001600 -0.86960610801080
 6 -1.84173125862586  1.51440418481848 -0.31023704010401
 6  1.72470101510151  0.31328288978898 -0.35361392329233
 6  1.99109243034303 -2.19624241154115  0.27595996389639
 6 -0.38222048094809  1.38830015131513 -0.40306366616662
 6  0.42589742054205  0.31933360116012 -0.15858911971197
 1 -10.97779452095210  1.45070685598560 -0.32283412861286
 1 -12.59319279237924 -1.64953496719672  2.15004289898990
 1 -10.87763543314331 -1.88912810781078  1.43702698529853
 1 -12.39288292189219 -3.07459656695670  0.01337619971997
 1 -10.24048945024503  0.01855353095309  2.64751337523752
 1 -11.02032219881988  1.61863494049405  2.43710843274327
 1 -11.69015660796080  0.38496191519152  3.33431760956096
 1 -13.91798300010001  0.26600260256026  0.39080555085509
 1 -13.73488925952595  0.37031863926393  2.06837083908391
 1 -12.99528821422142  1.68493211501150  1.39469995329533
 1  12.45717308400840  2.14540949044904 -0.35477763456346
 1  12.79719414651465  2.18541258015802  1.53492109330933
 1 -12.39423290189019 -2.17082387888789 -2.15068925962596
 1  13.54076366116612 -0.45236498229823  1.13294363026303
 1 -9.37227959365937 -1.05690054905491  0.31321888188819
 1  13.64309945404541 -1.17106014531453 -1.08180333633363
 1  13.02128854635464  0.52733131103110 -1.74596452025203
 1  8.94472116971697  2.12684273607361  1.04950019741974
 1  10.07805966756676  2.73360596299630 -0.24071715621562
 1  10.62466613991399  2.92639761146115  1.60442659365937
 1  11.82156499779978 -0.32787003560356  2.64897131853185
 1  10.08078304890489  0.13788124712471  2.53578670677068
 1  11.30258115721572  1.23974177097710  2.95832077507751
 1 -9.97202970097010  0.31878178887889 -2.74690208590859
 1 -11.43308236453645  1.16558255675568 -2.84234129942994
 1 -11.51338918401840 -0.36109486078608 -3.43300105770577
 1 -14.62957623092309 -2.62954190679068 -0.43295149894989
 1  8.57789685768577  0.38493871907191 -0.11770912471247
 1 -8.72789795869587  1.85116676947695 -0.41707702810281
 1  11.44346008050805 -2.69124062006201 -1.92912576407641
 1  10.01877474387439 -1.30504660636064 -2.35140107410741
 1  11.66073536723672 -1.28608169826983 -2.99713566166617
 1  15.01538071837184  1.21698979877988  0.92887085598560
 1  9.32235201150115 -2.55269835153515 -0.26043248574857
 1 -5.54693915491549 -0.88992614331433  0.34711210801080
 1 -7.32882178027803 -1.23231520472047  1.26068832123212
 1 -6.85287152235224 -1.36706515471547 -0.69433764856486
 1 -6.48439072557256  2.58027682278228 -0.28106130783078
 1  7.06154970397040 -3.72715613821382  1.29913960966097
 1  6.17805515071507 -3.98333352115212 -0.24733432463246
 1  7.81718161556156 -4.20847703230323 -0.04671770447045
 1  6.51779020592059 -0.19661690109011 -0.28797091899190
 1 -4.40880311191119  0.65035470067007  0.21122506490649
 1  4.61281488498850 -2.64611386438644 -0.03595125592559
 1 -4.50462650835084  3.60947892969297 -0.58427808330833
 1  4.33035311151115  0.49630696959696 -0.24157337473747
 1 -1.36286604480448  3.84219566626663 -1.80215848774877
 1 -1.05751859025903  4.16668382568257 -0.07881984178418
 1 -2.63889337743774  4.84430684618462 -0.80420871457146
 1 -2.26422530293029  0.48471509700970 -0.19000373037304
 1  2.18046708880888  1.21478546774677 -0.35173218831883
 1  2.24874340204020 -2.45142154455446  1.33564194269427
 1  1.00737580888089 -2.09820911201120  0.18037675257526
 1  2.49536228562856 -3.04672245944594 -0.38237248024802
 1  0.16810269516952  2.19498933863386 -0.68737572907291
 1 -0.03050594659466 -0.62310248004800  0.05062440744074

