%nproc=4
%Mem=4GB
# td=(NStates=1) CAM-B3LYP/6-31G(d,p) 

TD

0 1
 8 -14.22027790299030 -1.87744612631263  0.47997825312531
 8  14.78821065786579  1.04305189178918  0.01419201510151
 6 -11.74482734233423  0.10627670257026  1.14974979497950
 6 -11.00547751025103  0.30332310331033 -0.12511879907991
 6 -12.18577405800580 -1.50839532393239  1.40523836513651
 6 -12.82923631713171 -2.15734679947995  0.22697684858486
 6 -11.55749103800380 -0.47964544284428 -1.20904639453945
 6  11.08664199479948  0.96501814431443  1.07815809550955
 6 -11.02098357155716  0.56707844664466  2.37602465316532
 6 -13.12415857825783  0.91396704360436  1.04698577537754
 6  12.46446362686269  1.50751017751775  0.73635102130213
 6 -12.36603758965897 -1.60998886668667 -1.09072184088409
 6  13.53662528342834  0.45665333793379  0.39521684058406
 6  10.67701717601760 -0.17408681888189 -0.05702211711171
 6 -9.45819458335834 -0.03830667886789 -0.02586257865787
 6  13.02867084468447 -0.17461468086809 -0.99986557285729
 6  11.56552964176418 -0.60601564686469 -0.98307336613661
 6  10.12983986958696  2.09332864486449  0.99534224762476
 6  11.01267209970997  0.35788496389639  2.40903146444644
 6 -11.15598009550955 -0.04804316281628 -2.59188144634463
 6 -8.39658575887589  0.75804078647865 -0.19529315181518
 6  9.32844777407741 -0.59770754655466  0.05155523932393
 6  11.10745069056906 -1.33054602140214 -2.26662626732673
 6 -6.99287060996100  0.54060130193019 -0.09297138643864
 6  8.79352580898090 -1.84035383288329 -0.25964110511051
 6 -6.60406182768277 -0.86432518941894  0.13921681028103
 6  7.36789527702770 -2.14701757375738 -0.08703976627663
 6 -6.19814959095910  1.60069364386439 -0.28366022262226
 6  7.09325251945195 -3.57233095529553 -0.03367314911491
 6  6.39572684168417 -1.15273556225623 -0.14337668006801
 6 -4.81007498119812  1.58375191439144 -0.24833574697470
 6  5.01548239413941 -1.49355719861986  0.08492071187119
 6 -3.92524389678968  2.60417344354435 -0.61975316431643
 6 -2.57390782888289  2.60540849844985 -0.66540928872887
 6  4.01660562606261 -0.51122162826283 -0.10013953035304
 6  2.63228027662766 -0.80738521002100 -0.04031898449845
 6 -1.83895244544454  3.90761534413441 -0.78220736813681
 6 -1.80313739923992  1.44091683608361 -0.39157517391739
 6  1.85619416441644  0.33286484798480 -0.17895645754575
 6  2.02257557865787 -2.07673046034603  0.34876724462446
 6 -0.31748400730073  1.44607592889289 -0.25904926472647
 6  0.39101393219322  0.31627329512951 -0.13400666146615
 1 -11.27318405990599  1.30490227552755 -0.33043488868887
 1 -12.94660813391339 -1.62680269396940  2.23430132483248
 1 -11.24269193879388 -1.97127632263226  1.69986326892689
 1 -12.51818545214521 -3.25039414671467  0.40194505660566
 1 -10.16468186948695 -0.12303062746275  2.45717434133413
 1 -10.73848401500150  1.58746182318232  2.23210793269327
 1 -11.74969256155616  0.67063048204820  3.30208438623862
 1 -13.77192839463946  0.44474047634763  0.22260873117312
 1 -13.74836060666067  0.80434204160416  1.99028303030303
 1 -12.93162184758476  2.02335595739574  0.87263774707471
 1  12.34651201790179  2.44559950945095 -0.25489764656466
 1  12.73746817391739  2.05169920882088  1.57313491469147
 1 -12.58173165176518 -2.11557835433543 -2.02309650035003
 1  13.57135672047205 -0.40147989378938  1.12709304520452
 1 -9.24395676137614 -0.99825468446845  0.27117467746775
 1  13.77615275937594 -0.83818685798580 -1.26286144214421
 1  13.12554897239724  0.52011058895890 -1.88629855365537
 1  8.99317601520152  1.95779583138314  1.35710095749575
 1  10.00559242084208  2.29121172357236 -0.17651073557356
 1  10.43523719701970  3.06985195689569  1.49041519251925
 1  11.71168400970097 -0.66750399899990  2.36125254665467
 1  10.00581555215521  0.11080853985399  2.59922305040504
 1  11.32315321442144  1.09479727652765  3.25992093509351
 1 -10.16218871687169  0.21124103480348 -2.68548594429443
 1 -11.64466352265227  0.95383138163816 -2.87432449774978
 1 -11.59448729382938 -0.79434818611861 -3.41011876947695
 1 -14.63641691499150 -2.74903385598560 -0.19481768556856
 1  8.49936900490049  0.16351657685769  0.51902454865487
 1 -8.64130929982998  1.78022967576758 -0.32282760316032
 1  11.18224395889589 -2.53230472647265 -2.24161701320132
 1  10.00667353375337 -1.35407150885089 -2.50111604560456
 1  11.67339663336334 -0.90443353345335 -3.03175912401240
 1  15.18728790909091  1.74161226102610  0.66401437033703
 1  9.60012978927893 -2.61133421512151 -0.26652309480948
 1 -5.56196065706571 -0.94096124682468  0.45794319111911
 1 -7.13865276337634 -1.34782675587559  1.00926317871787
 1 -6.85962219741974 -1.51881032923292 -0.78852706750675
 1 -6.50489277577758  2.59832862796280 -0.34119732143214
 1  7.10528407740774 -3.90085350795080  1.06327602330233
 1  6.03678102330233 -3.72062725052505 -0.45118470967097
 1  7.97071696909691 -4.12604878947895 -0.17580061276128
 1  6.63362178907891 -0.15700293969397 -0.46449857175718
 1 -4.36382861446145  0.36993665886589 -0.36381243884388
 1  4.73241684518452 -2.57296654965497  0.39800213941394
 1 -4.19073511921192  3.48483646544654 -1.00083973947395
 1  4.30040011621162  0.48863620252025 -0.51763098049805
 1 -0.83380313851385  3.89473091979198 -1.45018329022902
 1 -1.45938877727773  4.13157031433143  0.26341438163816
 1 -2.40241973007301  4.61417383288329 -1.02536082978298
 1 -2.36000488088809  0.33809043454345 -0.11974670467047
 1  2.13735277737774  1.28156214541454 -0.31677869296930
 1  1.85497402510251 -2.28948535093509  1.69028740724072
 1  0.86149122042204 -2.04082337343734 -0.04482576767677
 1  2.59802255165517 -2.90257804500450 -0.10933517651765
 1  0.30416630153015  2.36968680838084 -0.56878386988699
 1  0.02650975497550 -0.66124629442944  0.12762210721072

