%nproc=4
%Mem=4GB
# td=(NStates=1) CAM-B3LYP/6-31G(d,p) 

TD

0 1
 8 -14.20653652885288 -1.99856823852385  0.58582883818382
 8  14.87813965076508  0.93904149074907  0.10945154105411
 6 -11.80276313591359 -0.06981090619062  1.34096891689169
 6 -10.98280524302430  0.27246001700170  0.07126083888389
 6 -11.96787226782678 -1.59430391479148  1.38317615891589
 6 -12.75365875937594 -2.08546961176118  0.18109226012601
 6 -11.66356164506451 -0.25217269556956 -1.21950744064406
 6  11.07227055765576  1.06300794329433  0.96999727942794
 6 -11.03953542674267  0.21441318011801  2.64192124282428
 6 -13.07351351375138  0.70905655255526  1.31386246304630
 6  12.60460764126413  1.58754818131813  0.72040942714271
 6 -12.49671065696570 -1.37357522532253 -1.09405217391739
 6  13.52035365626563  0.56075374797480  0.34538185708571
 6  10.67835731003100 -0.11145055525553 -0.00797721262126
 6 -9.55965472937294 -0.03923677187719  0.01407141474147
 6  13.00280825842584 -0.17547476687669 -0.85908149444944
 6  11.60776386518652 -0.58340338563856 -0.87575263406341
 6  10.19378626422642  2.26871618361836  0.86105881928193
 6  11.03033386588659  0.57392656805681  2.45361592289229
 6 -11.58309280678068  0.61675331683168 -2.43058531673167
 6 -8.52869897019702  0.83584856725673 -0.15483910641064
 6  9.33760869016902 -0.52825060086009  0.16749683348335
 6  11.25281522702270 -1.63362632943294 -1.88660826552655
 6 -7.16550787368737  0.45854309610961 -0.37319940924092
 6  8.87596405280528 -1.78730852835284 -0.03348848984898
 6 -6.72252367386739 -0.97974673157316 -0.13605071647165
 6  7.46409489698970 -2.13442631463146  0.05314425212521
 6 -6.17914769076908  1.50695426992699 -0.55284714131413
 6  7.11397459165917 -3.65330905310531  0.33326354455446
 6  6.40422769176918 -1.20300058875888 -0.17521986438644
 6 -4.78733270697070  1.43344688388839 -0.43397431083108
 6  5.06396724262426 -1.54729257215722 -0.00173795399540
 6 -3.99755112751275  2.53852687888789 -0.71677286628663
 6 -2.53029346744674  2.65996395399540 -0.59412216001600
 6  4.01962592809281 -0.57059756585659 -0.23771328772877
 6  2.61137818641864 -0.79173364486449 -0.26372132473247
 6 -1.94053260346035  4.00514509710971 -0.90755990339034
 6 -1.78699578507851  1.57379012341234 -0.40847686408641
 6  1.78228677367737  0.23600516201620 -0.41426998889889
 6  2.21392471357136 -2.26386917421742 -0.02185981808181
 6 -0.37468972787279  1.45448676997700 -0.45609896969697
 6  0.44713954475448  0.24943661146115 -0.31926518731873
 1 -10.96172291379138  1.39475126042604 -0.22631447664767
 1 -12.29488296139614 -1.81139115281528  2.40994888958896
 1 -10.84908257785779 -1.90658985398540  1.31555483808381
 1 -12.42877651125113 -3.24551365866587  0.17990285238524
 1 -9.98686408770877 -0.17066539093909  2.66578520242024
 1 -11.17547771437144  1.45925900290029  2.75091981388139
 1 -11.68116570887089 -0.10111669266927  3.38586276407641
 1 -13.97367856965696  0.53316931923192  0.47797426772677
 1 -13.36820259085909  0.49592119951995  2.46238024002400
 1 -12.79395808120812  1.75160878267827  1.59266975027503
 1  12.53003036973697  2.22352730223022 -0.02415457225723
 1  13.00253468056806  1.96595063396340  1.68823642484248
 1 -13.01048452705271 -1.99707650415041 -1.95158934963496
 1  13.41618120292029 -0.30609035483548  1.15922625852585
 1 -9.25745811151115 -1.06416127512751  0.03112067206721
 1  13.59458460256026 -1.09737277657766 -1.02985814181418
 1  13.38700511801180  0.33219179707971 -1.85522544634463
 1  9.33930062766277  2.13833388518852  1.30668591599160
 1  9.86155801740174  2.64252685508551 -0.17371045554556
 1  10.64935860916092  3.10197516921692  1.26285243624362
 1  11.81770461176118 -0.21587883648365  2.63208963036304
 1  10.13247821842184  0.17527498649865  2.51322445054505
 1  11.35549644874487  1.25435323212321  3.00804574757476
 1 -10.52668516651665  0.77765767646765 -2.67720511621162
 1 -11.92324138043804  1.68692469096910 -2.01351841714171
 1 -12.15008285338534  0.45747699639964 -3.28292605020502
 1 -14.73981725502550 -1.85949490209021 -0.32021022482248
 1  8.61203027102710  0.29946017121712  0.24141678787879
 1 -8.93669883878388  1.76359801260126 -0.28294361476148
 1  11.59647538203820 -2.65470696669667 -1.42587543904390
 1  10.25335820222022 -1.63975007670767 -2.21080701470147
 1  11.72244153785379 -1.52521561166117 -2.92159810791079
 1  15.01709088938894  1.34936303610361  1.07009497839784
 1  9.61231100740074 -2.52391547324733 -0.21953839633963
 1 -5.66995145614561 -1.42239939063906  0.00064746154615
 1 -7.06822572067207 -1.51559353255326  0.88605085748575
 1 -7.09392562776278 -1.47329577777778 -1.02970118491849
 1 -6.67952023852385  2.48006680178018 -0.77551075277528
 1  6.68842239123912 -3.91883530613061  1.39731942764276
 1  6.53196054125413 -4.03609879767977 -0.70622021322132
 1  8.03839373677368 -4.11918810341034  0.43746071337134
 1  6.79500792769277 -0.17734497389739 -0.51570369226923
 1 -4.41408363996400  0.50450011521152 -0.12367842544254
 1  4.71387499099910 -2.66148540154015  0.14712705190519
 1 -4.35032107780778  3.32778075987599 -1.22622227772777
 1  4.26657673387339  0.49003634253425 -0.67081629902990
 1 -1.20250000820082  3.93706515321532 -1.75693396529653
 1 -1.34017685608561  4.17760491779178 -0.10411237103710
 1 -2.74961444954495  4.83911632713271 -0.85292358605861
 1 -2.46247512791279  0.54488111361136 -0.38918364836484
 1  2.52297133923392  1.13252724192419 -0.43429044414441
 1  2.14082260996100 -2.37649405180518  1.19706808530853
 1  1.15347041834183 -2.25995528662866 -0.32367365246525
 1  2.73432618201820 -3.09039682688269 -0.62907715071507
 1  0.31070695559556  2.33395323502350 -0.76877386888689
 1 -0.38835173117312 -0.49211938173817 -0.18842949794979

