%nproc=4
%Mem=4GB
# td=(NStates=1) CAM-B3LYP/6-31G(d,p) 

TD

0 1
 8 -14.30618649384938 -1.78447682938294  0.55100535583558
 8  14.88152998979898  0.95066265286529  0.24963555945595
 6 -11.75348820842084 -0.03400732583258  1.34372919291929
 6 -10.95755271777178  0.30515328632863  0.02899661246125
 6 -12.03183866446645 -1.52061654605461  1.32324016531653
 6 -12.83596699019902 -2.03215428022802  0.16187033793379
 6 -11.67990327922792 -0.28028550685068 -1.21965745564556
 6  11.03800713131313  1.05429707220722  0.98106838653865
 6 -10.81753322652265  0.34725646444644  2.51134818551855
 6 -13.06019218161816  0.79805545244524  1.27246832363236
 6  12.48485566606661  1.65516494299430  0.77646503270327
 6 -12.51300228612861 -1.34261212901290 -1.13100586928693
 6  13.53505512641264  0.51222889548955  0.39259657855786
 6  10.67906738103810  0.02614320412041 -0.04176059095910
 6 -9.50755951985199 -0.11118396659666  0.05430543814381
 6  13.02088006560656 -0.08299551895190 -0.93348893519352
 6  11.57666075487549 -0.48968401370137 -0.98972403120312
 6  10.12027891349135  2.28201751375137  0.85263797719772
 6  10.98520935343534  0.43407258265827  2.38681924322432
 6 -11.34370886838684  0.41081272277228 -2.58896115431543
 6 -8.54282038233823  0.75888087048705 -0.18943256575658
 6  9.28543347264726 -0.35600337613761 -0.10760067626763
 6  11.20218016351635 -1.57019998679868 -2.03072267696770
 6 -7.13675499839984  0.44298153995400 -0.10892298159816
 6  8.86971342774278 -1.72109190669067 -0.03884902590259
 6 -6.68479990149015 -0.85919467636764  0.07526041464146
 6  7.42068055555556 -2.17226009800980  0.04529346704670
 6 -6.24380415641564  1.44347792229223 -0.38260011661166
 6  7.21528472267227 -3.71372509470947  0.24865508370837
 6  6.31715898489849 -1.26658694739474 -0.04002634503450
 6 -4.82038601230123  1.40459399859986 -0.37706862026203
 6  4.96204705060506 -1.60610845374537 -0.01315909610961
 6 -3.96532790519052  2.54700772697270 -0.67914910391039
 6 -2.49056949504950  2.63946190379038 -0.60712346014601
 6  4.03733769926993 -0.58844935103510 -0.20450996739674
 6  2.67737478607861 -0.88562303380338 -0.14003895649565
 6 -1.87510606080608  3.91971655425543 -0.90029917731773
 6 -1.67507459295930  1.44294703910391 -0.45005102150215
 6  1.83322186718672  0.18637019851985 -0.31474003590359
 6  2.12201552265227 -2.30312309960996 -0.05100273237324
 6 -0.33654591349135  1.35850717201720 -0.49457281708171
 6  0.40548537933793  0.25058672647265 -0.34355761656166
 1 -11.05037177867787  1.23617540284028 -0.09648149334934
 1 -12.44891836493649 -1.88673868756876  2.44935282998300
 1 -11.12546021562156 -2.12166136113611  1.21375465806581
 1 -12.83462709630963 -3.07055616291629  0.15183004510451
 1 -9.83084848614862 -0.29873819821982  2.60780940484048
 1 -10.49209937653765  1.45703878087809  2.71358608050805
 1 -11.18509610191019  0.01624504350435  3.48792297009701
 1 -13.87805900770077  0.39215521782178  0.62378884918492
 1 -13.56487225782578  0.58673028042804  2.25159916191619
 1 -12.84324300970097  1.74447806960696  1.22446292959296
 1  12.43521088778878  2.40986593609361 -0.11658381518152
 1  13.04359878697870  2.15944998389839  1.51261886308631
 1 -12.92762624122412 -1.95348214471447 -2.02602679337934
 1  13.59534911971197 -0.33012275807581  1.18304864076408
 1 -9.35310767646765 -1.16530138913891  0.30631819181918
 1  13.72512765686569 -0.96773981328133 -1.22090724672467
 1  13.13550996849685  0.53839241714171 -1.80411033483348
 1  9.16002269986999  2.10039009080908  1.23028827622762
 1  9.98630049164917  2.88673127552755  0.00092700820082
 1  10.60555422872287  3.02919789148915  1.61366751775178
 1  11.52413525482548 -0.36707395599560  2.57124354575458
 1  9.90996596719672  0.12498995799580  2.64029715781578
 1  11.12866376547655  1.10069786658666  3.21683662666267
 1 -10.23028552655266  0.31128103880388 -2.80356775247525
 1 -11.76351540784079  1.40319631813181 -2.65926299159916
 1 -11.78303614871487 -0.48525727702770 -3.28442620022002
 1 -14.86867014031403 -2.01961091369137 -0.12485068886889
 1  8.51838090609061  0.46022624782478 -0.01132848664866
 1 -9.01511668056806  1.87193884668467 -0.48620394079408
 1  11.56861259575958 -2.55729722572257 -1.67278012951295
 1  10.10902376877688 -1.76233233493349 -2.13586952095210
 1  11.66493578727873 -1.27274036413641 -2.98681462956296
 1  15.12380156045605  1.30403850365037  1.11905987488749
 1  9.50772054835484 -2.68125120682068 -0.01062750525053
 1 -5.57614207520752 -1.25205235593559 -0.34048665186519
 1 -6.72188108620862 -1.30130210341034  0.97782003440344
 1 -7.53851008620862 -1.56324477267727 -0.50605882068207
 1 -6.52439472597260  2.57370616571657 -0.45266846854685
 1  6.72018556755676 -3.67515093769377  1.25507520322032
 1  6.41803914911491 -4.12879806760676 -0.43754334553455
 1  7.97985788318832 -4.44400058465847  0.13516048334833
 1  6.66124455135514 -0.31124836423642 -0.15251737363736
 1 -4.06010824242424  0.50389005420542 -0.16403246084608
 1  4.61699530303030 -2.56585583858386  0.39248158735874
 1 -4.51460750645064  3.39761774357436 -0.59788944444444
 1  4.26077615381538  0.46072341124112 -0.27892711011101
 1 -1.07666742494249  3.61714316101610 -1.68643691559156
 1 -1.22387522592259  4.30913807110711 -0.10013197299730
 1 -2.48111759985999  4.75271768726873 -1.22340063376338
 1 -2.50688956935694  0.59614624012401 -0.33188791879188
 1  2.17033607570757  1.01041503070307 -0.66309332443244
 1  2.38644717241724 -2.76339274167417  0.87479585808581
 1  1.10888595989599 -2.18230752185218 -0.18477976307631
 1  2.47463021242124 -2.94583237043704 -0.86424066706671
 1  0.27691357625763  2.36302614231423 -0.64310130163016
 1 -0.40580347634763 -0.55775594539454 -0.28702935793579

