%nproc=4
%Mem=4GB
# td=(NStates=1) CAM-B3LYP/6-31G(d,p) 

TD

0 1
 8 -14.15866174137414 -1.85021340304030  0.46378663396340
 8  14.82513435023502  0.95759334593459  0.10273086898690
 6 -11.77181004060406  0.10687676257626  1.30330515051505
 6 -11.08756571907191  0.37969074007401 -0.01522780998100
 6 -11.99570505110511 -1.47949243364336  1.32307014831483
 6 -12.70688408190819 -2.09713077787779  0.25235938683868
 6 -11.58236352525252 -0.47687516581658 -1.26554204410441
 6  11.11520485108511  0.90680232273227  1.11383166286629
 6 -10.99144061726173  0.49500123892389  2.47517456815682
 6 -13.13737990039004  0.82639828672867  1.14926600340034
 6  12.61516869736974  1.38344777127713  0.88214560076008
 6 -12.31147213311331 -1.55589345714571 -1.05558832753275
 6  13.57396901780178  0.37294496709671  0.27203452235224
 6  10.67559703400340  0.02249283908391 -0.00472688758876
 6 -9.57834659855986 -0.03348619681968  0.04888489608961
 6  13.01547952555255 -0.15145236463646 -1.04117970427043
 6  11.48141122992299 -0.45602064736474 -0.99169422822282
 6  10.24167105270527  2.21575088708871  1.24041675507551
 6  11.05120595309531  0.17112628802880  2.47162772407241
 6 -11.14879937743774  0.01816345784578 -2.60418267646765
 6 -8.48825492579258  0.81416639903990 -0.11117473997400
 6  9.26514144344434 -0.45322309810981  0.07477756155616
 6  11.13152309780978 -1.25628859565957 -2.26856646134613
 6 -7.10992231513151  0.40940818261826 -0.07925001430143
 6  8.79979643604361 -1.73349314681468 -0.07070221122112
 6 -6.76966838833883 -0.97529628652865  0.32013490209021
 6  7.34926341384138 -2.17210008200820 -0.04665572787279
 6 -6.18180795679568  1.45007858235824 -0.28064992159216
 6  7.20896409060906 -3.63491721392139  0.39502972117212
 6  6.35610287928793 -1.30279056775678 -0.39271161356136
 6 -4.84331830553055  1.45334887408741 -0.19422033543354
 6  4.97694854075407 -1.49335717861786 -0.20198797899790
 6 -4.02156352875288  2.54101712791279 -0.60966215521552
 6 -2.58925936403640  2.66806476407641 -0.65039778757876
 6  3.96845081058106 -0.58040854695470 -0.35505502190219
 6  2.64993204180418 -0.74136860836084 -0.21983693629363
 6 -2.12713126332633  3.95877045964596 -1.10824997239724
 6 -1.72108919441944  1.50252299669967 -0.37774379077908
 6  1.82587113211321  0.37255881738174 -0.49390795269527
 6  2.13041636273627 -2.07126991429143  0.33091545944594
 6 -0.34150640954095  1.57450877217722 -0.63108646844684
 6  0.42164699549955  0.42014368216822 -0.36198945974597
 1 -11.01594833633363  1.56939872517252 -0.16153799899990
 1 -12.60237371047105 -1.90763077677768  2.17520541524152
 1 -11.04607227682768 -1.98557775277528  1.24976825942594
 1 -12.56462009560956 -3.08151725902590  0.23614847694770
 1 -10.07576297759776 -0.12551087548755  2.53896252015201
 1 -10.50719088568857  1.56112918991899  2.38214293619362
 1 -11.83529112141214  0.61147456645665  3.13635781358136
 1 -13.94145534733473  0.53008901120112  0.36871334163416
 1 -13.59827559815982  0.66684829222922  2.15664966696670
 1 -12.78450713611361  2.00269389118912  1.08736922022202
 1  12.55779314601460  2.09648459795980  0.08835667886789
 1  12.86684111121112  1.71020505940594  1.93613121432143
 1 -12.42319579817982 -2.23917071357136 -1.99563375407541
 1  13.83524310911091 -0.53999374517452  1.19920025592559
 1 -9.46051841754175 -1.07857271627163  0.01620918091809
 1  13.41611675577558 -0.94866790609061 -1.37822297829783
 1  13.18425484298430  0.61035961386139 -1.85129505330533
 1  9.32848954655466  1.93065311711171  1.84129937733773
 1  10.01466332793279  2.81537413981398  0.37517443294330
 1  10.71122479577958  2.78835380708071  1.61433758475848
 1  11.84565740704070 -0.67522477107711  2.56818323972397
 1  10.07904287488749 -0.38105064606461  2.80140326842684
 1  11.12468336743674  0.91002879967997  3.36441138413841
 1 -9.99748224622462  0.11464137483748 -2.92987038273827
 1 -11.76053510981098  0.89477547604761 -2.73351041634163
 1 -11.66427427252725 -0.46672542384238 -3.45444320192019
 1 -14.60085335863586 -2.18612756535654 -0.23347155095510
 1  8.49707877587759  0.23820404560456  0.56301894809481
 1 -8.80136530543054  1.77115876867687 -0.14413973437344
 1  11.37115284978498 -2.32751424742474 -2.19911276277628
 1  10.06766963336334 -1.12779888158816 -2.67898383238324
 1  11.71420071377138 -1.00880397049705 -3.24071001910191
 1  15.33425260556056  1.15822392219222  0.91712968186819
 1  9.58791856815682 -2.51190427212721 -0.11878832133213
 1 -5.69816427742774 -1.11703885458546  0.27142453925393
 1 -7.15695459355936 -1.19221119431943  1.29158141054105
 1 -7.25637187238724 -1.81739018721872 -0.34231244604460
 1 -6.82060434693469  2.28547734283428 -0.37466066776678
 1  7.10207375637564 -3.92107553015302  1.51429112481248
 1  6.38072541774177 -4.18225341314131 -0.16367595879588
 1  8.12306220362036 -4.23897008160816  0.19573654095409
 1  6.74888331523152 -0.39187642704270 -0.50915303720372
 1 -4.05063729532953  0.54893455865587  0.11733567596760
 1  4.76572017551755 -2.31377063006301  0.38396073527353
 1 -4.60975702140214  3.48133611541154 -0.90047970347035
 1  4.29481955815582  0.42460979987999 -0.65541475887589
 1 -1.74533429162916  4.05461690839084 -2.11569984188419
 1 -1.33938677707771  4.38022517981798 -0.39784174397440
 1 -2.92812230033003  4.72569498499850 -1.07826612031203
 1 -2.08875775617562  0.33740036553655 -0.09420415041504
 1  2.56908595069507  1.25556954615462 -0.83304031913191
 1  2.54611313901390 -2.21723812621262  1.27364574307431
 1  1.10419549084908 -2.28379767086709  0.30588930383038
 1  2.33423617301730 -3.05056284348435 -0.39315355835584
 1  0.12929881478148  2.62994283398340 -0.84976196769677
 1 -0.02286518251825 -0.58843901370137 -0.02589324432443

