%nproc=4
%Mem=4GB
# td=(NStates=1) CAM-B3LYP/6-31G(d,p) 

TD

0 1
 8 -14.15028090329033 -1.83830221192119  0.80740099539954
 8  14.75746758355836  1.00882846944694  0.09081967786779
 6 -11.61771463106311  0.03544961986199  1.21825664566457
 6 -10.92687965046505  0.22280505150515 -0.10554684188419
 6 -11.82333781438144 -1.48799328372837  1.50070791209121
 6 -12.76030942444245 -2.08475954075408  0.42746689758976
 6 -11.64181947084708 -0.58717619591959 -1.21030652055206
 6  11.04073740434043  0.91250289278928  1.12466274597460
 6 -10.89881135433543  0.65570730953095  2.42228927962796
 6 -12.98355451785178  0.94953059996000  1.14423550035003
 6  12.48022520302030  1.46606603310331  0.89887727392739
 6 -12.36774776067607 -1.66775464326433 -0.98998176687669
 6  13.49411103200320  0.43441111371137  0.42802012091209
 6  10.60508998329833 -0.11158056825683  0.09452303740374
 6 -9.50361912581258 -0.05299814801480 -0.09517951035103
 6  12.97159513711371 -0.23892111151115 -0.83686927322732
 6  11.53752684148415 -0.57862290759076 -0.79273433223322
 6  10.07208409400940  2.03027233923392  1.20276298969897
 6  10.97821865436544  0.15329450485048  2.50389095039504
 6 -11.45320981848185 -0.10570892939294 -2.69681193939394
 6 -8.50461656195620  0.77913289568957 -0.34025764826483
 6  9.22602753205321 -0.41081885768577  0.05326541034103
 6  11.18680862636264 -1.34485745254525 -2.05318492319232
 6 -7.10404172707271  0.50947818961896 -0.15961805110511
 6  8.80895735213521 -1.67747754525453 -0.11836697769777
 6 -6.66752817431743 -0.91152990989099  0.12785567416742
 6  7.36503499099910 -2.12591546354635 -0.20147120942094
 6 -6.23510328632863  1.54508808330833 -0.39440129672967
 6  7.03493668786879 -3.56727044924492  0.02212243044304
 6  6.36657392639264 -1.19775006370637 -0.38536087848785
 6 -4.77230120382038  1.45970951015102 -0.38050896429643
 6  5.02854370027003 -1.51561940484048 -0.22755053525353
 6 -3.98721009340934  2.57410043624362 -0.67550873987399
 6 -2.58364880298030  2.71222918051805 -0.67298004580458
 6  3.99652361786179 -0.49082958905891 -0.31777129352935
 6  2.62137918651865 -0.77466193769377 -0.34897985058506
 6 -1.95318386858686  4.09336391899190 -0.69982913031303
 6 -1.76669375487549  1.54233697809781 -0.44397041344134
 6  1.72325087008701  0.28881044254425 -0.58666722862286
 6  2.30321364246425 -2.17874066136614  0.16671903980398
 6 -0.33883614251425  1.57328865016502 -0.51895525532553
 6  0.42706753755376  0.33798546634663 -0.38810207100710
 1 -10.96760350185018  1.32161394669467 -0.22932477767777
 1 -12.26290976407641 -1.68921893559356  2.49353724842484
 1 -10.65236290589059 -1.88901809680968  1.58170145274527
 1 -12.54697833143314 -3.14721382868287  0.51415627772777
 1 -9.96601200250025  0.01666334193419  2.49908853275328
 1 -10.52819298589859  1.81165424242424  2.34624934683468
 1 -11.54680227252725  0.89783320232023  3.36854103190319
 1 -13.68294949674967  0.43664966726673  0.57402387268727
 1 -13.48677444804481  0.95220682808281  2.15788979097910
 1 -12.66288497389739  1.97593121492149  0.76127661096110
 1  12.39884725142514  2.28308325782578  0.15145298849885
 1  12.81583601070107  1.89283332223222  1.86233383458346
 1 -12.53556703530353 -2.22885968246825 -1.87373156385639
 1  13.41726131093109 -0.28976872267227  1.26911724762476
 1 -8.94085645134514 -1.04503936293629  0.09625718571857
 1  13.39607475157516 -1.12285532483248 -1.09209436543654
 1  13.18569498699870  0.50403898179818 -1.68534845864586
 1  8.97399409700970  1.74401445324532  1.53715896329633
 1  9.63308517011701  2.45340794319432  0.27215413091309
 1  10.48008168146815  2.78543351505151  1.74934108510851
 1  11.60690353165317 -0.74304155275528  2.48479490089009
 1  9.94923989458946 -0.20664320532053  2.80572370047005
 1  11.50041094019402  0.83975177197720  3.43084802780278
 1 -10.25666816481648  0.09605951665166 -2.93057045274527
 1 -12.11748080438044  0.76150214871487 -2.80941800710071
 1 -11.71798964406441 -0.86424517581758 -3.40338809640964
 1 -14.52975624892489 -2.70813976657666  0.17043884008401
 1  8.55144421242124  0.42079230443044  0.21056370257026
 1 -8.82963813271327  1.84543619641964 -0.27090241064106
 1  11.82889862436244 -2.25430692669267 -2.16557940944094
 1  10.13875674207421 -1.66209231093109 -2.16230216421642
 1  11.58427772147215 -0.75473856395640 -2.76524247234723
 1  15.28614779507951  1.46341444124412  0.85922389128913
 1  9.45859563586359 -2.50711379307931 -0.18146458895890
 1 -5.47385184618462 -1.09401655235524  0.34139153595360
 1 -7.08606750485048 -1.08751072427243  1.08851110351035
 1 -7.05041127632763 -1.71471992019202 -0.56953516831683
 1 -6.54578686518652  2.57568636373637 -0.60215341704170
 1  6.28579212821282 -3.69348277087709  0.83061275697570
 1  6.63260060526053 -4.17293248104810 -0.85303489468947
 1  7.98191808920892 -4.03693987858786  0.32392936023602
 1  6.64752317921792 -0.13248048744874 -0.59757187908791
 1 -4.28075030663066  0.50797046224622  0.07259120152015
 1  4.68830243374337 -2.41386063906391  0.28558089728973
 1 -4.56806285198520  3.50832881468147 -0.97374703020302
 1  4.39161923812381  0.38945628452845 -0.31712092949295
 1 -1.25117487568757  4.21929337603760 -1.49839811171117
 1 -1.29177201560156  4.53866102340234  0.27099513971397
 1 -2.69586907500750  4.82525494099410 -0.78468676237624
 1 -2.45478435883588  0.68982560806081 -0.34564929492949
 1  2.20223926602660  1.35728971817182 -0.70233724882488
 1  2.85977450515052 -2.45527192959296  1.08740711921192
 1  1.17808287958796 -2.41138042914291  0.20060877577758
 1  2.42915566496650 -2.70559834703470 -0.74615885888589
 1  0.09862574747475  2.46788662836284 -0.62711970347035
 1 -0.35764866086609 -0.58394856465647 -0.22435309030903

