%nproc=4
%Mem=4GB
# td=(NStates=1) CAM-B3LYP/6-31G(d,p) 

TD

0 1
 8 -14.06399227442744 -1.94537291899190  0.38747900320032
 8  14.79990182698270  0.90118770537054  0.02322291819182
 6 -11.81940480008001 -0.04523844894489  1.28949376937694
 6 -10.94949191169117  0.34420719171917  0.08608232103210
 6 -11.97443292389239 -1.63398788318832  1.33237107840784
 6 -12.74570796429643 -2.06225729052905  0.13641779267927
 6 -11.64699998889889 -0.45623310161016 -1.28210370027003
 6  11.15336866746675  1.01831347384738  0.98731901160116
 6 -10.94802627582758  0.46308804760476  2.58612566326633
 6 -13.10335649804981  0.63858950585059  1.28097917471747
 6  12.60404758525853  1.52660208670867  0.63698108430843
 6 -12.38406939283928 -1.52146001380138 -1.16037880658066
 6  13.56216783768377  0.29249692229223  0.33794111301130
 6  10.71676115041504 -0.05502491269127  0.03608719381938
 6 -9.54473323722372 -0.07861070927093 -0.05689568196820
 6  13.10212819041904 -0.43179039843984 -0.86270185648565
 6  11.51204429322932 -0.57343238853885 -0.88993405220522
 6  10.20129701530153  2.27520683268327  0.77861057445745
 6  11.00524135663566  0.32818199359936  2.37630819211921
 6 -11.27545204270427  0.15050669216922 -2.65616787498750
 6 -8.58833493379338  0.90633561596160 -0.26485010751075
 6  9.25428035733573 -0.39806758255826  0.02681276507651
 6  11.08638858435843 -1.55451841864186 -2.01761136583658
 6 -7.11455277817782  0.46703394519452 -0.11496358565857
 6  8.76772322872287 -1.63588338583858 -0.08256339733973
 6 -6.77642906440644 -0.95673443034303  0.15989887848785
 6  7.36600508800880 -2.11123399539954 -0.07776883918392
 6 -6.21664144014401  1.47816139063906 -0.40554241084108
 6  7.07905109930993 -3.56620034223422  0.15581579977998
 6  6.39578684768477 -1.18889917861786 -0.25274761716172
 6 -4.69923389708971  1.50048358755876 -0.47631854525453
 6  4.94615546144614 -1.55783362626263 -0.13252103230323
 6 -3.91778315071507  2.61995502170217 -0.53861505050505
 6 -2.53913435153515  2.66085404300430 -0.53900664846485
 6  3.99380334583458 -0.48581908800880 -0.10782029842984
 6  2.59712676127613 -0.66636110761076  0.10092513991399
 6 -1.88304685488549  4.00602518511851 -0.83586273367337
 6 -1.75908299379938  1.57725046944694 -0.52968898529853
 6  1.79731827682768  0.38143970547055 -0.03418198009801
 6  2.07741106220622 -2.07873066036604  0.20859322722272
 6 -0.39731199009901  1.53235455675568 -0.37431079087909
 6  0.40681551235124  0.39393106090609 -0.14999826062606
 1 -11.12566930843084  1.28802058735874 -0.07741958715872
 1 -12.61399487258726 -1.83808382208221  2.22479037373737
 1 -11.11429909950995 -2.21601079607961  1.68467174977498
 1 -12.70355398899890 -3.19793890119012  0.17296215831583
 1 -10.14027942924293 -0.06146447084708  2.93687231113111
 1 -10.72331249784978  1.47902097909791  2.24832955485549
 1 -11.55667325962596  0.56431985098510  3.48440261806181
 1 -13.72259346114611  0.24709071137114  0.53891036133613
 1 -13.81099687028703  0.43651525892589  2.13294729672967
 1 -12.99511819721972  1.73447706950695  1.07428791209121
 1  12.32402976967697  2.19557450695069 -0.42043420022002
 1  12.95712013911391  2.03829786868687  1.42693029422942
 1 -12.83842732133213 -1.90335713221322 -2.18385257595760
 1  13.48747833263326 -0.42818256405641  0.99892022792279
 1 -9.19949231493149 -1.04891975097510  0.07491505150515
 1  13.65305044914492 -1.32004504380438 -1.23858901490149
 1  13.27841425892589  0.28172675057506 -1.73951387518752
 1  9.09304600220022  1.97556760856086  1.04882012941294
 1  10.21875373697370  2.69910251265127 -0.32043512801280
 1  10.61965563886389  3.21752672437244  1.54628077907791
 1  11.67551039233923 -0.56680392899290  2.35638205960596
 1  9.87779274987499  0.21671913091309  2.69290241834183
 1  11.59384028312831  0.98903670047005  3.20491543454345
 1 -10.24894739273927  0.33648355905591 -2.83988138383838
 1 -11.74344340064006  1.22332833133313 -2.87454451975198
 1 -11.45887373247325 -0.47279603090309 -3.53827158475848
 1 -14.44624789808981 -2.20029898249825 -0.45637384118412
 1  8.64916398439844  0.40262048724872  0.27388003420342
 1 -8.78399356825683  1.95450710351035 -0.27419273967397
 1  11.39526526102610 -2.55923741974197 -1.77486033753375
 1  10.03869673607361 -1.45671177287729 -2.16412234623462
 1  11.44438373207321 -1.51577466756676 -3.13608955705571
 1  15.24552373267327  1.23488158795880  0.81654962386239
 1  9.43993376967697 -2.38284136583658 -0.06848329082908
 1 -5.73432789378938 -1.26868401910191  0.36424382118212
 1 -7.28512741084108 -1.38793076627663  1.16290854325433
 1 -7.32003823902390 -1.61656010421042 -0.58759697449745
 1 -6.71821410791079  2.48791758685869 -0.84423762546255
 1  6.37688123712371 -3.48313173577358  1.23605330103010
 1  6.59743708890889 -4.13464865266527 -0.78247783898390
 1  7.92018191559156 -4.18007419201920  0.61252822012201
 1  6.56242466936694 -0.10078731813181 -0.14129625152515
 1 -4.25046727832783  0.58405807100710 -0.19674573217322
 1  4.68581218471847 -2.62025127812781 -0.02022968376838
 1 -4.52679872557256  3.47038502030203 -0.43288294379438
 1  4.41862193839384  0.48646598549855 -0.63216243364336
 1 -1.44366412461246  3.93955540224022 -1.85297356925693
 1 -1.13970680908091  4.39134629192919 -0.12982494229423
 1 -2.47031651975198  4.76616903240324 -0.88360665436544
 1 -2.28309719011901  0.45876250175017 -0.14451918191819
 1  2.33165220732073  1.31440542974297 -0.40125714081408
 1  2.43150167786779 -2.62923932633263  1.11725010351035
 1  0.96938200950095 -2.05119441054105  0.47738645354535
 1  2.34489723912391 -2.53281106830683 -0.69779402240224
 1  0.20225611051105  2.42401224092409 -0.44723171467147
 1 -0.25621851785179 -0.40749091889189  0.10388973397340

