%nproc=4
%Mem=4GB
# td=(NStates=1) CAM-B3LYP/6-31G(d,p) 

TD

0 1
 8 -14.09760563576358 -2.01139952165217  0.51410166546655
 8  14.70244208100810  0.94342192879288  0.18623921982198
 6 -11.70200305990599  0.02164823972397  1.32749756975698
 6 -10.98143510601060  0.24338710971097 -0.00396668386839
 6 -11.93672915351535 -1.54556904130413  1.44069191049105
 6 -12.76267966146615 -2.08658972377238  0.27236138703870
 6 -11.66907219611961 -0.31321880018002 -1.21020651055106
 6  11.11825515611561  1.03731537403740  1.06311659135914
 6 -10.78848032123212  0.45589732853285  2.50188723942394
 6 -13.05633179557956  0.81403705060506  1.46196727352735
 6  12.51483866436644  1.52682210871087  0.78690607680768
 6 -12.43862484838484 -1.44032189999000 -1.09004177287729
 6  13.49140076097610  0.39287696029603  0.50289760866087
 6  10.63930340464047 -0.01557096729673  0.00536412151215
 6 -9.49777854175418 -0.02850569876988  0.07707771537154
 6  13.09167714531453 -0.28131535093509 -0.84807039333933
 6  11.55094818361836 -0.56456150145015 -0.83003806260626
 6  10.14007089268927  2.28261757375738  1.06320903430343
 6  10.99810064256426  0.43233240864086  2.41181174247425
 6 -11.38184268176818  0.35656729822982 -2.56379863806381
 6 -8.54190029032903  0.79439442184218 -0.17391101360136
 6  9.28290321962196 -0.45031280708071 -0.00519043524352
 6  11.27879782528253 -1.53880684748475 -1.89157876257626
 6 -7.10162148504851  0.50949819161916 -0.08819090839084
 6  8.76510296669667 -1.68736853435344 -0.01646678767877
 6 -6.69999142064206 -1.00944970187019 -0.07747485888589
 6  7.38829731723172 -2.10469334133413 -0.04257531983198
 6 -6.15541531753175  1.51282485698570 -0.27650950755076
 6  7.17269046324632 -3.60282400460046  0.24421463966397
 6  6.40291756075607 -1.20618090679068 -0.20316265866587
 6 -4.79649362306231  1.44670821002100 -0.29857077047705
 6  5.01611245714571 -1.54648249114911 -0.18896667686769
 6 -4.02536390879088  2.53151617781778 -0.51163235223522
 6 -2.58915935403540  2.63213117071707 -0.60756350415041
 6  3.95863982948295 -0.64285479157916 -0.39839935633563
 6  2.63271031963196 -0.80638511001100 -0.26123107570757
 6 -1.87408595879588  3.94634921752175 -1.10864001140114
 6 -1.78349543504350  1.49288203260326 -0.51233725012501
 6  1.72985153015302  0.19518107960796 -0.54986354825483
 6  2.00955427652765 -2.18561134843484 -0.04192182428243
 6 -0.33819607850785  1.52203352465247 -0.60662402220222
 6  0.39506433723372  0.37313898169817 -0.45257851865187
 1 -11.23620036153615  1.33334511981198 -0.20370221542154
 1 -12.40560403350335 -2.00457047074707  2.44586248094809
 1 -10.92189985958596 -1.94299349434943  1.69385266786679
 1 -12.36037967156716 -3.16197530483048  0.17806266836684
 1 -9.79760516181618 -0.14886321072107  2.44223284718472
 1 -10.62498266486649  1.64697777477748  2.41176589848985
 1 -11.15123271557156  0.21564498349835  3.44661883968397
 1 -13.64710591239124  0.42686868916892  0.63000947124712
 1 -13.55760153075308  0.52918452585259  2.35687968996900
 1 -12.89682836823682  1.78955257705771  1.56943742704270
 1  12.40443781048105  2.21548649814981  0.07104494769477
 1  12.78952337943794  1.94548858775878  1.71853945514551
 1 -12.87218069666967 -1.96121291779178 -2.00361455215522
 1  13.60609019381938 -0.29241898769877  1.24784512041204
 1 -9.18581094679468 -1.08382324132413  0.04744230423042
 1  13.44778992309231 -1.21853489278928 -1.12300745674567
 1  13.39007542504250  0.28011658955896 -1.72797272107211
 1  9.16070276787679  2.07753780558056  1.67507275467547
 1  10.03144500610061  2.71610421282128 -0.04365745024502
 1  10.72011568486849  3.08287325902590  1.45874202520252
 1  11.72641548284829 -0.26335358395840  2.60248667006701
 1  10.10169514011401 -0.15193773477348  2.51725485358536
 1  11.04136503560356  1.32058985578558  3.04003894689469
 1 -10.40065256325633  0.40866077677768 -2.61596899259926
 1 -11.80905996229623  1.46582258075808 -2.45600266556656
 1 -11.82996084118412 -0.24202295359536 -3.42782053965397
 1 -14.67516078937894 -2.19829878247825 -0.15498370217022
 1  8.37983705170517  0.37880810601060  0.07573021922192
 1 -8.80807597649765  1.99305095789579 -0.03759908030803
 1  11.74525025952595 -2.51581307730773 -1.48954180568057
 1  10.14843771017102 -1.72091819351935 -2.11928786278628
 1  11.59950924462446 -1.34956804690469 -2.81591753985399
 1  15.12171135143514  1.30520862066207  0.98163613251325
 1  9.52880265656566 -2.61906498819882  0.10821437893789
 1 -5.57721218221822 -1.15902305300530 -0.24246684988499
 1 -7.10397929602960 -1.31309328252825  0.90453270567057
 1 -7.41446768196820 -1.55354380258026 -0.68393660846085
 1 -6.63530581708171  2.55633442854285 -0.28496169786979
 1  6.57617116611661 -3.75673909650965  1.19476917261726
 1  6.57669501470147 -3.93715890369037 -0.70083967516752
 1  8.35605550295029 -4.00667685228523  0.47158412571257
 1  6.36056448334833 -0.22773001240124 -0.53933605550555
 1 -4.29632186378638  0.51290095529553 -0.04229028662866
 1  4.69920352385239 -2.47067632063206 -0.17588524932493
 1 -4.34593063876388  3.54812279407941 -0.56911656715672
 1  4.24135421162116  0.44882222112211 -0.42261147854785
 1 -1.57633739193919  3.64298574527453 -2.08077634953495
 1 -1.30003284168417  4.54746190349035 -0.44156611641164
 1 -2.67045653375338  4.54782719821982 -1.34222251595159
 1 -2.23831271167117  0.44843146864686 -0.50104483448345
 1  2.00981002310231  1.18900288948895 -0.88206522162216
 1  2.49876840454045 -2.81945834823482  0.81545992449245
 1  0.98872394369437 -2.27574686578658 -0.17774906000600
 1  2.38842159155916 -2.81505929312931 -1.01584582758276
 1  0.17979386428643  2.40994083378338 -0.98648564006401
 1 -0.19484238023802 -0.39285945574557 -0.12663331833183

