%nproc=4
%Mem=4GB
# td=(NStates=1) CAM-B3LYP/6-31G(d,p) 

TD

0 1
 8 -14.07870374557456 -2.10063844554455  0.11156141144114
 8  14.81488332513251  0.78539612621262 -0.26528593269327
 6 -11.88969182878288 -0.06367029212921  1.28391321132113
 6 -10.95418238073807  0.30120289128913 -0.00838712591259
 6 -12.05892137273727 -1.59437392179218  1.27048488978898
 6 -12.71038443194320 -2.16807787258726  0.00586473737374
 6 -11.47384267316732 -0.47145462376238 -1.28992448234823
 6  11.29690302090209  0.89304094659466  0.97191747144714
 6 -11.11694316751675  0.37841958075808  2.48958600930093
 6 -13.17663382578258  0.65162080898090  1.22070314711471
 6  12.60976815731573  1.40021944844484  0.53927131333133
 6 -12.16837782368237 -1.63198106590659 -1.25993876257626
 6  13.58700032093209  0.31731940454045  0.12564988388839
 6  10.70417989228923 -0.12457186738674  0.00813439853985
 6 -9.58313707760776 -0.10740358855886  0.11918192579258
 6  12.95296327392739 -0.43342056145615 -1.07979356565657
 6  11.39951304010401 -0.68752379767977 -0.96767182598260
 6  10.37784467006701  2.22501181318132  1.06470918431843
 6  11.27687852035204  0.34019319471947  2.38049861116112
 6 -11.00301479897990  0.24291593309331 -2.53592585078508
 6 -8.53809991029103  0.72912789518952 -0.00265388788879
 6  9.34953988328833 -0.46183395919592  0.20570065386539
 6  10.96191613711371 -1.58773173997400 -2.07399700440044
 6 -7.06282760566057  0.47775501730173 -0.00367245654565
 6  8.78588504490449 -1.65018481598160  0.07867272627263
 6 -6.65806722822282 -0.91651040794079  0.48482137073707
 6  7.34162264976498 -2.00633350535054  0.10068900660066
 6 -6.24124390039004  1.64697827232723 -0.30340219681968
 6  6.97223041724172 -3.47569129132913  0.31454167236724
 6  6.36602387138714 -1.12924321302130  0.02015967356736
 6 -4.85794976867687  1.56118965816582 -0.28882979637964
 6  4.91040188608861 -1.35571341424142  0.18574079387939
 6 -3.95671704410441  2.59885291149115 -0.65418660766077
 6 -2.65038547664766  2.68621657925793 -0.60390313811381
 6  3.97991195669567 -0.37487799389939 -0.18570808720872
 6  2.58453550215021 -0.65895036653665 -0.12510746334633
 6 -1.96812536273627  4.03736831943194 -0.98025717311731
 6 -1.77502458795880  1.58298104250425 -0.47168318471847
 6  1.75491403640364  0.47993955545555 -0.15033359525953
 6  2.08159148024802 -2.02181496879688  0.16787915581558
 6 -0.41028328722872  1.66536785808581 -0.40936429622962
 6  0.32949778057806  0.48573024082408 -0.18583184398440
 1 -11.10351709320932  1.33640542584258 -0.20275212041204
 1 -12.92654612771277 -1.78221823552355  2.06067396209621
 1 -11.20908857845784 -1.99703889888989  1.35384866746675
 1 -12.25249888348835 -3.26505561286129  0.15518038013801
 1 -10.11524692599260 -0.07370569496950  2.61639026292629
 1 -10.78064823142314  1.37998107510751  2.42550727262726
 1 -11.58905649794979  0.39839325832583  3.31707588538854
 1 -13.71045224702470  0.56790279257926  0.03963043334333
 1 -13.81023679427943  0.10348195559556  2.06758076007601
 1 -12.96592527792779  1.75771939373937  1.52923340664066
 1  12.63387075377538  2.08895384488449 -0.35314747154715
 1  13.16170059715972  1.93212725162516  1.31458906010601
 1 -12.36148962756276 -2.23383017951795 -2.23868805950595
 1  13.67046663146315 -0.45941568736874  0.81624196009601
 1 -9.31669403510351 -1.04192905190519  0.38342590259026
 1  13.62569771387139 -1.54360740004000 -1.30472562856286
 1  12.94241065856586  0.33951252915292 -1.86385630943094
 1  9.25773247084708  1.97638769056906  1.44684993239324
 1  10.17148901050105  2.42375497789779 -0.03582666716672
 1  10.82187586088609  3.05529050075008  1.64974112511251
 1  12.17320016131613 -0.18237548614862  2.44991141254125
 1  10.42637760836084 -0.22075461646165  2.52769589768977
 1  11.49525042414241  1.12042983978398  3.10869581258126
 1 -9.96338883688369  0.65039495019502 -2.77610500620062
 1 -11.67482653895390  1.17855385388539 -2.57418448374837
 1 -11.27840568566857 -0.12024077537754 -3.69374713231323
 1 -14.47354062736274 -2.24475342794279 -0.84674287808781
 1  8.69285835383538  0.33914413961396  0.78037068326833
 1 -8.90662583148315  1.78139979277928 -0.34332965336534
 1  11.17686342084209 -2.86475797179718 -1.84147699919992
 1  9.89559242564257 -1.50899700140014 -2.38147408140814
 1  11.59090838453845 -1.23464655475548 -2.96364231233123
 1  15.36143532383238  0.99207730753075  0.66370433933393
 1  9.47997777407741 -2.53122620432043 -0.00353679617962
 1 -5.54955941694169 -1.05744289498950  0.74202159895990
 1 -7.21348024612461 -1.15188716191619  1.39007125952595
 1 -7.03910014521452 -1.54538298649865 -0.26841505630563
 1 -6.81002328882888  2.76591538663866 -0.55517871957196
 1  6.72916646564656 -3.90238366096610  1.25654535023502
 1  6.38793613881388 -3.82311749954995 -0.31826141734173
 1  7.82761265866587 -4.29924610921092  0.14270123742374
 1  6.56441486838684 -0.01840908030803 -0.35854797669767
 1 -4.46357858945895  0.57055672087209 -0.06992304990499
 1  4.62840644414441 -2.29227848084808  0.20148248744874
 1 -4.79489553525353  3.43092107390739 -0.91484113961396
 1  4.37619769596960  0.57382472137214 -0.55290450785079
 1 -1.16148590679068  4.01974342104210 -1.74071234313431
 1 -1.35482832123212  4.18688584588459 -0.05812777257726
 1 -2.74231371947195  4.83574599009901 -1.05286358005801
 1 -2.29451833223322  0.63741036653665 -0.29256398639864
 1  2.17575661776178  1.56343033223322 -0.37168418351835
 1  2.52957148484849 -2.17474387678768  1.33998237673767
 1  1.03590866216622 -2.15730502160216  0.16943565846585
 1  2.14359710911091 -2.87704549174917 -0.34024826782678
 1  0.11626751165116  2.71798163786379 -0.26670366186619
 1 -0.19468236423642 -0.53731390119012 -0.27845850085009

