%nproc=4
%Mem=4GB
# td=(NStates=1) CAM-B3LYP/6-31G(d,p) 

TD

0 1
 8 -14.02020789598960 -2.07114549624962  0.25375563086309
 8  14.80592242904290  0.75236282288229 -0.13952335643564
 6 -11.73035589518952 -0.10793471857186  1.26953177317732
 6 -10.92883984648465  0.39880265126513 -0.04053034023402
 6 -11.78766424702470 -1.64232871727173  1.24497233853385
 6 -12.63078647214721 -2.19402046684668 -0.04219006810681
 6 -11.51582687158716 -0.34336181448145 -1.28976446634663
 6  11.22023535413541  0.99438108060806  0.95589586928693
 6 -11.03354482768277  0.28149988878888  2.63984103480348
 6 -13.17739390179018  0.46484213111311  1.29313038983898
 6  12.67468464896490  1.32221164766477  0.64562194839484
 6 -12.27531851775178 -1.50702857065707 -1.29877264596460
 6  13.54732635353535  0.15122279487949  0.25458277717772
 6  10.73117259155916 -0.06352576277628  0.01100468556856
 6 -9.52064082798280 -0.02054490269027 -0.00596058845885
 6  12.98753673127313 -0.42172939233923 -1.02645823212321
 6  11.48374146294629 -0.60924596989699 -0.97363242204220
 6  10.41472835843584  2.28062737473747  0.74520723412341
 6  11.03616444894489  0.39773894929493  2.42941350265026
 6 -11.27788228572857  0.43678532003200 -2.60553281148115
 6 -8.52086818711871  0.90248523092309  0.09810618811881
 6  9.23188811811181 -0.40113788958896  0.06674675847585
 6  11.00695064056405 -1.49360232703270 -2.08009761446145
 6 -7.06556787968797  0.56263350515052 -0.06012810211021
 6  8.77640409680968 -1.66432623012301  0.08719357835784
 6 -6.75076649814982 -0.80898965586559  0.28715160376038
 6  7.37989647714771 -1.99972284428443  0.10383932163216
 6 -6.20264004000400  1.52490606510651 -0.27223908050805
 6  6.96232942714271 -3.45117884008401  0.43432365056506
 6  6.36443371237124 -1.18619890859086 -0.06881922432243
 6 -4.81218519221922  1.55116865606561 -0.35134604800480
 6  4.92429327522752 -1.44573241614161  0.05533775357536
 6 -4.12560393279328  2.65230825702570 -0.62166335533553
 6 -2.72753319141914  2.68161611921192 -0.70682343014301
 6  3.99554351985199 -0.44450495659566 -0.04895441184118
 6  2.59163621222122 -0.66645111661166 -0.00623557615762
 6 -2.05505405560556  4.00980556315632 -0.95183433083308
 6 -1.89272635813581  1.50803354775478 -0.46266228262826
 6  1.72007055205521  0.34219578107811 -0.25863442534253
 6  2.18280160126013 -2.11828461576158  0.39420178807881
 6 -0.46659891879188  1.51459278057806 -0.51328468826883
 6  0.32112694349435  0.37262893069307 -0.24499776057606
 1 -10.89710645214521  1.36251803710371 -0.14519636483648
 1 -12.48152162526253 -1.85639565326533  1.87745564026403
 1 -10.87928559815982 -2.41971116611661  1.46089937253725
 1 -12.14029766336634 -3.18020712801280 -0.09087422532253
 1 -10.09551495279528 -0.34489281368137  2.82990161406141
 1 -10.83078324492449  1.47486056305630  2.81737645954595
 1 -11.75769336163616 -0.21936851785179  3.45918009580958
 1 -13.88938013981398  0.32136813911391  0.40646711701170
 1 -13.66384215481548  0.18158976637664  2.20492449444945
 1 -12.92465115051505  1.54272789458946  1.40848133143314
 1  12.96814418111811  1.98577352685269 -0.37542969976998
 1  13.22708713581358  1.79370340924092  1.46647424862486
 1 -12.49821329993000 -1.92002879937994 -2.36846103680368
 1  13.80813039783979 -0.60106985278528  0.98579891579158
 1 -9.46673903960396 -1.14674953395340  0.03421098109811
 1  13.47595273937394 -1.27945098439844 -1.21027618361836
 1  13.22856927442744  0.32852143004300 -1.66159608340834
 1  9.61893859145915  2.24157420922092  1.13541878927893
 1  10.39043090469047  2.96335893829383 -0.14591767626763
 1  11.11910558385838  2.84949992169217  1.40319647064706
 1  11.73404624592459 -0.45081232983298  2.46904332573257
 1  9.96040101070107  0.26106356535654  2.64885801390139
 1  11.38057895699570  1.20325812261226  3.15890083308331
 1 -10.19680217821782  0.88952886358636 -2.75597299299930
 1 -12.07776683298330  1.24759075757576 -2.59559662496250
 1 -11.49772761786179 -0.20378913021302 -3.49418717631763
 1 -14.55838911221122 -2.57884683728373 -0.65562376617662
 1  8.70299936793679  0.59196942214221  0.34297694389439
 1 -8.71799696859686  1.97309896269627  0.06712139173917
 1  11.02833856835684 -2.63690518651865 -1.89494234573457
 1  10.02865573197320 -1.01850795249525 -2.50584651865187
 1  11.67476677037704 -1.31653474357436 -3.07109305740574
 1  15.12655183548355  1.56783488328833  0.47414538343834
 1  9.57989776607661 -2.46123920562056 -0.08070451295130
 1 -5.68611307230723 -0.86436358705871  0.11530892769277
 1 -6.83882278037804 -1.08419039223922  1.40507275967597
 1 -7.53203943914392 -1.72464091229123 -0.17597581238124
 1 -6.68230051655166  2.33706250135013 -0.74104730643064
 1  6.63407695669567 -3.57363078567857  1.45037473317332
 1  6.32029937513751 -4.00513570137014 -0.34437402860286
 1  8.02352224962496 -3.86235241984198  0.54093106040604
 1  6.77025545244524 -0.04758199759976 -0.15295741764176
 1 -4.41047327892789  0.59430909610961 -0.50958701630163
 1  4.65015861936194 -2.47319657265727  0.29633197239724
 1 -4.61462750845084  3.47075505730573 -0.79997965346535
 1  4.53006308250825  0.37257459635964 -0.40485970337034
 1 -1.24523428162816  3.82929437613761 -1.81167943984398
 1 -1.26118895729573  4.08355551285129 -0.18903086288629
 1 -2.68080756885689  4.84526694219422 -1.11252954665467
 1 -2.29766864726473  0.60057668316832 -0.53969869986999
 1  2.11937097919792  1.20195418461846 -0.42636965206521
 1  2.66298482618262 -2.32096849924992  1.43816219471947
 1  1.16447151845185 -2.16172546364636  0.48307702260226
 1  2.68413116251625 -2.69628741594159 -0.41797604060406
 1 -0.00225434053405  2.50354019371937 -0.44588157965797
 1 -0.19726262226223 -0.60509067886789 -0.21899255425543

