%nproc=4
%Mem=4GB
# td=(NStates=1) CAM-B3LYP/6-31G(d,p) 

TD

0 1
 8 -14.13734961016102 -1.89911829352935  0.47532778807881
 8  14.77607944474447  0.96527411401140 -0.06245564966497
 6 -11.79335219481948  0.06322239713971  1.31063588358836
 6 -10.97465442794280  0.36586935793579 -0.04883117031703
 6 -11.82021750235023 -1.43896838123812  1.31839968126813
 6 -12.74568796229623 -2.19451051585159  0.21459561046105
 6 -11.73805909480948 -0.28094557285729 -1.23784927482748
 6  11.17820115071507  0.99701134363436  1.03581386108611
 6 -11.00980245344534  0.66910864966497  2.41503855455546
 6 -13.12917908030803  0.75117076397640  1.21344242104210
 6  12.39374655515552  1.58278770527053  0.58710609680968
 6 -12.46903788968897 -1.41018888668867 -1.11676444514451
 6  13.47237885878588  0.55464313691369  0.15443276217622
 6  10.64146362066207 -0.04139354955496 -0.05403181808181
 6 -9.56754551845185 -0.17242009020902 -0.10753074547455
 6  12.95070304790479 -0.19372659205921 -1.06222180848085
 6  11.50096318511851 -0.59457450275028 -0.96558161696170
 6  10.22854974057406  2.14564387638764  1.23188590199020
 6  11.14100493299330  0.28636781218122  2.31388194949495
 6 -11.36274077157716  0.31555319681968 -2.61467372557256
 6 -8.54304040434043  0.73988897129713 -0.21435505800580
 6  9.27369229852985 -0.52400017581758  0.14948503230323
 6  11.07576752225222 -1.44253722052205 -2.13189279397940
 6 -7.09372069496950  0.44798204000400 -0.15802789208921
 6  8.81249770617062 -1.81001079857986 -0.08480362136214
 6 -6.64618604010401 -1.02343110001000 -0.15377248864886
 6  7.38112660016002 -2.10502337433743 -0.01124218651865
 6 -6.14880465646565  1.43018659315932 -0.39514137073707
 6  7.07680087428743 -3.56880060226023  0.22812303050305
 6  6.45581285028503 -1.24111440014001 -0.21012335473547
 6 -4.69898387208721  1.35202874207421 -0.46780769416942
 6  5.06189703560356 -1.41811965486549  0.06353857365737
 6 -3.89412078447845  2.52417544374437 -0.60944213321332
 6 -2.56474691279128  2.51487944554455 -0.53871661946195
 6  3.97738170367037 -0.53327383348335 -0.10648016441644
 6  2.69714676327633 -0.73630810231023  0.06416146354636
 6 -1.80083863406341  3.79616419901990 -0.83724287168717
 6 -1.76648373387339  1.36848959335934 -0.34974099049905
 6  1.79805835083508  0.40522208370837 -0.20234879677968
 6  2.10344366546655 -2.06146893419342  0.53763613151315
 6 -0.39456171507151  1.40076139743974 -0.38173153295330
 6  0.37883271407141  0.35768743654365 -0.20859412021202
 1 -10.92834957645765  1.34105589088909 -0.37504935013501
 1 -12.50998447154715 -1.87020703440344  2.35903379807981
 1 -10.96713438303830 -1.82921211621162  1.51322460506051
 1 -12.59229286288629 -3.18204731203120  0.03557841994199
 1 -9.95699110041004  0.28277995359536  2.65187381128113
 1 -10.83866403300330  1.78488156515652  2.32846756865687
 1 -11.41549914221422  0.26112953195320  3.36850102790279
 1 -13.74261546334633  0.44549055135514  0.19034550485048
 1 -13.75581135173517  0.54358596599660  2.17038104010401
 1 -13.03156184158416  1.65776939873987  1.24057454075408
 1  12.33903126982698  2.39256420592059 -0.25980813761376
 1  12.82557698479848  2.04190822972297  1.54637223842384
 1 -12.71347482608261 -1.94941173767377 -2.02092628332833
 1  13.53180276507651 -0.31031077687769  0.85427576347635
 1 -9.33666603230323 -1.36701156015602  0.05727328732873
 1  13.41143628772877 -1.13294633393339 -1.39564472047205
 1  13.04187060456046  0.53467204510451 -1.96187611141114
 1  9.27393409100910  2.01783183498350  1.69971521892189
 1  10.08406026762676  2.89156175857586  0.30522743824382
 1  10.74747842114211  2.92403737543754  1.78420457145715
 1  11.93511635293529 -0.52684993359336  2.13610003140314
 1  10.17111208180818 -0.24681722272227  2.42377550565056
 1  11.32037293639364  0.74728252505251  3.28623356635664
 1 -10.16759925792579  0.23293320402040 -2.60748814451445
 1 -11.65717477377738  1.41252725122512 -2.45951301660166
 1 -11.74601244634463 -0.06123487478748 -3.54415217281728
 1 -14.38001127442744 -2.15954490709071 -0.38143634743474
 1  8.51704077207721  0.11632185738574  0.79531217741774
 1 -8.84392956185619  1.75022667546755 -0.26066138653865
 1  11.38760449494949 -2.51657315331533 -1.95579843134313
 1  10.11014388078808 -1.33579968166817 -2.37709364336434
 1  11.67465675937594 -0.94193728382838 -3.01202715081508
 1  14.79832901320132  1.67364546434644  0.80573854275428
 1  9.33276305260526 -2.52659574127413 -0.51962840534053
 1 -5.55707016801680 -1.18436558725873 -0.06987959115912
 1 -7.05162406050605 -1.54152612581258  0.73204545694570
 1 -7.00901713691369 -1.58377682588259 -1.03080129492949
 1 -6.58613089958996  2.45420421552155 -0.40849405110511
 1  6.72855640464046 -3.67417083968397  1.29389908560856
 1  6.52028937413741 -4.02719790759076 -0.53979357055706
 1  7.98279817721772 -4.04342052665266  0.23375034233423
 1  6.61106953385339 -0.13263050245024 -0.26672879477948
 1 -4.10736296789679  0.54004366956696 -0.28853491109111
 1  4.68142174567457 -2.44228348134813  0.10856319551955
 1 -4.47075312101210  3.42255023682368 -0.84659431493149
 1  4.36513658985899  0.63810114901490 -0.34492370977098
 1 -0.98364812301230  3.62347379407941 -1.41513978587859
 1 -1.34176701510151  4.27250440774077  0.20845888608861
 1 -2.63227271537154  4.52158457395740 -1.11692998669867
 1 -2.30056893729373  0.43804042954296 -0.22437716771677
 1  2.30045908800880  1.32833682288229 -0.41610862596260
 1  2.48202673037304 -2.56125252765277  1.42451082958296
 1  0.90856592789279 -2.12669196029603  0.73400211511151
 1  2.40319306870687 -2.93876166336634 -0.21917616061606
 1  0.10101598649865  2.43791363106311 -0.60809780128013
 1  0.08582568656866 -0.55751592139214  0.28853819881988

