%nproc=4
%Mem=4GB
# td=(NStates=1) CAM-B3LYP/6-31G(d,p) 

TD

0 1
 8 -14.01931780698070 -2.15151353305331  0.40170042534253
 8  14.81167300410041  0.71015860246025  0.30655125102510
 6 -11.75690855045505 -0.13344726982698  1.33395821582158
 6 -10.97445440794079  0.23700647164716  0.06352006480648
 6 -11.93374885548555 -1.73454793919392  1.39387722902290
 6 -12.69025241874187 -2.26900796559656  0.08605275617562
 6 -11.50710599949995 -0.40946842514251 -1.13602909280928
 6  11.11379471007101  1.05336697919792  1.01755203490349
 6 -11.15125659885989  0.34113585238524  2.65954300500050
 6 -13.21596775917592  0.49762540944094  1.23337441424142
 6  12.52354953545355  1.37708713521352  0.77410479667967
 6 -12.29858084398440 -1.46085395319532 -1.10506327502750
 6  13.54343596449645  0.16948462106211  0.46035335423542
 6  10.60810028432843 -0.04321373157316 -0.08093450835083
 6 -9.45594435833583 -0.06944979317932  0.23388339593959
 6  13.12865084268427 -0.36949416881688 -0.80302588888889
 6  11.57577066586659 -0.76667171247125 -0.82698775757576
 6  10.31527841344134  2.32993230523052  0.79743245664566
 6  10.84842567506751  0.35623479887989  2.38971953325333
 6 -11.13497799529953  0.18398003950395 -2.50390264846485
 6 -8.55990209050905  0.86757173957396  0.07398377587759
 6  9.28387331663166 -0.45790356615662 -0.04860477667767
 6  11.30404034953495 -1.72865583238324 -1.99120872557256
 6 -7.10337166006601  0.56839408120812 -0.05169725902590
 6  8.69934639103911 -1.66168596609661 -0.09654479547955
 6 -6.55536695819582 -0.77053581048105  0.10385327392739
 6  7.34531301880188 -2.11594446644664 -0.19036009830983
 6 -6.26689646564656  1.68122169666967 -0.31800365696570
 6  7.01389458365837 -3.43992771497150  0.24549476767677
 6  6.38007527652765 -1.20393068176818 -0.35275761816182
 6 -4.79594356805681  1.74100763996400 -0.43451436483648
 6  4.97096794269427 -1.40490833373337 -0.10034781498150
 6 -4.04356572897290  2.78701172737274 -0.72086327532753
 6 -2.56440687878788  2.83294125172517 -0.75651839963996
 6  3.99297326282628 -0.53593409950995 -0.38318783518352
 6  2.55954300290029 -0.68144261576158 -0.23429838243824
 6 -1.95058360856086  4.13812839543954 -1.19745889328933
 6 -1.82683976947695  1.63870661506151 -0.32022803920392
 6  1.73247179217922  0.43313487498750 -0.37591615351535
 6  2.06148947004700 -2.13133592089209  0.19006137403740
 6 -0.47930018891889  1.63447476877688 -0.44342770257026
 6  0.34292912371237  0.45415708350835 -0.33987724852485
 1 -10.90507724922492  1.26162794809481 -0.26086793199320
 1 -12.25974944804480 -1.99681969566957  2.39594748944894
 1 -10.93019068866887 -2.16007520252025  1.52973625622562
 1 -12.39844347794780 -3.34062316961696 -0.05658079597960
 1 -10.13646904820482  0.03604528012801  2.75694431833183
 1 -11.09678984558456  1.49483256025603  2.37128185008501
 1 -11.67058465076508  0.14061748074808  3.62170634843484
 1 -13.66904810661066 -0.13098709640964  0.36556302660266
 1 -13.78680445104511  0.26197780518052  2.21023502550255
 1 -13.04722340774077  1.66869049084909  1.13286376967697
 1  12.68839620632063  2.17203215271527 -0.04945710251025
 1  12.92494692179218  1.90698473737374  1.51835943714371
 1 -12.75330880948095 -2.14083087958796 -2.08037222792279
 1  13.37362694749475 -0.44695444124412  1.17435777167717
 1 -9.15680804650465 -1.15240009900990  0.21216877687769
 1  13.81603674777478 -1.19019205850585 -1.28495365136514
 1  13.14363078057806  0.33748232613261 -1.60389031283128
 1  9.29305600320032  2.27050710251025  1.11036628402840
 1  10.52580444204420  2.55751835423542 -0.17780086458646
 1  10.57589126242624  3.00797576927693  1.57391354235424
 1  11.40645348664867 -0.59701695029503  2.47093351475148
 1  9.81195616621662  0.07497495649565  2.76709983808381
 1  11.13850474957496  0.99564736153615  3.21105604860486
 1 -9.98372087008701  0.16791670237024 -2.65609300500050
 1 -11.27975703200320  1.24210020852085 -2.44475154045405
 1 -11.49999784488449 -0.33281203250325 -3.22859061666167
 1 -14.55786906020602 -2.18398735133513 -0.43112131593159
 1  8.61248031603160  0.48461868706871  0.19151179737974
 1 -8.88965413431343  1.95852750555056 -0.26596191659166
 1  11.77945367986799 -2.66718821482148 -1.51996484798480
 1  10.18674154055406 -1.83871997369737 -2.06583251725173
 1  12.00106940064006 -1.38558164826483 -2.88959490759076
 1  14.89682886318632  1.27418551835184  1.14212218111811
 1  9.44114389068907 -2.49149223092309 -0.01065750825083
 1 -5.53577803880388 -0.73943109380938 -0.03212581578158
 1 -6.88397729582958 -1.15098707190719  1.26630888328833
 1 -6.94782101730173 -1.52193064126413 -0.52786100090009
 1 -6.61391367786779  2.75971476657666 -0.17111031273127
 1  6.52408595759576 -3.43225664826483  1.10305000070007
 1  6.52091943714371 -4.25232041984198 -0.45911550275028
 1  8.00981087848785 -3.87824400900090  0.42951991929193
 1  6.84352277917792 -0.20124736413641 -0.72463458535854
 1 -4.49155138673867  0.89490915611561 -0.10035609320932
 1  4.68189179267927 -2.37895714871487  0.25064740394039
 1 -4.54112015771577  3.67746572837284 -1.22652230773077
 1  3.99834991119112  0.54794213311331 -0.72049126652665
 1 -1.19444920312031  4.18679012571257 -1.99550782268227
 1 -1.54544738313831  4.76010316761676 -0.39481144094409
 1 -2.89428891699170  4.73723613911391 -1.58221651535154
 1 -2.33809268966897  0.78840546604660 -0.01871660166017
 1  2.18107714981498  1.21155514471447 -0.65828284338434
 1  2.51876040374037 -2.50332673507351  1.16391476997700
 1  0.91438650995099 -2.37689698079808  0.35245396029603
 1  2.28979172857286 -2.66147393459346 -0.62257650065007
 1  0.18861474637464  2.55373521322132 -0.57474446594659
 1 -0.28819171517152 -0.35477564736474  0.10613995899590

