%nproc=4
%Mem=4GB
# td=(NStates=1) CAM-B3LYP/6-31G(d,p) 

TD

0 1
 8 -14.00633650885088 -2.08067644934493  0.35077533283328
 8  14.85747758455846  0.78085567216722 -0.09047845194519
 6 -11.71621448104811 -0.10550447554755  1.23389820982098
 6 -11.02732969546955  0.27601037203720 -0.17405369256926
 6 -11.88272375297530 -1.59589407380738  1.28811665296530
 6 -12.60743413691369 -2.25564662946295  0.18297244814481
 6 -11.61823711261126 -0.48473595189519 -1.34951044094409
 6  11.25111844244424  0.97412905540554  0.89684996469647
 6 -10.88839031223122  0.41711345014501  2.42855990669067
 6 -13.13916007840784  0.56183183008301  1.40401147794779
 6  12.69986716721672  1.43809323582358  0.56775416161616
 6 -12.26908789468947 -1.65822369016902 -1.16165893459346
 6  13.57672929382938  0.25859353195320  0.20607792669267
 6  10.72129160346035 -0.09711912211221 -0.08544495939594
 6 -9.54455321922192  0.01339849164916 -0.09143913631363
 6  13.09277725532553 -0.40159737913791 -1.07366295259526
 6  11.57774086288629 -0.74280932623262 -1.00427548634863
 6  10.25012189778978  2.26329564156416  0.88785149854985
 6  11.15515634813481  0.60429960536054  2.39191975327533
 6 -11.29796429392939  0.17498914041404 -2.60312257045705
 6 -8.52132823312331  0.87361234363436 -0.20494411691169
 6  9.32334726402640 -0.49560733653365  0.01987207100710
 6  11.09260920642064 -1.74363733053305 -2.08266787148715
 6 -7.11886320922092  0.61391863366337 -0.37398948824882
 6  8.69667612401240 -1.62643244074407  0.00435529452945
 6 -6.66863828532853 -0.88012676957696 -0.18815592699270
 6  7.33090157765777 -2.11388426042604  0.05172411011101
 6 -6.25575535153515  1.71146472097210 -0.32189404600460
 6  7.02802599679968 -3.57084080628063  0.35233545174517
 6  6.31410867986799 -1.17780806950695 -0.07527987038704
 6 -4.85950992469247  1.61789532873287 -0.36521743514351
 6  4.94921576747675 -1.43850169306931  0.10560278007801
 6 -4.05189656205621  2.70600362656266 -0.45410659965997
 6 -2.52167260536054  2.79504746234623 -0.32372512031203
 6  3.91382534803480 -0.50648115421542 -0.23894341074107
 6  2.56305335393539 -0.76891136263626  0.03417846524652
 6 -2.04785333553355  4.16654123672367 -0.58380752815282
 6 -1.84777186268627  1.64383712811281 -0.24536055245525
 6  1.71110965596560  0.39420098159816 -0.32999156105611
 6  2.02645596669667 -2.03370615791579  0.65548791669167
 6 -0.44042630153015  1.57422874417442 -0.39272263206321
 6  0.32747757855786  0.38580024782478 -0.20713397419742
 1 -11.10209695119512  1.25583736903690 -0.10508235343534
 1 -12.52575604870487 -1.92586259996000  2.24578247294729
 1 -10.88273594319432 -2.02567176217622  1.47399068166817
 1 -12.22034566816682 -3.36438554585459  0.18638350045004
 1 -9.95058045934594 -0.14945326972697  2.49346797069707
 1 -11.02209237583758  1.58999207620762  2.60254497639764
 1 -11.51551914421442  0.17905132413241  3.28359253705371
 1 -13.94956615841584  0.10070607290729  0.72813928422842
 1 -13.45822159275928  0.19601120852085  2.43663766576658
 1 -13.05271395679568  1.69057267906791  1.28839932323232
 1  12.82777014371437  2.16545149464946 -0.41899405620562
 1  13.01383581068107  2.01161520042004  1.38746634783478
 1 -12.67160063866387 -2.16323311981198 -2.09960415111511
 1  13.54174375917592 -0.45709545534553  1.01329166506651
 1 -9.31383374907491 -0.99386424542454 -0.16972941294129
 1  13.70049519361936 -1.25081812111211 -1.36930208620862
 1  13.44324074157416  0.23762234013401 -1.81192111591159
 1  9.37268396599660  1.94465451725173  1.55080032743274
 1  9.75910777237724  2.42610521292129 -0.21236432093209
 1  10.78602227552755  3.00828580028003  1.30304645564556
 1  11.87185002630263 -0.19557680628063  2.88395481688169
 1  10.08975394599460  0.20965842484248  2.76503963206321
 1  11.24547544664466  1.46346414321432  3.03289823282328
 1 -10.13353585158516  0.00395030573057 -2.94174156985699
 1 -11.39521857815782  1.27967396589659 -2.72600966626663
 1 -11.85426327142714 -0.21718046934693 -3.44374213181318
 1 -14.58232150545055 -1.94712366496650 -0.66734493829383
 1  8.57353642164216  0.35668589378938  0.46176882308231
 1 -8.83454862376238  1.91782343514351 -0.37705302570257
 1  11.20276601110111 -2.93010450645064 -1.73356620812081
 1  9.92395526192619 -1.44045014671467 -2.39683561756176
 1  11.80591988568857 -1.64320741084108 -2.82517846594659
 1  15.10739992029203  1.18270637043704  0.69194716361636
 1  9.25869564586459 -2.54200728242824 -0.32868931143114
 1 -5.57362182318232 -0.80789794049405 -0.15748835203520
 1 -7.04827372547255 -1.40759273247325  0.71293354575458
 1 -6.97769400460046 -1.50134858305831 -0.82317053185319
 1 -6.81320360686069  2.80212900800080 -0.37315051675167
 1  6.47178072707271 -3.61048447104710  1.31875157085709
 1  6.50016736193619 -4.14476966476648 -0.38516810801080
 1  7.98963886128613 -4.14386057065707  0.32764973227323
 1  6.45210363726373 -0.12892013141314 -0.39870199209921
 1 -4.23477570917092  0.64076374157416 -0.34131018861886
 1  4.70077368086809 -2.52089134213421  0.29890222942294
 1 -4.52250829652965  3.63166114791479 -0.55396505200520
 1  4.43666374257426  0.41663900280028 -0.51061027842784
 1 -1.67095685388539  4.47441888858886 -1.58022629452945
 1 -1.22556539493949  4.32835999329933  0.13009104930493
 1 -2.68274776287629  4.95543795929593 -0.56639493319332
 1 -2.37161604200420  0.64027065256526  0.09153442344234
 1  2.15522456455646  1.48089207840784 -0.68449546464646
 1  2.50059858755876 -2.46874327672767  1.57356573507351
 1  0.92870794209421 -1.99892918401840  0.80507922282228
 1  1.95285803520352 -2.88658644584458  0.02574833183318
 1 -0.03536765186519  2.44875471517152 -0.73350034153415
 1 -0.20332322832283 -0.36441661146115  0.11025037003700

