%nproc=4
%Mem=4GB
# td=(NStates=1) CAM-B3LYP/6-31G(d,p) 

TD

0 1
 8 -14.24285016021602 -1.88111649334934  0.39303955925593
 8  14.86554839163916  0.89801738833883 -0.02636204030403
 6 -11.84335719531953  0.01855793069307  1.30959577957796
 6 -10.97207416991699  0.33452622362236 -0.07242352955296
 6 -11.99960544114411 -1.50744522892289  1.39160700200020
 6 -12.78358175167517 -2.00140120492049  0.19559371027103
 6 -11.65947123602360 -0.27599507780778 -1.22206769666967
 6  11.21123445404540  1.04342598509851  1.05195547524752
 6 -11.00870234343434  0.65693743254325  2.37845489618962
 6 -13.07055321772177  0.87569321622162  1.12721379817982
 6  12.60236741724172  1.51888131463146  0.71555894209421
 6 -12.41253223912391 -1.38831669946995 -1.19613238193819
 6  13.58970059095910  0.44193186578658  0.26350366926693
 6  10.75242471677168 -0.00968037823782 -0.01568798369837
 6 -9.50703946784678 -0.15248809700970 -0.06168616101610
 6  12.99969794739474 -0.20655787518752 -1.01369695599560
 6  11.54261735053505 -0.43547859315932 -0.98562362116212
 6  10.30186707230723  2.26115542754275  1.05668838223822
 6  11.20222105460546  0.35518469386939  2.47038760006001
 6 -11.39464396189619  0.27343898539854 -2.59872213041304
 6 -8.52087818811881  0.75087006940694 -0.23490711321132
 6  9.36746167546755 -0.36779455525553  0.07944802860286
 6  11.11982192769277 -1.35472843964396 -2.22226183088309
 6 -7.08980030293029  0.38358560036004 -0.20772286158616
 6  8.83651010741074 -1.64019381688169 -0.29088422942294
 6 -6.80362178367837 -1.04036279317932  0.19503239183918
 6  7.49441792929293 -2.01384425642564 -0.03493455575558
 6 -6.19192896889689  1.43899747424742 -0.40119197579758
 6  7.22626582078208 -3.57132085428543  0.23712393059306
 6  6.43286055505551 -1.26417670637064 -0.09726206860686
 6 -4.88793276697670  1.35540908010801 -0.29629054245425
 6  5.05041588748875 -1.50190803370337  0.07887010681068
 6 -4.07279865226523  2.46380940714071 -0.58498968796880
 6 -2.63255369346935  2.55509346694669 -0.55085783358336
 6  3.98311227672767 -0.67856836293629 -0.11359087548755
 6  2.54484153275328 -0.91215568706871 -0.01725667826783
 6 -1.97576612681268  3.98160274287429 -0.83858300570057
 6 -1.73079016451645  1.39794253865387 -0.39667568396840
 6  1.68032657765777  0.16089765126513 -0.11405996789679
 6  2.14523784488449 -2.35335812311231  0.32589495739574
 6 -0.42120437933793  1.39215053635364 -0.38718207800780
 6  0.34082891369137  0.19247091489149 -0.25957921872187
 1 -11.05557229872987  1.42370415571557  0.04815297009701
 1 -12.48541201430143 -1.55252526622662  2.46599449414941
 1 -11.05802347194719 -2.03096229122912  1.58806208880888
 1 -12.78377201080108 -3.11362046934693  0.23645850795080
 1 -9.92504790609061  0.43806548214822  2.17893651755176
 1 -10.97110727732773  1.84067714471447  2.36327104900490
 1 -11.45379297159716  0.48371179017902  3.37654183198320
 1 -13.61580278207821  0.83883988628863  0.22406887718772
 1 -13.62454822542254  0.55533714111411  2.03716771877188
 1 -12.89227791319132  1.98759238103810  1.38100858415842
 1  12.66863423012301  2.14922987248725 -0.19748190499050
 1  13.00798522562256  2.04406844574457  1.52511011221122
 1 -12.87929140774077 -1.79619641614161 -2.07000119081908
 1  13.73064264906491 -0.35202494829483  1.04957529342934
 1 -9.33391575727573 -1.25259011801180 -0.04919735973597
 1  13.85644078817882 -0.87603064236424 -1.25799095509551
 1  13.21510792829283  0.61175975387539 -1.81294121792179
 1  9.17361405900590  2.23795384718472  1.68099334673467
 1  10.09553141474147  2.54690729312931 -0.05549863436344
 1  10.81817549084908  3.16926189788979  1.44246039703970
 1  11.92912575387539 -0.35044229282928  2.54590101150115
 1  10.14258922952295  0.18016547554756  2.76529965806581
 1  11.48987988708871  1.13783157995800  3.32536747974798
 1 -10.27807030503050  0.17789770047005 -3.00479787548755
 1 -11.55914497079708  1.30682668116812 -2.62599966526653
 1 -11.95662350745074 -0.34236298759876 -3.37521527912791
 1 -14.76149942324233 -2.21060001260126 -0.29888809260926
 1  8.44919398739874  0.48670889608961  0.08179082528253
 1 -8.84036920582058  1.75021667446745 -0.47834315471547
 1  11.37237297179718 -2.49184068006801 -2.01659451095110
 1  10.12948581498150 -1.40662676437644 -2.49685561956196
 1  11.58053734743474 -1.05595868596860 -3.14980092819282
 1  14.95608478877888  1.48179627942794  0.74271224012401
 1  9.52771254755476 -2.36232931463146 -0.33683012551255
 1 -5.65960042104210 -1.36743389408941  0.16152354915492
 1 -7.15732463056306 -1.38511048424842  1.26177843024303
 1 -7.10122635783578 -1.83451189938994 -0.68196641144114
 1 -6.63921620812081  2.39657845294529 -0.66164936663666
 1  6.37130067906791 -3.50984440704070  1.19287898359836
 1  6.80583792899290 -3.95922110991099 -0.87418700990099
 1  8.17379727712771 -4.07300348494849  0.31152812011201
 1  6.60656908380838 -0.13195043444344 -0.36580870277028
 1 -4.22716494809481  0.49385905110511 -0.21949800740074
 1  4.82110571407141 -2.43204245724572  0.56781912111211
 1 -4.49762580828083  3.39169715151515 -0.72742239773977
 1  4.16454653085308  0.54154149304931 -0.40570978837884
 1 -1.40617037523752  4.12590403710371 -1.67880615251525
 1 -1.24115695409541  4.23533069036904 -0.02053401320132
 1 -2.89535902400240  4.62548496399640 -0.70717901160116
 1 -2.25989486988699  0.45530215571557 -0.11574630463046
 1  2.22747178927893  1.07382137133713 -0.33275029012901
 1  2.91450997869787 -2.86291269366937  1.14744312281228
 1  1.05771084238424 -2.26561585268527  0.61633034793479
 1  2.27331008040804 -3.06469425662566 -0.57919216221622
 1  0.08906479137914  2.29364920462046 -0.41911890339034
 1 -0.12768566456646 -0.71379154895490 -0.08981963696370

