%nproc=4
%Mem=4GB
# td=(NStates=1) CAM-B3LYP/6-31G(d,p) 

TD

0 1
 8 -14.15233110831083 -2.04488286998700  0.49779003430343
 8  14.83180501730173  0.67463505010501 -0.07462686678668
 6 -11.79145200480048  0.05453152805281  1.19682450245025
 6 -10.93504046654665  0.23613638463846 -0.08118440564056
 6 -12.00208568916892 -1.48963344774477  1.47081492279228
 6 -12.72880627412741 -2.14823588838884  0.23170732163216
 6 -11.50545583448345 -0.51416889518952 -1.18048353825383
 6  11.19717304790479  0.96367801030103  1.11876215591559
 6 -11.04934640784079  0.65241698049805  2.43097014771477
 6 -13.14567072947295  0.67732337923792  1.06777785458546
 6  12.63960114061406  1.39448887538754  0.68106549274927
 6 -12.26207719361936 -1.59276714451445 -1.13562633133313
 6  13.46067768866887  0.26295396799680  0.13436075497550
 6  10.70952042634263 -0.04225363556356 -0.02056847174717
 6 -9.51414017791779 -0.06292914111411  0.03158316591659
 6  12.92643062066207 -0.12812003140314 -1.21773736003600
 6  11.45948903770377 -0.46620166546655 -1.09372443124312
 6  10.26465335093509  2.13758307030703  1.24833754715472
 6  11.30774160666066  0.17281645704570  2.46918748004800
 6 -11.33218771627163  0.07950959245925 -2.66837909610961
 6 -8.50974707500750  0.78700368276828 -0.21389501200120
 6  9.27142207150715 -0.50503827962796  0.17760784458446
 6  10.98882882838284 -1.28234120092009 -2.30230983568357
 6 -7.09960128302830  0.50949819161916 -0.20860294959496
 6  8.67901435783578 -1.64717451495149 -0.07254239523952
 6 -6.63293471497150 -0.84262301920192  0.23113600220022
 6  7.42041052855286 -2.10018289028903  0.03888282598260
 6 -6.23643341934193  1.59348292279228 -0.55497735433543
 6  7.17780097429743 -3.52834655685569  0.26927714591459
 6  6.33058032703270 -1.20790107880788  0.04715237283728
 6 -4.82545651935194  1.56907044624462 -0.37749866326633
 6  4.96609745564556 -1.45382322522252  0.06889910971097
 6 -3.97358873127313  2.62451547774777 -0.72614380338034
 6 -2.55466590469047  2.56317427502750 -0.63420616841684
 6  4.02156612211221 -0.40535104120412  0.04261474507451
 6  2.61344839343934 -0.69344381588159  0.05065011241124
 6 -1.95097364756476  4.03486806940694 -0.67082623002300
 6 -1.79726681218122  1.45942868726873 -0.55317133353335
 6  1.73670221522152  0.42845440694069 -0.11105966786679
 6  2.25378869997000 -2.12082486978698  0.32925529342934
 6 -0.45945820472047  1.48560988228823 -0.57010036983698
 6  0.37947277807781  0.33746541434143 -0.19813307410741
 1 -11.09581632313231  1.21535332063206 -0.25062690789079
 1 -12.62776624972497 -1.68959897359736  2.28767666236624
 1 -11.03518118771877 -2.14908410341034  1.43215649824983
 1 -12.54809844344434 -3.25358446574657  0.04519938203820
 1 -10.18898429972997  0.07057873347335  2.38479710361036
 1 -10.72728289488949  1.65359843684368  2.05117983988399
 1 -11.77322491479148  0.34142756175618  3.26873105090509
 1 -13.80862206400640  0.42511851415141  0.20566703700370
 1 -13.72402817341734  0.52055366276628  2.04862886488649
 1 -13.23940262566257  1.72197581938194  1.00759124242424
 1  12.71834920162016  2.23035798529853 -0.09743189999000
 1  12.94963939103910  1.80509454835484  1.66181378257826
 1 -12.69246272487249 -2.00654745124512 -2.03586777747775
 1  13.42598218301830 -0.58887863366337  0.84564490039004
 1 -9.32753511921192 -1.13660851985198  0.27014457445745
 1  13.42755789988999 -0.88970200950095 -1.92058721472147
 1  13.15503192069207  0.82042061996200 -1.85210513431343
 1  9.39777647524753  1.75474552635264  1.87360260766077
 1  9.72434429602960  2.47522012441244  0.11967888338834
 1  10.75876955025502  3.01902687438744  1.65515166616662
 1  12.20694353565357 -0.46572382098210  2.46273269466947
 1  10.32941791239124 -0.28387092809281  2.85091821992199
 1  11.57706860596060  0.87361515831583  3.34675961896190
 1 -10.34750724872487  0.11650156085609 -2.68907630333033
 1 -11.96018507480748  1.08033403190319 -2.72351941724172
 1 -11.77521536663666 -0.56092484378438 -3.31485924352435
 1 -14.59640291359136 -1.90039899249925 -0.39817802160216
 1  8.47186625462546  0.17160738593859  0.59158180438044
 1 -8.72944811371137  1.78618027082708 -0.62684800520052
 1  11.61883761826183 -2.31204270027003 -2.46020887238724
 1  9.90829369576958 -1.40158626032603 -2.29518545254525
 1  11.20768006170617 -0.61925501560156 -3.18079402750275
 1  15.46334551485149  0.87332543234323  0.79773774267427
 1  9.28944872117212 -2.55732881458146 -0.33531997449745
 1 -5.59151361236124 -0.92248939963996  0.32006940374037
 1 -7.07028592669267 -1.16962893609361  1.06800905330533
 1 -6.86531276647665 -1.56957540574057 -0.72603081788179
 1 -6.77462974947495  2.55547434253425 -0.97412061376138
 1  6.90026357535753 -3.88311173377338  1.23938363406341
 1  6.15478282348235 -3.59738492629263 -0.21620121132113
 1  7.96288618601860 -3.95203138773877 -0.20680371307131
 1  6.51249967686769 -0.15699293869387 -0.30924304620462
 1 -4.34884711631163  0.60529019421942  0.02235617801780
 1  4.65965956945695 -2.39058831183118  0.45491783098310
 1 -4.40893693939394  3.49244722652265 -1.13878353385339
 1  4.26823689988999  0.69302664156416  0.03380416301630
 1 -1.45456521472147  4.22539398609861 -1.62591086298630
 1 -1.29327216561656  4.13139029632963  0.26289432963296
 1 -2.69591908000800  4.73855627112711 -0.67145543924392
 1 -2.43643252365237  0.46663328882888 -0.47541227122712
 1  2.25918496059606  1.27177116631663 -0.56977399249925
 1  2.39093762146215 -2.08676507890789  1.34519289778978
 1  1.18930400170017 -2.38397768886889 -0.06784806990699
 1  2.83235598499850 -2.87480526772677 -0.27189143214321
 1  0.19405529042904  2.44818465816582 -0.67550454195420
 1 -0.18891178717872 -0.61144131393139 -0.05246590159016

