%nproc=4
%Mem=4GB
# td=(NStates=1) CAM-B3LYP/6-31G(d,p) 

TD

0 1
 8 -14.24821069626963 -1.84374275597560  0.23636389168917
 8  14.87896973377338  0.94648223482348 -0.29987939203920
 6 -11.84287714731473  0.03589966486649  1.16569138913891
 6 -11.03564052655265  0.43466623762376 -0.16896318351835
 6 -12.07426290689069 -1.46271075547555  1.31161900320032
 6 -12.78479187268727 -2.17003806860686  0.13890804170417
 6 -11.55960124902490 -0.44672215051505 -1.31924741464146
 6  11.21725505610561  0.97430907340734  0.87860814051405
 6 -11.08567004020402  0.48422016081608  2.43821087178718
 6 -13.14085024742474  0.90701634853485  1.05652672947295
 6  12.62042922342234  1.55176460296030  0.53459084528453
 6 -12.29121010691069 -1.60999886768677 -1.20351312001200
 6  13.57944956585659  0.39317699029903  0.14573189208921
 6  10.67644711901190 -0.08941835203520 -0.04997141204120
 6 -9.52678144204420 -0.03755660386039 -0.04344433683368
 6  12.98673665126513 -0.29456667606761 -1.09228481478148
 6  11.46897998679868 -0.55089013431343 -1.01651671047105
 6  10.22625951155116  2.23928324032403  1.07463017641764
 6  11.22874370687069  0.41205038043804  2.37048761006101
 6 -11.21319581708171  0.21317295879588 -2.61517377557756
 6 -8.54335043534354  0.82618760116012 -0.13955757825783
 6  9.32716764606461 -0.35753352915292  0.11508159195920
 6  11.08558850435043 -1.38985195199520 -2.24202380708071
 6 -7.20498182108211  0.46281352315232 -0.13622571187119
 6  8.84376083248325 -1.60207000450045 -0.07117225822582
 6 -6.78696011751175 -0.96423518041804  0.09685257385739
 6  7.50239872737274 -2.14309718171817  0.10784972267227
 6 -6.26159593559356  1.50704427892789 -0.10265212181218
 6  7.17104029822982 -3.61447516971697  0.27442766096610
 6  6.42068933793379 -1.26881717041704  0.10774843244324
 6 -4.79890386408641  1.38700223942394 -0.22814372777278
 6  5.03956480238024 -1.54810265316532  0.12154437423742
 6 -4.00435180758076  2.49645267146715 -0.41702289128913
 6 -2.57470790889089  2.59040699829983 -0.47708045584558
 6  4.04019798529853 -0.61394190029003 -0.15375489188919
 6  2.58745579417942 -0.84443891539154  0.18860390779078
 6 -1.97924647484748  3.94388897149715 -0.79935908330833
 6 -1.73941102660266  1.54778752315232 -0.33840985738574
 6  1.77101564656466  0.22197375887589 -0.13589215111511
 6  2.14043736483648 -2.17457024432443  0.34771713961396
 6 -0.36196845574557  1.54136545784578 -0.31808516831683
 6  0.28762359315932  0.27914958275828 -0.04760802160216
 1 -11.00539728122812  1.53930571587159 -0.43326517171717
 1 -12.54119759285929 -1.97482749644964  2.30196809150915
 1 -11.06826449604960 -1.92761195619562  1.40547382998300
 1 -12.76828046164616 -3.27176628392839  0.06459132123212
 1 -10.24996039733973 -0.21549987438744  2.44949357325733
 1 -10.58014818141814  1.61698477547755  2.30134485638564
 1 -11.82383997629763  0.30479389838984  3.33996817461746
 1 -13.64351555335534  0.58952495479548  0.19298576887689
 1 -13.62834860546055  0.68222983038304  1.85040904290429
 1 -12.55940462586259  1.85784940674067  0.85870635393539
 1  12.62405977267727  2.17517246674667 -0.36235839263926
 1  13.30794522162216  2.00928496739674  1.41361896309631
 1 -12.63845732433243 -2.12195899239924 -2.08395258595860
 1  13.70736032083208 -0.23576332213221  0.92630296619662
 1 -9.34410677637764 -1.18000285928593 -0.14486692669267
 1  13.87755289938994 -1.06887992729273 -1.42362751875187
 1  13.10744716221622  0.32574115201520 -2.01855177897790
 1  9.34202089968997  1.76810686248625  1.34559980738074
 1  9.93706556815682  2.74399700210021  0.20297721322132
 1  10.44558823212321  2.93989896159616  1.63345949694970
 1  11.63870671197120 -0.49374662326233  2.40995741714171
 1  10.07120209080908  0.38937639663966  2.68857198529853
 1  11.67317821692169  1.12950074687469  2.98367331033103
 1 -10.16248874687469  0.11700161086109 -2.89772716841684
 1 -11.59800885718572  1.16121211971197 -2.77873493879388
 1 -11.62804064916492 -0.47759651095110 -3.41597935553555
 1 -14.68860213351335 -2.00950990359036 -0.67825602940294
 1  8.55548461646165  0.54093431863186  0.45926857305731
 1 -8.72840800970097  1.83925557835784 -0.44217953835384
 1  11.13100883538354 -2.26848834483448 -1.90476332783278
 1  10.05412827922792 -1.17173327502750 -2.56413234723472
 1  11.92219151285128 -1.12448553865386 -2.98030397849785
 1  15.17616679697970  1.52638073787379  0.57891586048605
 1  9.58045782208221 -2.46433951565157 -0.12041848434844
 1 -5.79403386438644 -1.06032318301830 -0.11195379857986
 1 -6.93356225432543 -1.06059803300330  1.23202545494549
 1 -7.35223145834583 -1.64863331153115 -0.53619183398340
 1 -6.63893618011801  2.48983777887789 -0.27046024772477
 1  6.51839538853885 -3.86475989858986  1.30236993269327
 1  6.67492483768377 -4.04223941174117 -0.74685427662766
 1  8.14135403280328 -4.28640482508251  0.33479044634463
 1  6.56781520842084 -0.17499473887389 -0.35341746364636
 1 -4.40011224282428  0.49841950715072  0.12221616401640
 1  4.75124872837284 -2.32579183218322  0.69492183138314
 1 -4.57911395709571  3.40772875467547 -0.68735839133913
 1  4.48231830803080  0.42240957985799 -0.38457767516752
 1 -1.49097885608561  3.97540898759876 -1.85065333723372
 1 -1.16990982938294  4.25299245654566  0.06836487668767
 1 -2.57230671877188  4.64266668216822 -0.82238053175318
 1 -2.07142602300230  0.42843946944694  0.04254952495249
 1  2.22744178627863  1.10506449564956 -0.49542655775578
 1  2.73551207890789 -2.60093649604961  1.13466184468447
 1  0.94537960926093 -2.21124041514151  0.54944365926593
 1  2.20156290569057 -2.94594238143814 -0.45104934793479
 1  0.11140702560256  2.47976781648165 -0.50206719821982
 1 -0.26957985398540 -0.71750191999200 -0.11560221522152

