%nproc=4
%Mem=4GB
# td=(NStates=1) CAM-B3LYP/6-31G(d,p) 

TD

0 1
 8 -14.13772964816482 -1.97458584028403  0.64032428772877
 8  14.77639947674767  1.03988157475748  0.13966456235624
 6 -11.81091395099510  0.20291636653665  1.26302112211221
 6 -11.02558952145215  0.29508227922792 -0.12732902010201
 6 -12.07910339093909 -1.38173265766577  1.47942578387839
 6 -12.76245963946395 -2.09365042984298  0.40446459735974
 6 -11.49961525042504 -0.53686116441644 -1.23168865876588
 6  11.07915124572457  0.94899654215422  1.13679395909591
 6 -10.97421889508951  0.67405914471447  2.37985503620362
 6 -13.10048621102110  0.97313296019602  1.20904198099810
 6  12.46234341484148  1.53219264576458  0.83410079627963
 6 -12.34295528142814 -1.65510337813781 -1.04420718941894
 6  13.47328894979498  0.44500217281728  0.43846116501650
 6  10.60638011231123 -0.07877728792879  0.09796338143814
 6 -9.56760552445244  0.01842899469947  0.07631763936394
 6  12.95673365096509 -0.18340555995600 -0.82269785608561
 6  11.53900698949895 -0.61528657395740 -0.78741380018002
 6  10.05821270687069  2.11448076007601  1.17623033643364
 6  11.00698153065306  0.25567474287429  2.48051861316132
 6 -11.13968846634664 -0.12659101760176 -2.66529878807881
 6 -8.49933603390339  0.81476645904590  0.03359973747375
 6  9.24786971627163 -0.47127490329033  0.07374745854585
 6  11.10295024052405 -1.44149711651165 -2.04664426912691
 6 -7.05661698459846  0.49258650045005 -0.00521261056106
 6  8.76672312871287 -1.75696549404940  0.04520937993799
 6 -6.62049347084708 -0.96191494839484  0.21972486108611
 6  7.46985547304730 -2.07028990099010 -0.10759182148215
 6 -6.18295807180718  1.43159673417342 -0.16255811241124
 6  7.28465165936594 -3.70125384758476  0.09078929712971
 6  6.38619588858886 -1.26583687238724 -0.36681902430243
 6 -4.81164513821382  1.37018055725573 -0.35435634903490
 6  4.94659550545054 -1.59131697459746 -0.35314309450945
 6 -3.99037040944094  2.53127615381538 -0.51365255425543
 6 -2.59143958205821  2.66420437803780 -0.59055180298030
 6  3.95013897939794 -0.58648915501550 -0.39196871327133
 6  2.62160920952095 -0.77233170467047 -0.43517847044704
 6 -1.98286683688369  4.02568715131513 -0.96229537693769
 6 -1.70613769926993  1.54249699409941 -0.51079709610961
 6  1.84644318931893  0.47139870137014 -0.47795635753575
 6  2.10273359445945 -2.19712249954996 -0.25665329742974
 6 -0.35131739063906  1.61747306860686 -0.63171653145315
 6  0.43149798059806  0.40098176597660 -0.52197545834583
 1 -11.25846258775878  1.48601038633863 -0.63328517371737
 1 -12.60073354645464 -1.67850786448645  2.48129602430243
 1 -11.18601627122712 -1.87911710671067  1.53446672927293
 1 -12.38109174277428 -3.22384149144914  0.34289915201520
 1 -10.26622202350235 -0.24452277667767  2.41713033693369
 1 -10.69542970957096  1.84077715471547  2.19480420232023
 1 -11.72539013131313  0.87872129112911  3.26521069886989
 1 -13.70402160396040  0.73806980928093  0.40584705500550
 1 -13.65797156775678  0.82974458185819  2.06155015701570
 1 -12.78779746514651  1.91658528032803  0.94893537683768
 1  12.19741710841084  2.36475142464246  0.18088593179318
 1  12.91164559165916  1.84887892679268  1.80373797499750
 1 -12.70489396799680 -2.43347014351435 -1.76621081178118
 1  13.59525911071107 -0.34959470527053  1.25577591349135
 1 -9.34757712341234 -1.11946680568057  0.24403196319632
 1  13.53281842594259 -1.10511355065507 -1.12207736373637
 1  13.31207762526253  0.65240381828183 -1.46684660846085
 1  9.24624132173217  1.70207025882588  1.93191843924392
 1  9.83587544914491  2.30769337173717  0.08906582208221
 1  10.57087076037604  3.16189116081608  1.51506765776578
 1  11.86337917921792 -0.55194244284428  2.59673609500950
 1  10.07468243884388 -0.28668120912091  2.82020514861486
 1  11.25946684578458  1.03353114991499  3.22776771977198
 1 -10.04539703770377 -0.17017710701070 -2.78330572627263
 1 -11.25057411371137  0.83300929942994 -2.79232629792979
 1 -11.59859770487049 -0.77998674997500 -3.27531528912891
 1 -14.49243251655166 -2.58320727332733 -0.10432863666367
 1  8.48530759875988  0.30018024322432  0.30192283848385
 1 -8.72491766066607  1.87309896269627 -0.24569989038904
 1  11.64977071157116 -2.55515701170117 -2.01227407890789
 1  10.03896676307631 -1.36652275397540 -2.23914984898490
 1  11.69790908460846 -1.07975106520652 -3.11048699679968
 1  15.11524070437044  1.25611371117112  1.06822479137914
 1  9.64633440974097 -2.52455553725373  0.00001355885589
 1 -5.58138259925993 -1.00713786448645  0.56298369516952
 1 -6.87164606270627 -1.38709068226823  1.21752400480048
 1 -6.86110234543454 -1.59639808800880 -0.64598281308131
 1 -6.52043432993299  2.51507030213021 -0.09821302300230
 1  6.77861141014101 -3.79507292989299  1.10701039673967
 1  6.72879022422242 -4.08203339113911 -0.75018460966097
 1  8.38160805820582 -4.12175836043604  0.17060402770277
 1  6.49904833173317 -0.15838307770777 -0.44144626652665
 1 -4.29648187978798  0.39007867306731 -0.41977803540354
 1  4.53043664716472 -2.59410866386639 -0.28636629742974
 1 -4.46827287298730  3.49817779957996 -0.48194785028503
 1  4.43402347854786  0.39393673257326 -0.36300551795180
 1 -1.23129288748875  3.95814726142614 -1.82468073997400
 1 -1.34014685308531  4.52799995729573  0.01607964816482
 1 -2.90424991309131  4.74521693719372 -1.12698099179918
 1 -2.22115099549955  0.54390101560156 -0.25885061506151
 1  2.16866590869087  1.37769175837584 -0.79050606570657
 1  2.39170769846985 -2.50538694109411  0.69224760326033
 1  0.99661473277328 -2.25883517461746 -0.33337462256226
 1  2.41050379977998 -2.85297308450845 -1.23367761076108
 1  0.22460834573457  2.60961080078008 -0.96598358985899
 1 -0.07907080308031 -0.54354452425243 -0.41978263326333

