%nproc=4
%Mem=4GB
# td=(NStates=1) CAM-B3LYP/6-31G(d,p) 

TD

0 1
 8 -14.22191806700670 -1.83504188588859  0.66170642594259
 8  14.93057489428943  0.82780036663666  0.39032962886289
 6 -11.77167002660266  0.15938201310131  1.27129194919492
 6 -11.02352931543154  0.31803457445745 -0.07564385158516
 6 -12.01370685128513 -1.35167965236524  1.51579942124212
 6 -12.86836022952295 -2.11772283708371  0.47593174407441
 6 -11.68007329622962 -0.55574305260526 -1.26583207310731
 6  11.12605593619362  0.93875551805181  1.22137241694169
 6 -10.98826029922992  0.82778451725173  2.46348339903990
 6 -13.16465262766277  0.94326997389739  1.19435051185119
 6  12.57464464496450  1.36564599109911  0.96768415461546
 6 -12.37124811071107 -1.68349621742174 -0.90204297299730
 6  13.57559918081808  0.27341501410141  0.49169648854885
 6  10.75512498679868  0.08252884268427 -0.00870728562856
 6 -9.60542930683068 -0.06004885308531  0.02675268286829
 6  13.10010798839884 -0.15841306070607 -0.90598618491849
 6  11.69353244204420 -0.37768281358136 -0.90847590639064
 6  10.26767365296530  2.21357066906691  1.18654136753675
 6  10.98749958245824  0.12848202360236  2.45353591489149
 6 -11.43018751625163 -0.16281463996400 -2.64727698589859
 6 -8.60298639893989  0.87068205060506 -0.23469709220922
 6  9.28491342064206 -0.33474124992499 -0.08008792499250
 6  11.34726467196720 -1.14677764456446 -2.26808641334133
 6 -7.17898922182218  0.59901714351435 -0.15603769306931
 6  8.87958441484149 -1.59381917941794 -0.18447358835884
 6 -6.75207662916292 -0.88906766366637  0.22462535113511
 6  7.47686617411741 -2.02993586558656 -0.23043410571057
 6 -6.27914769076908  1.50066364086409 -0.47919977657766
 6  7.25104829902990 -3.51757547974798 -0.10935071687169
 6  6.40189745874587 -1.13933422212221 -0.21158350075007
 6 -4.89943391709171  1.40639417861786 -0.46822773617362
 6  5.02939378527853 -1.51005884878488 -0.12196997719772
 6 -4.06564793719372  2.44928795499550 -0.61219240824082
 6 -2.55733617171717  2.48960691829183 -0.69990273807381
 6  4.00090405590559 -0.62148265436544 -0.18596811321132
 6  2.71899894849485 -0.83449792129213 -0.18700365296530
 6 -1.89275782598260  3.86545112771277 -0.98446759415942
 6 -1.83603068856886  1.34195694009401 -0.46415243164316
 6  1.69557810281028  0.27049861136114 -0.33235179707971
 6  2.18713203430343 -2.17277006430643 -0.00777840994099
 6 -0.44383664256426  1.32615393669367 -0.59676303610361
 6  0.34049888068807  0.18286995479548 -0.40798405920592
 1 -11.12665940744074  1.30032181748175 -0.42668451365137
 1 -12.64800827392739 -1.53899391309131  2.38724661936194
 1 -11.12631030063006 -1.92234142914291  1.69043232583258
 1 -12.58124175777578 -3.21989109640964  0.76149101120112
 1 -10.31768717001700  0.18388006360636  2.46616524042404
 1 -10.53357352395239  1.81933501050105  1.99630435233523
 1 -11.67950554285429  0.94855827482748  3.26258043584358
 1 -13.63727492929293  0.68338434073407  0.28546501680168
 1 -13.77155292589259  0.71154276167617  1.89582358435844
 1 -12.94901358675867  2.01822544434443  1.18858934223422
 1  12.53229059575958  2.28376332583258  0.38153599679968
 1  12.95655008210821  1.88790282918292  1.87790539173917
 1 -12.86040951955196 -2.18692548904890 -1.69068325902590
 1  13.48404798959896 -0.71948169396940  1.10430076597660
 1 -9.31926429212921 -1.10281514051405  0.30930849084908
 1  13.80062520662066 -1.03491653095310 -1.27757291329133
 1  13.46914333183318  0.77270584848485 -1.65090501430143
 1  9.12292899049905  1.91502155395540  1.36550179757976
 1  10.46765862746275  2.92494509690969  0.35726264176418
 1  10.63066673997400  2.91919689138914  2.30514666566657
 1  11.59849269056906 -0.88572582118212  2.45903232463246
 1  9.92239721032103 -0.22317485848585  2.41460458855886
 1  11.24838573767377  0.60108790559056  3.57633257625763
 1 -10.50076257425743 -0.00527061636164 -2.80587798349835
 1 -12.18953801010101  0.73565956445645 -2.93072013731373
 1 -11.89360720582058 -1.07377612891289 -3.35426318391839
 1 -14.78079135243524 -1.76948590119012 -0.00539874367437
 1  8.66258532653265  0.64001422662266 -0.00574792859286
 1 -8.90381555045505  1.87186883968397 -0.57455277567757
 1  11.72720845534553 -2.36152764876488 -2.27278012951295
 1  10.31690455685569 -1.08264436613661 -2.48951488548855
 1  11.87174646834684 -0.82157524762476 -3.16781272937294
 1  15.27449662996300  1.13790188998900  1.21105907480748
 1  9.62105188148815 -2.44316739843984 -0.30400684318432
 1 -5.75888034903490 -0.97127427812781  0.59598699549955
 1 -7.22261115921592 -1.17490946414641  1.06094834723472
 1 -7.15551178637864 -1.58019646784678 -0.58991720652065
 1 -6.57458974547455  2.47473626872687 -0.69784298599860
 1  6.56308985798580 -3.69168259085909  0.87340703640364
 1  6.65356270147015 -3.69235442324232 -1.09130872207221
 1  8.30857075447545 -4.04594077867787  0.07676464376438
 1  6.62076050295030 -0.02307954735474 -0.25706782868287
 1 -4.45641787338734  0.47492715791579 -0.11511756935694
 1  4.82771637513751 -2.55017427042704 -0.07837549834984
 1 -4.44099014471447  3.50882886468647 -0.85068472397240
 1  4.26546662286229  0.60010734963496 -0.12936215361536
 1 -1.33903366156616  3.97013846054605 -1.84479275117512
 1 -1.31418425682568  4.10725788308831 -0.07753971377138
 1 -2.62437192529253  4.75151756725672 -1.04265255895590
 1 -2.41655053545355  0.49751637713771 -0.25271000100010
 1  1.95100414251425  1.13107709690969 -0.64512152725272
 1  2.82276080378038 -3.12861926432643  0.59800817931793
 1  1.13439851115112 -2.35363465456546  0.15841455635564
 1  2.16968971837184 -2.79956774397440 -0.98520276327633
 1  0.07823370827083  2.33741358105811 -0.47800479197920
 1 -0.08157105310531 -0.81344151395140 -0.35067572257226

