%nproc=4
%Mem=4GB
# td=(NStates=1) CAM-B3LYP/6-31G(d,p) 

TD

0 1
 8 -14.12237811301130 -1.97176555825583  0.75035529082908
 8  14.71185302210221  0.95303288988899  0.38699929582958
 6 -11.68448130773077  0.05791186608661  1.42880770077008
 6 -10.90321728422842  0.30193296429643  0.08554226702670
 6 -12.00988646924692 -1.46260074447445  1.64288212951295
 6 -12.66334972847285 -2.14750581538154  0.52563671457146
 6 -11.56357164606461 -0.44892237053705 -1.08461395129513
 6  10.99063239383938  0.86512815531553  1.24334461416142
 6 -10.88911038423842  0.62333407220722  2.65415246594659
 6 -13.03969013141314  0.86811245814581  1.27768884568457
 6  12.38744592509251  1.45463488998900  1.05990337653765
 6 -12.28873985988599 -1.60191805960596 -0.84400716941694
 6  13.40124174507451  0.43915158775878  0.49013633253325
 6  10.55747522182218  0.00351094089409  0.10772435753575
 6 -9.44222298619862  0.02287943974397  0.13203321092109
 6  12.83298127572757 -0.00603782318232 -0.91224681098110
 6  11.42266535533553 -0.35380042534253 -0.89906496529653
 6  10.08353523912391  2.06592590459046  1.41818453185319
 6  11.05407624012401  0.05978515391539  2.63947450875087
 6 -11.26256075357536  0.06634827632763 -2.53216547474747
 6 -8.43075917621762  0.92184716711671 -0.22392601510151
 6  9.13337826712671 -0.48806658245825  0.03006309010901
 6  11.06321626712671 -1.12522548934894 -2.17009661436144
 6 -7.08688001090109  0.58202544434443 -0.40464255355536
 6  8.81083754015402 -1.74634443194319 -0.15455059605961
 6 -6.71614303580358 -0.83838259515952 -0.05633274467447
 6  7.41340982848285 -2.13368624062406 -0.16660772307231
 6 -6.06598637463746  1.53597717221722 -0.51323317991799
 6  7.13396659085909 -3.63892761496150 -0.09325910771077
 6  6.38791606060606 -1.24966525522552 -0.32790513291329
 6 -4.74113808750875  1.42344588378838 -0.55937685108511
 6  5.01954280018002 -1.49123696659666 -0.13393117331733
 6 -4.01362273467347  2.55861888808881 -0.70962215121512
 6 -2.62095253335334  2.69195715331533 -0.92194494229423
 6  4.01124509000900 -0.65666617271727 -0.24933444984498
 6  2.69068611721172 -0.83670814231423 -0.24136908950895
 6 -1.89111766196620  3.94853943654365 -1.31090023742374
 6 -1.73027011251125  1.51945468986899 -0.75816183258326
 6  1.77169571457146  0.19696125762576 -0.51007956985699
 6  2.11705502660266 -2.26949973727373  0.03513588148815
 6 -0.33472573147315  1.47125844714471 -0.79142250205021
 6  0.42423725452545  0.24808647644764 -0.57541080188019
 1 -10.97941468296830  1.43781556685669 -0.02456430163016
 1 -12.54066753985398 -1.83503351705171  2.54949284398440
 1 -10.88965663526353 -2.06141533653365  1.76385966856686
 1 -12.22298593219322 -3.24502360966097  0.35862072417242
 1 -9.92234763606361  0.30723239883988  2.58982760666067
 1 -10.94618478507851  1.62507558455846  2.39485420732073
 1 -11.53375096739674  0.47013043204320  3.52035621342134
 1 -13.60912211401140  0.52198820112011  0.44805127542754
 1 -13.49857562816282  0.58771037843784  2.25153915591559
 1 -12.68843752915291  1.86854047584758  1.13108359165917
 1  12.32535990269027  2.31308625812581  0.33059090229023
 1  12.89873430053005  1.67166120502050  2.20793839503950
 1 -13.01084456305631 -2.22687948444844 -1.57578176887689
 1  13.49981956675668 -0.46452619841984  1.06642697859786
 1 -9.09535190089009 -1.00901576057606  0.59812737273727
 1  13.46811195529553 -0.93324636393639 -1.11791694769477
 1  12.96142255975598  0.72629120702070 -1.56740666446645
 1  9.12231892949295  1.88278833063306  1.87425267266727
 1  9.82536439803980  2.85477808020802  0.59807672317232
 1  10.56444011731173  2.83075804750475  2.21162731373137
 1  11.87910075137514 -0.57172442104210  2.55314173557356
 1  10.26723169376938 -0.54319686068607  2.87951107920792
 1  11.23791469056906  0.97815561236124  3.40643558655866
 1 -10.27518001600160 -0.07110720002000 -2.92418981468147
 1 -11.47535659195920  1.11523752225223 -2.72033909920992
 1 -11.87563540864086 -0.66327507880788 -3.28694645224522
 1 -14.50590386368637 -2.64192314491449 -0.01088929272927
 1  8.42101116911691  0.28767899309931  0.17635028122812
 1 -8.69588475737574  1.88279993279328 -0.76712203260326
 1  11.47309304380438 -2.07835933193319 -2.15782863436344
 1  10.08092095849585 -1.08526462816282 -2.48171410541054
 1  11.64764405810581 -0.50682377247725 -2.89311525962596
 1  15.04037321762176  1.03071117091709  1.36637460636064
 1  9.71556133243324 -2.57034011571157 -0.41445788828883
 1 -5.73344780578058 -1.02909005970597 -0.22220482368237
 1 -7.15090398849885 -1.26786876007601  0.87525977837784
 1 -7.37610384558456 -1.39948839703970 -0.88753696849685
 1 -6.51410369686969  2.49779857495750 -0.80758396009601
 1  7.08029157815781 -3.77091051365136  0.94396409210921
 1  6.29567691289129 -3.99390457825783 -0.72854244544454
 1  8.08021791919192 -4.23458964356436 -0.43914694739474
 1  6.58250667756776 -0.33649088848885 -0.74753687558756
 1 -4.05850808240824  0.53822348754876 -0.53115917351735
 1  4.75705930943094 -2.48939819281928  0.14503684288429
 1 -4.61280732643264  3.48612659445945 -0.97641729722972
 1  4.40370044624462  0.41589892879288 -0.08654787218722
 1 -1.32748250645064  3.94775622232223 -2.25518379027903
 1 -1.25396823522352  4.13700085738574 -0.45965792559256
 1 -2.52355184328433  4.86128854435444 -1.28895718941894
 1 -2.27114599499950  0.63192981848185 -0.71525625562556
 1  2.42546158825883  1.06853084228423 -0.33046006110611
 1  2.54424295199520 -2.47734413681368  1.03951232973297
 1  0.94792986428643 -2.20755004610461 -0.26598788388839
 1  2.62874562396240 -3.03304109130913 -0.58964320732073
 1  0.10681656655666  2.60178001770177 -0.94453144464446
 1 -0.13593648964897 -0.53454362416242 -0.28844949994999

