%nproc=4
%Mem=4GB
# td=(NStates=1) CAM-B3LYP/6-31G(d,p) 

TD

0 1
 8 -14.03521939713971 -1.93631201290129  0.56597685298530
 8  14.83681551835183  0.73184077067707  0.28835943184318
 6 -11.66442930253025  0.08529460436044  1.24490931093109
 6 -10.90337730023002  0.29529230023002 -0.01225751295130
 6 -11.92906838743874 -1.46276076047605  1.45093293459346
 6 -12.61308470197020 -2.19255031983198  0.29537368826883
 6 -11.56577186608661 -0.47806528482848 -1.26054154405441
 6  11.05126845744574  0.98405004750475  1.03020330003000
 6 -10.95593706690669  0.43053479227923  2.48182523322332
 6 -13.01664782718272  0.82693834073407  1.19840091689169
 6  12.45672285278528  1.49285871237124  0.73653103930393
 6 -12.22620360626063 -1.57962583038304 -1.01172394109411
 6  13.46234785568557  0.35305297789779  0.46710402930293
 6  10.67344681898190 -0.03321273147315  0.02973655875588
 6 -9.40394915881588 -0.07463031123112  0.09598960656066
 6  13.04728270587059 -0.23124034343434 -0.85196078237824
 6  11.58894198299830 -0.62113715901590 -0.92688774757476
 6  10.16593347894790  2.29425873787379  0.95279799319932
 6  10.80085091759176  0.41760093549355  2.48085864716472
 6 -11.32287678517852  0.17821946344634 -2.69260151835184
 6 -8.43305940624063  0.79443442584258 -0.15243886638664
 6  9.22937786708671 -0.37884566036604 -0.09358927512751
 6  11.13815376087609 -1.60101306810681 -2.09312891759176
 6 -7.08100942384239  0.47863510531053 -0.10960304960496
 6  8.82965942234224 -1.67791758925893 -0.01747688868887
 6 -6.75646706820682 -0.96672542944294  0.09304219281928
 6  7.42087057455746 -2.14426729872987 -0.10906196849685
 6 -6.22553232923292  1.39190276477648 -0.32160401700170
 6  7.19533272747275 -3.58225194739474  0.10625084328433
 6  6.34921219021902 -1.26166645534553 -0.18223056545655
 6 -4.73857783148315  1.49669320852085 -0.30284119751975
 6  4.97116796269627 -1.55388323122312 -0.17033481368137
 6 -4.02039341174117  2.58690171637164 -0.60183137213721
 6 -2.65406584468447  2.69218717631763 -0.61624437223722
 6  3.98878284378438 -0.57579808590859 -0.30794031043104
 6  2.59356640524052 -0.74492896439644 -0.21484643724372
 6 -2.05769431963196  4.07012159475948 -0.90433958135814
 6 -1.86557364286429  1.61552429682968 -0.42856887328733
 6  1.70293883888389  0.34700626212621 -0.39041760366037
 6  2.09091241234123 -2.06087887518752  0.02839520742074
 6 -0.42667492639264  1.57476879817982 -0.45148850865087
 6  0.36667149794980  0.39104077187719 -0.35549881068107
 1 -10.98587532903290  1.36296808210821 -0.15880772597260
 1 -12.37045051815181 -1.80828084178418  2.40654854955496
 1 -10.84664233383338 -1.80678987398740  1.55809909250925
 1 -12.30997463106311 -3.20170927822782  0.41518638073807
 1 -10.17063246454646 -0.13675199959996  2.53545216911691
 1 -10.55668583518352  1.35200827782778  2.46841156305631
 1 -11.40678827112711  0.24564798379838  3.43968814661466
 1 -13.65151635343534  0.57853385568557  0.36558302860286
 1 -13.67625339593959  0.59165077247725  2.13705770777078
 1 -12.79046773217322  1.87522114391439  1.10745122842284
 1  12.45236260296030  2.15041999149915 -0.11561371817182
 1  12.61000542764276  2.06406044494449  1.70298789999000
 1 -12.54393787238724 -2.03857065356536 -2.03979817051705
 1  13.13518310311031 -0.45973571937194  1.22157249314932
 1 -9.05223758945895 -1.07077193619362  0.44344190419042
 1  13.67165230933093 -1.13760679998000 -1.10525568156816
 1  13.22889930743074  0.24059263716372 -1.75071499529953
 1  9.22153885148515  2.10324037583758  1.34153940134013
 1  10.18768062966297  2.87440004240424 -0.20343342784278
 1  10.52292596589659  3.00585555725573  1.51980813181318
 1  11.62157499879988 -0.23283053165317  2.64819124052405
 1  9.76267123772377  0.15223268226823  2.35240836893689
 1  10.95079597869787  0.97389518631863  3.26668161116112
 1 -10.24506700470047  0.30600051075107 -2.81744914061406
 1 -11.76407546384639  1.12417841634163 -2.69431649694969
 1 -11.75641348644864 -0.47377612891289 -3.39506726432643
 1 -14.59584285758576 -2.00080903350335 -0.28377658145815
 1  8.42977204520452  0.42285251045105  0.05422806900690
 1 -8.56158132703270  1.68825047784779 -0.50975629602960
 1  11.28320405490549 -2.66749824582458 -1.77821067256726
 1  10.14352721912191 -1.66716281798180 -2.35756169016902
 1  11.76660595429543 -1.37412050215021 -2.97815376347635
 1  14.88563774407441  1.49946804660466  0.99338730763076
 1  9.54766454275428 -2.61381446314631 -0.20619706220622
 1 -5.72516697769777 -1.37609476017602 -0.19645224842484
 1 -6.79046794489449 -1.13792576577658  1.07948020042004
 1 -7.33254949014901 -1.73537198539854 -0.37710592539254
 1 -6.59949223572357  2.38737753285328 -0.70988419011901
 1  7.09714326332633 -3.67565098769877  1.10004970067007
 1  6.17129447464746 -3.75340052785279 -0.38318790999100
 1  8.03079297669767 -4.29667585218522 -0.05691872457246
 1  6.76995542244224 -0.19229646904690 -0.41680380228023
 1 -4.26516874847485  0.46210587578758  0.04466840924092
 1  4.78053165666567 -2.62710196319632 -0.10119778057806
 1 -4.50702674837484  3.56350433223322 -0.82142179767977
 1  4.51877195339534  0.38622596149615 -0.71067028442844
 1 -1.45400515871587  4.09105055175518 -1.68660693259326
 1 -1.59009184758476  4.17103426072607  0.05560360056006
 1 -2.75779526762676  4.76998941444144 -1.06025431913191
 1 -2.44153303370337  0.52139876537654 -0.25768049804980
 1  2.29987903000300  1.35666965616562 -0.56255327042704
 1  2.30589911761176 -2.28452485488549  1.00008838733873
 1  0.97555262656266 -2.39188847994799 -0.28083936903690
 1  2.38549129852985 -2.89124691189119 -0.62396663966397
 1 -0.00677479257926  2.63058289798980 -0.52278927042704
 1 -0.13626652265227 -0.32253242304230 -0.17614826982698

