%nproc=4
%Mem=4GB
# td=(NStates=1) CAM-B3LYP/6-31G(d,p) 

TD

0 1
 8 -14.01426730193019 -2.12557093879388  0.86573682898290
 8  14.81313315011501  0.81457904450445  0.27984858075808
 6 -11.69049190879088  0.12816889178918  1.35182000200020
 6 -10.96204316681668  0.29220199119912 -0.07819410661066
 6 -11.76574205480548 -1.36300078447845  1.44508234953495
 6 -12.63189658315832 -2.13965503030303  0.49009316021602
 6 -11.67957324622462 -0.51075855415542 -1.10023551345135
 6  11.11571490209021  0.95491713421342  1.22170244994499
 6 -10.81291276447645  0.59064080288029  2.55666271697170
 6 -12.90002616501650  0.83823947084708  1.34146522332233
 6  12.52049923042304  1.49308873537354  0.92195958215822
 6 -12.40995198109811 -1.59231709950995 -0.96197896659666
 6  13.46738835973597  0.37666533913391  0.40207752665267
 6  10.62374184848485 -0.04606401660166  0.10034361946195
 6 -9.56313507740774 -0.02326517471747 -0.14663465586559
 6  12.98075605320532 -0.19816703610361 -0.89711529782978
 6  11.51477456625662 -0.38733377867787 -0.95723078187819
 6  10.22476936253625  2.14843415541554  1.44386710011001
 6  11.12440327282728  0.06725590099010  2.54690525182518
 6 -11.49036353385339  0.10754239573957 -2.50464272247225
 6 -8.52886898719872  0.83481846424642 -0.34019764226423
 6  9.25349027832783 -0.45641341714171  0.16526661046105
 6  11.08942888838884 -1.18524149094909 -2.11658126282628
 6 -7.06278760166017  0.46976421822182 -0.42705479477948
 6  8.67260371677168 -1.65223502100210 -0.25704084508451
 6 -6.66784820632063 -0.88165692259226 -0.11879899129913
 6  7.40182867036704 -2.06181905390539 -0.16046710901090
 6 -6.19484926092609  1.45182875737574 -0.71108296489649
 6  7.09294248844884 -3.61033475567557  0.10496071427143
 6  6.30772804180418 -1.26406669536954 -0.47870021242124
 6 -4.79372334603460  1.41050458965897 -0.63727464086409
 6  4.94009485538554 -1.54148199109911 -0.21054883508351
 6 -3.98248962136214  2.46069909610961 -0.81367255625563
 6 -2.62434287238724  2.60667862546255 -0.65365811361136
 6  3.97434139963996 -0.55960646674667 -0.34072358875888
 6  2.65815286388639 -0.72044651615162 -0.30139509210921
 6 -2.06121467166717  3.99298388098810 -0.98813796119612
 6 -1.73847093259326  1.60882362676268 -0.42609862626263
 6  1.71341988698870  0.35612717421742 -0.51465002690269
 6  2.04410773187319 -2.11192397969797  0.24035640354035
 6 -0.34124638353835  1.54495581688169 -0.48551191099110
 6  0.39801463226323  0.32023369116912 -0.26440970177018
 1 -10.87153389488949  1.37868965426543 -0.44943678887889
 1 -12.06699017211721 -1.75405541924192  2.62227012171217
 1 -10.68318598819882 -1.49099829482948  1.47085036763676
 1 -12.38365199879988 -3.18452756005601  0.65629049114911
 1 -9.65143054435444  0.34735641124112  2.76675529942994
 1 -10.66796696329633  1.68780185718572  2.55890061196120
 1 -11.44022161446145  0.56859027802780  3.31337551535153
 1 -13.74801600340034  0.70651665396540  0.60776724702470
 1 -13.55904167476748  0.91984359175918  2.30497449944995
 1 -12.64512319771977  1.97010063186319  1.04246472977298
 1  12.39809717641764  2.28125307480748  0.10379822302230
 1  12.94269869696970  1.97662170107011  1.76088368956896
 1 -12.63269674827483 -2.12938973547355 -1.73215740644064
 1  13.42291187598760 -0.48834858065807  1.17904824072407
 1 -9.27869023472347 -1.08486334533453 -0.30912335233523
 1  13.44142928702870 -1.15362840214021 -1.11423657965797
 1  13.27990440794079  0.64753333123312 -1.56318624242424
 1  9.22458915651565  1.85855590739074  1.76615186258626
 1  10.04846670827083  2.53745634803480  0.51422833833383
 1  10.57989166246625  3.05121009270927  2.13372952395240
 1  11.67489033033303 -0.82275952455246  2.39868629002900
 1  9.90212518311831 -0.25035757675768  2.52674580268027
 1  11.56558745784578  0.49602739953995  3.35200014301430
 1 -10.48314081208121  0.52726263696370 -2.67325472117212
 1 -12.09909896619662  1.05903190169017 -2.70146721202120
 1 -11.56759460456045 -0.77103585488549 -3.26940469806981
 1 -14.40962423572357 -2.61450040264026  0.21897369356936
 1  8.30959002700270  0.24786501170117  0.76036868306831
 1 -8.67149231813181  1.83597525032503 -0.55234055445545
 1  11.52738847334733 -2.23141463746375 -1.96587943944394
 1  9.90758362476248 -1.30624672637264 -2.11738767276728
 1  11.34626392009201 -0.85270836093609 -3.11879782788279
 1  15.01856103640364  1.03848194799480  1.00473844274427
 1  9.34431420772077 -2.43012609430943 -0.68903534603460
 1 -5.60971543254325 -0.92165931663166  0.55805320212021
 1 -7.32503140124012 -1.20983295649565  0.78385063746375
 1 -6.83215945114511 -1.63695214341434 -0.99803801860186
 1 -6.68988127462746  2.46981577667767 -0.82633583528353
 1  7.05057860686069 -3.87233065566557  1.30934062976298
 1  6.03148049324933 -3.99186437423742 -0.32518210941094
 1  7.91698159555956 -4.21110729532953 -0.43662669536954
 1  6.52278070497050 -0.13145038443844 -0.69957207910791
 1 -4.38176040764076  0.47624728992899 -0.38093415101510
 1  4.77889149264927 -2.57229648264826  0.09082142134213
 1 -4.69230527622762  3.48066604840484 -0.86676633213321
 1  4.09330940714071  0.43587092599260 -0.82777199459946
 1 -1.58578833703370  4.04128557525753 -2.03223149504950
 1 -1.17507034543454  4.38938609590959 -0.39443140294029
 1 -2.74955444354435  4.75491790729073 -1.10916921062106
 1 -2.13640252065206  0.58788541404140 -0.22633736373637
 1  2.00953999609961  1.32065605480548 -0.71469848494849
 1  2.65911443914391 -2.27991439383938  1.27105548404840
 1  0.95538060936094 -2.26674596569657  0.35335405030503
 1  2.48980172957296 -3.00730851805181 -0.46539078207821
 1  0.32080796569657  2.37002684238424 -0.73685067656766
 1 -0.24000689668967 -0.48567873767377 -0.25692634763476

