%nproc=4
%Mem=4GB
# td=(NStates=1) CAM-B3LYP/6-31G(d,p) 

TD

0 1
 8 -14.08665454065406 -1.93423180488049  0.39607986328633
 8  14.70883272007201  0.98119570617062 -0.09437884198420
 6 -11.67446030563056 -0.04675860096010  1.27101192119212
 6 -10.98829579207921  0.25503827482748 -0.05611189838984
 6 -11.91977745834583 -1.62822730713071  1.27415525682568
 6 -12.76451984548455 -2.10698176297630  0.04530868176818
 6 -11.61364665356536 -0.33979145744574 -1.29613510341034
 6  11.17811114171417  0.91945358785879  0.87788806850685
 6 -10.89033050625063  0.32513425222522  2.47653470417042
 6 -13.12134829722972  0.73558920582058  1.35344642144214
 6  12.57904508500850  1.47332675917592  0.65669305550555
 6 -12.53404439033904 -1.37275514331433 -1.17822059075908
 6  13.41958357925793  0.42781045364536  0.21362868176818
 6  10.63092256655666  0.00176076587659 -0.09267568246825
 6 -9.49518828272827 -0.09186203440344 -0.07901789418942
 6  12.97863584118412 -0.14083130253025 -1.16258184448445
 6  11.50563365216522 -0.54836988228823 -0.95483054185419
 6  10.14687157275728  2.20225953795380  0.94399711311131
 6  11.10292112461246  0.27651682708271  2.36301686298630
 6 -11.29859435693569  0.38702034353435 -2.53854611281128
 6 -8.48367446774678  0.81754673707371 -0.18267188968897
 6  9.20584551385138 -0.42401017681768 -0.01112102830283
 6  11.05533547904790 -1.40582354915492 -2.14368397309731
 6 -7.05883720662066  0.48692593439344 -0.18794088338834
 6  8.82004846124613 -1.74450424792479  0.03471833083308
 6 -6.74350577207721 -0.91845060196020 -0.02165927732773
 6  7.44468295579558 -2.19262213421342  0.17775671337134
 6 -6.16625640164016  1.53207678217822 -0.38408026462646
 6  7.23236643084308 -3.57185090729073  0.60711092929293
 6  6.36714398339834 -1.33458374707471 -0.07731007340734
 6 -4.71340531423142  1.48471201040104 -0.41527244064406
 6  4.91102194809481 -1.57541538443844  0.17254947474748
 6 -3.91066243864386  2.59105213141314 -0.52722391139114
 6 -2.55843628172817  2.64257221482148 -0.60388313611361
 6  3.99878384388439 -0.57682818891889 -0.08717823422342
 6  2.63791083968397 -0.74410888238824 -0.01182613521352
 6 -1.97476602680268  3.92373695629563 -0.90574972237224
 6 -1.72923000850085  1.50492323672367 -0.36626264266427
 6  1.73537208220822  0.28657021852185 -0.30910947284728
 6  2.04917823892389 -2.13885667296730  0.31552392029203
 6 -0.28937119601960  1.56030735203520 -0.46990034983498
 6  0.39392422322232  0.42854452225223 -0.14320758155816
 1 -11.09750649214921  1.33240502580258 -0.25141698689869
 1 -12.35675914901490 -1.86923693739374  2.33418131283128
 1 -10.97995566516652 -2.23275247024702  1.24601788438844
 1 -12.38869250285028 -3.17740684798480 -0.08642378027803
 1 -9.83507890919092 -0.17495581998200  2.35181380528053
 1 -10.63751391799180  1.52562563956396  2.68383310521052
 1 -11.39447704000400  0.03163658265827  3.38732291009101
 1 -13.62072327412741  0.61238724102410  0.48670514081408
 1 -13.74891066166617  0.44562617001700  2.29542354435444
 1 -12.92564124952495  1.88395201700170  1.46400688398840
 1  12.48320568726873  2.43533848334833 -0.07849000580058
 1  12.90339476657666  2.08115215411541  1.34226182738274
 1 -13.03885736433643 -1.59122591909191 -2.14256844754475
 1  13.56012559735974 -0.34361410721072  0.94365470137014
 1 -9.31314368006801 -1.31182604160416 -0.15250769076908
 1  13.52266741084108 -0.87802084138414 -1.51404656065607
 1  13.18936535403540  0.67254583248325 -1.87161708550855
 1  9.07385408300830  2.03672372417242  1.30470571797180
 1  10.26527838943894  2.69740234263426 -0.00717380188019
 1  10.41899557285728  2.80554552625263  1.63182933393339
 1  11.56584942624262 -0.72003925252525  2.49169559095910
 1  10.01166613721372  0.20446790579058  2.86948007610761
 1  11.66927782688269  0.97546534333433  3.20500544354435
 1 -10.21989448744875  0.25085499619962 -2.70481787748775
 1 -11.55091414771477  1.36928292679268 -2.38645571087109
 1 -12.06917476257626  0.02191344004400 -3.40655841344134
 1 -14.77505077837784 -2.65467442004200 -0.25936414021402
 1  8.38888795679568  0.21441166636664  0.16953960016002
 1 -8.62746791569157  1.95126677947795  0.03079775937594
 1  11.46061179567957 -2.43159465546555 -1.95344819631963
 1  10.03060592699270 -1.56337243894389 -2.28257419141914
 1  11.42413170687069 -1.10669375947595 -3.10784673277328
 1  15.14911409170917  1.17023512331233  0.79234720362036
 1  9.54091386768677 -2.58202128382838  0.03758731623162
 1 -5.73855831683168 -1.19706685738574 -0.14256685988599
 1 -6.89127802590259 -1.11287326052605  1.14345659805981
 1 -6.99016525172517 -1.71479992819282 -0.50933914871487
 1 -6.43537582408241  2.63400219531953 -0.46255945764577
 1  6.84254780378038 -3.71071449404940  1.65688538423842
 1  6.54301164636464 -3.95834102190219 -0.16593618481848
 1  8.07459735713571 -4.17710389498950  0.50720768806881
 1  6.52527095399540 -0.22251949134914 -0.20103222512251
 1 -4.20525275687569  0.33767343254325 -0.44867092469247
 1  4.71450505400540 -2.66590584358436  0.52445478467847
 1 -4.49979602530253  3.62903088488849 -0.31029068456846
 1  4.34619469566957  0.47311465036504 -0.74140335773577
 1 -1.45030478867887  4.04097554425443 -1.76921519341934
 1 -1.19519235763576  4.24825198249825 -0.06823878367837
 1 -2.73878336643664  4.70918333383338 -1.15846414011401
 1 -2.29857873827383  0.53199982548255 -0.46839156915692
 1  2.23518256035604  1.19749373857386 -0.14889190429043
 1  2.75532406010601 -2.65763216561656  1.18150652915292
 1  0.88176324762476 -2.17862715381538  0.64383309820982
 1  2.09771252065207 -2.88625641284128 -0.59582382538254
 1  0.34057994289429  2.35721556125613 -0.66247323882388
 1 -0.04604750075007 -0.56476664646465  0.24102344734473

