%nproc=4
%Mem=4GB
# td=(NStates=1) CAM-B3LYP/6-31G(d,p) 

TD

0 1
 8 -14.10451632683268 -1.88282666436644  0.73378363366337
 8  14.82948478527853  0.89589717631763  0.19745034093409
 6 -11.84127698729873  0.29890596549655  1.21985680568057
 6 -11.00098706120612  0.32168493949395 -0.19095538273827
 6 -11.99718519911991 -1.28262274667467  1.53943178447845
 6 -12.74557795129513 -2.01841290609061  0.37907205810581
 6 -11.57508279717972 -0.58717619591959 -1.28875436533653
 6  11.10922425302530  0.95391703420342  1.12074235393539
 6 -11.05865733893389  0.89134087288729  2.36401345204520
 6 -13.12071823422342  0.96323197009701  0.95431650845084
 6  12.55983316381638  1.47894732123212  0.88918630483048
 6 -12.42731371727173 -1.56618448624862 -1.06847961666167
 6  13.41912353325332  0.40716838943894  0.36564388328833
 6  10.68413788808881 -0.09809922012201  0.00220380548055
 6 -9.51425018891889 -0.05019786798680  0.02361236883688
 6  12.93423140074007 -0.03726094549455 -1.02777836413641
 6  11.51448453725373 -0.54962000730073 -0.96467152595260
 6  10.23340022562256  2.16307561956196  1.13090580398040
 6  11.00932176467647  0.23602277767777  2.42477303860386
 6 -11.20085458295830 -0.19180753925393 -2.70444270247025
 6 -8.49659575987599  0.74960994339434 -0.26975059755976
 6  9.25426035533553 -0.44790256605661  0.17972805660566
 6  11.11438138363836 -1.20511347814781 -2.18183778847885
 6 -7.10866218911891  0.44546178797880 -0.16435852515252
 6  8.83346980338034 -1.67189698719872 -0.07897303830383
 6 -6.77179860136014 -1.04006276317632  0.21102399099910
 6  7.49069755725573 -2.06617948994899 -0.13393445574557
 6 -6.09804958095810  1.36758033253325 -0.38781063766377
 6  7.15727892209221 -3.57230095229523 -0.05864564636464
 6  6.43183045204520 -1.14078436713671 -0.27720006240624
 6 -4.76427040074007  1.21084462366237 -0.40320123352335
 6  5.04391523742374 -1.53326116901690 -0.23946172637264
 6 -4.07091846424642  2.44475750195020 -0.50712190119012
 6 -2.67511794989499  2.59501745934593 -0.44871761956196
 6  4.00952491799180 -0.56345685178518 -0.35316483288329
 6  2.66558360696070 -0.81564603610361 -0.22159711231123
 6 -1.98394694489449  3.95481006360636 -0.73964311171117
 6 -1.74308139363936  1.47901064546455 -0.22420843724372
 6  1.80528907390739  0.24160572207221 -0.32200076197620
 6  2.21813513461346 -2.25093788108811 -0.02056968906891
 6 -0.32152441134113  1.53270459175918 -0.29871323112311
 6  0.44934976577658  0.31902357015702 -0.33181644244424
 1 -11.08735547704770  1.36083786908691 -0.56030787598760
 1 -12.66173964706471 -1.48939895359536  2.41408930363036
 1 -10.96683435303530 -1.61434062906291  2.02124540714071
 1 -12.32381601520152 -2.97946705400540  0.52448731083108
 1 -10.17805320662066  0.29775145074507  2.60955957985799
 1 -10.60493065966597  1.82417549454946  1.83193791569157
 1 -11.68206579887989  1.09945336433643  3.36567074487449
 1 -13.70784198599860  0.36741274357436  0.26750322062206
 1 -13.50392616321632  1.08405001240124  1.95325932793279
 1 -12.99489817521752  2.07037065886589  0.63142362566257
 1  12.40598796549655  2.39541449094909  0.13382122532253
 1  13.03667809490949  1.97310134903490  1.94790239143914
 1 -12.84703818241824 -2.10795759225923 -1.92403659435944
 1  13.55920550535054 -0.48203794959496  0.97525786168617
 1 -9.44789715541554 -1.17446230523052  0.13868142814281
 1  13.30870601470147 -0.86573961326133 -1.23521867786779
 1  13.03187960546055  0.63207178507851 -1.72724264806481
 1  9.17108380598060  2.06120617241724  1.52908815621562
 1  9.86174803640364  2.54295689808981  0.09546646214621
 1  10.69301297459746  2.97689266096610  1.70845699669967
 1  11.51650449174918 -0.81887913651365  2.34038045944594
 1  9.98400337093709 -0.08387092809281  2.89007213531353
 1  11.56561746084608  1.02095989278928  3.02262720572057
 1 -10.23098559655966 -0.40712080138014 -2.86274367006701
 1 -11.76408546484649  0.84729072757276 -2.92450951625163
 1 -11.57506535163516 -0.82183093439344 -3.49125688328833
 1 -14.68621189448945 -2.76126507910791  0.23827562376238
 1  8.62893196119612  0.27096732193219  0.70078272447245
 1 -8.82829799869987  1.75229688248825 -0.56703202360236
 1  11.37236297079708 -2.35578707470747 -1.98664151565157
 1  10.01132399879988 -1.25410151185119 -2.38939487348735
 1  11.65603489718972 -0.81846493659366 -2.94196014411441
 1  15.12706188648865  1.53012111191119  0.97670563946395
 1  9.49805958225823 -2.32658574027403 -0.33176961946195
 1 -5.76516097709771 -1.36890404110411  0.21916931373137
 1 -7.32291118921892 -1.37324929812981  1.10559281168117
 1 -7.58269450465047 -1.58132658085809 -0.35277349214922
 1 -6.47334962146215  2.34544333943394 -0.64817801950195
 1  6.87595114411441 -3.80424384698470  1.00282997869787
 1  6.27610495569557 -3.89609479727973 -0.70767035823582
 1  8.05057495489549 -4.08923510811081 -0.37076010871087
 1  6.53445187208721 -0.08469570897090 -0.80395251715172
 1 -4.32279451105110  0.24700436563656 -0.11912797039704
 1  4.70354395789579 -2.44743399639964  0.45191753095310
 1 -4.56219226492649  3.31141912371237 -0.64511416691669
 1  4.43367344354435  0.40861820072007 -0.74100331773177
 1 -1.06563632183218  3.57504895159516 -1.41660993289329
 1 -1.54670750915092  4.19297645494550  0.31527956815682
 1 -2.72789227732773  4.81205362086209 -1.38174646834683
 1 -2.29781866226623  0.50420704620462 -0.16633136313631
 1  2.44560360246025  1.04641863106311 -0.57543455855586
 1  2.31080960866087 -2.59885628802880  1.04748312681268
 1  1.20704577587759 -2.39279857095710 -0.03967525262526
 1  2.51989473887389 -3.19186697389739 -0.80654489748975
 1  0.18765465036504  2.53914375407541 -0.12971996349635
 1 -0.40278317431743 -0.48512868266827 -0.40647130213021

