%nproc=4
%Mem=4GB
# td=(NStates=1) CAM-B3LYP/6-31G(d,p) 

TD

0 1
 8 -14.20261613681368 -1.95941432313231  0.46804706000600
 8  14.83106494329433  0.66347393399340 -0.00048945304530
 6 -11.80096295589559  0.01132720762076  1.25009982998300
 6 -10.98889585208521  0.12349512051205 -0.11062734993499
 6 -12.05667114771477 -1.55850033443344  1.32166000730073
 6 -12.79472286578658 -2.20210127492749  0.24772892379238
 6 -11.65838112701270 -0.48291576987699 -1.28842433233323
 6  11.19439276987699  1.03905554805481  0.97169744944494
 6 -11.00194166736674  0.48896063486349  2.40465751645164
 6 -13.12571873427343  0.79788543544354  1.20894197099710
 6  12.70021720222022  1.41368079457946  0.72533992019202
 6 -12.35255624152415 -1.57879574737474 -1.05259802850285
 6  13.57591921282128  0.27110478307831  0.45836315521552
 6  10.72348182248225 -0.01666107630763 -0.04835125002500
 6 -9.53312207610761 -0.15949879807981  0.00137014461446
 6  13.10265824342434 -0.37708492789279 -0.88342392869287
 6  11.64830791959196 -0.70433547884788 -0.83959901870187
 6  10.36832371797180  2.34700401240124  1.02431514491449
 6  10.95862669516952  0.41086026142614  2.44275483678368
 6 -11.27743224072407  0.13060470197020 -2.64776703490349
 6 -8.51249735003500  0.74146912931293 -0.10203382588259
 6  9.32633756305631 -0.45037281308131  0.04096418021802
 6  11.17348729422942 -1.54718768556856 -2.01642124682468
 6 -7.10186150905091  0.46218346014601 -0.00733282258226
 6  8.88177463386339 -1.74559435693569 -0.19486462746275
 6 -6.58218964046405 -0.97690644754475  0.25245813441344
 6  7.47973646114611 -1.99938281028103  0.08021695939594
 6 -6.20469024502450  1.54526810131013 -0.24434629122912
 6  7.10232342654265 -3.51632535473547  0.17236745494549
 6  6.32648991799180 -1.06271656035604 -0.20119246164616
 6 -4.78658263196320  1.61194473367337 -0.19778069146915
 6  5.01818266416642 -1.41144898779878 -0.17817559775978
 6 -4.06986835923592  2.66856988318832 -0.47988917791779
 6 -2.66863730183018  2.76275423302330 -0.59844259205921
 6  3.94418838433843 -0.49977048314831 -0.41289080548055
 6  2.57132418101810 -0.71552602410241 -0.28107305990599
 6 -1.92136068626863  4.07480206280628 -0.98469761716172
 6 -1.91691877737774  1.59808255265527 -0.29525554195420
 6  1.74971351635164  0.43082464396440 -0.40280884278428
 6  2.17703102420242 -2.11842462976298  0.16425879377938
 6 -0.52587484638464  1.61399272057206 -0.44713807360736
 6  0.35568039883988  0.45494716251625 -0.22571583238324
 1 -10.97506424792479  1.23253503880388 -0.39522136733673
 1 -12.78928240134013 -1.71035104880488  2.17650554525453
 1 -11.07470514011401 -1.94828402340234  1.75003828642864
 1 -12.53575720932093 -3.29322843014301  0.25804066616662
 1 -10.09296469776978 -0.07847617201720  2.34664328822882
 1 -10.63349351595160  1.54036711371137  2.44947966986699
 1 -11.47284487678768  0.23261668066807  3.33346752455245
 1 -13.82367356915691  0.41517752005201  0.44968143844384
 1 -13.71536730733073  0.54774638203820  2.08796279827983
 1 -12.76287497289729  1.86135975777578  1.11185166846685
 1  12.82074944164416  2.15842079157916 -0.01762391919192
 1  12.91045547264726  1.95666970587059  1.73132073327333
 1 -12.98138161676168 -2.19854665116512 -1.92940713141314
 1  13.67180676547655 -0.33452319811981  1.26520685658566
 1 -9.21169353505350 -1.32680753975398  0.00283784378438
 1  13.52067721182118 -1.32539557885789 -1.05999115511551
 1  13.28885530303030  0.31253983188319 -1.67358728252825
 1  9.27228392599260  1.90752080388039  1.07331257865787
 1  10.31765362696270  2.79596219861986 -0.01825490999100
 1  10.44393806710671  3.04831980368037  1.92745889688969
 1  11.95433827512751 -0.38379562816282  2.53976039743974
 1  9.98411338193819 -0.01344388538854  2.69066219431943
 1  11.10093099219922  1.23510130693069  3.14963990699070
 1 -10.31100359835984  0.39706961766177 -2.85065246094609
 1 -12.11904096039604  0.93369936843684 -2.79410647594760
 1 -11.39209705480548 -0.67889664096410 -3.50747850545054
 1 -14.57827110041004 -2.06177513011301 -0.46921512531253
 1  8.54662373037304  0.34454467966797  0.50087273347335
 1 -8.83537870677068  1.71689334213421 -0.38131345174517
 1  11.20242597709771 -2.83019451545154 -1.86663951545155
 1  9.91839470587059 -1.10976707840784 -2.19108504250425
 1  11.76462575627563 -1.40015310541054 -2.82470841894189
 1  15.33789296959696  0.70430853065307  1.03958192709271
 1  9.54234401070107 -2.55115819751975 -0.41726816931693
 1 -5.50644510551055 -0.95355250595059  0.28251564836484
 1 -6.84239313741374 -1.27193916711671  1.15111736413641
 1 -7.35254148934894 -1.77653610181018 -0.43970218501850
 1 -6.68522080858086  2.59354814991499 -0.42909611131113
 1  6.60157370637064 -3.82277570017002  0.88451814751475
 1  6.52819016421642 -3.97373256105611 -0.68879847104710
 1  8.04718461586159 -4.20608679327933  0.19120608790879
 1  6.80313874077408 -0.07239447884788 -0.35286740864086
 1 -4.26448868046805  0.80966063126313  0.18041198359836
 1  4.79841344484448 -2.33274252725273  0.30657299649965
 1 -4.62755880158016  3.55563354515451 -0.87582723822382
 1  4.12561263746375  0.56062340124012 -0.56123534093409
 1 -1.35510526872687  3.95667711441144 -1.92027029892989
 1 -1.38814165256526  4.30091724902490 -0.38360031983198
 1 -2.61281076917692  4.73047546304630 -1.20138843254325
 1 -2.31190007040704  0.67729435493549  0.09861513151315
 1  2.31246028812881  1.20202419161916 -0.80078709380938
 1  2.32301082878288 -2.17189359175918  1.22006038453845
 1  1.09274434573457 -2.45803509460946 -0.11615290039004
 1  2.79604235363536 -2.93039082628263 -0.30165440844084
 1  0.09483536843684  2.66560640034003 -0.91194818631863
 1 -0.15525842184218 -0.45860603040304  0.11894123912391

