%nproc=4
%Mem=4GB
# td=(NStates=1) CAM-B3LYP/6-31G(d,p) 

TD

0 1
 8 -14.18433430863086 -1.94263264496450  0.55315557085709
 8  14.80408224502450  1.03500108670867  0.20002059795980
 6 -11.74862772237224  0.05950202510251  1.24859967996800
 6 -11.00302726522652  0.28504127512751 -0.06574286148615
 6 -12.06335181578158 -1.32591707610761  1.45304314561456
 6 -12.77505089858986 -2.07884894969497  0.30221437233723
 6 -11.68721401030103 -0.42633011131113 -1.19772526242624
 6  11.17114044464446  1.00057169966997  1.02336261596160
 6 -10.94563603680368  0.63771551035104  2.42043909460946
 6 -13.04095025742574  0.92665831273127  1.14347542434243
 6  12.44947212771277  1.56444587108711  0.77045443164316
 6 -12.47347833373337 -1.49544741254125 -1.08074084278428
 6  13.51786340724072  0.50501817441744  0.42169948884888
 6  10.75959543384339  0.00991158095810  0.07299088418842
 6 -9.55365412931293 -0.02621546974697 -0.00610060246025
 6  13.03263124072407 -0.19835705510551 -0.77990357665767
 6  11.63748683748375 -0.56470151545155 -0.83303836263626
 6  10.23006989258926  2.27830714271427  0.93232594599460
 6  11.03426425892589  0.37134631003100  2.38351891319132
 6 -11.42032653015302  0.12771441294129 -2.55873813201320
 6 -8.52283838413841  0.80857583998400 -0.18454207670767
 6  9.30669559885989 -0.41399917571757 -0.00577049324933
 6  11.24606455195519 -1.39569253605361 -1.97248685338534
 6 -7.13736505940594  0.51713895569557 -0.10901299059906
 6  8.79561601800180 -1.64612440994099 -0.28537367836784
 6 -6.64022544404440 -0.86008476537654  0.19499238783878
 6  7.39125761326133 -2.09850272227223 -0.16432749504950
 6 -6.23949372537254  1.55622919741974 -0.44899675627563
 6  7.23269646384638 -3.61005472767277 -0.07563734553455
 6  6.34706197519752 -1.20017030573057 -0.07825016741674
 6 -4.84520849454946  1.42855639483948 -0.31318223162316
 6  4.98780962686269 -1.52880072297230 -0.09603738393839
 6 -3.96329770217022  2.55366839303930 -0.57793898289829
 6 -2.59695013311331  2.50572853045305 -0.65792854065407
 6  4.03727769326933 -0.58446895299530 -0.21024054045405
 6  2.60352740134013 -0.88093256475648 -0.12685763836384
 6 -1.80703925412541  3.83288787138714 -0.81187033443344
 6 -1.76512359785979  1.42911565596560 -0.53095911231123
 6  1.72437098209821  0.14691625312531 -0.30458902080208
 6  2.14373769486949 -2.33980676797680  0.00078244614461
 6 -0.38987124602460  1.31977329862986 -0.55334869466947
 6  0.37064189498950  0.13400506830683 -0.18855211601160
 1 -11.18153489498950  1.15010679597960 -0.38305015021502
 1 -12.56163963706371 -1.76359637333733  2.38662655735574
 1 -10.99637730733073 -1.83239243424342  1.57473075567557
 1 -12.65439907350735 -3.13553266056606  0.29505436753675
 1 -9.99355475677568 -0.02477080148015  2.50914953885389
 1 -10.36883705030503  1.57008008500850  2.14131885378538
 1 -11.26951454375438  0.51179459845985  3.37240141794179
 1 -13.69458065986599  0.76782278457846  0.33934040434043
 1 -13.77029279987999  0.51533314071407  1.95049905190519
 1 -12.92039072447245  2.03515713751375  1.44331481478148
 1  12.44833219991999  2.30637558705871 -0.09566172297230
 1  12.83357778487849  2.07298133703370  1.68933653485349
 1 -12.80744422302230 -2.03546034253425 -1.91481567226723
 1  13.43300288508851 -0.27363710951095  1.24964530043004
 1 -9.30853321902190 -0.88545340434043  0.08561612161216
 1  13.43851899599960 -1.16427946724672 -0.86951210721072
 1  13.40323674117412  0.53960253815382 -1.50056998079808
 1  9.06932362996300  1.92117216901690  0.93531877927793
 1  10.42077393899390  2.82900550295030 -0.01936502100210
 1  10.53210688398840  3.06488145984598  1.53535968696870
 1  11.66016885818582 -0.55464271287129  2.66097251865187
 1  10.20095506610661 -0.41036357735774  2.45845897399740
 1  11.01231213031303  1.01045884268427  3.40780572357236
 1 -10.33603610161016  0.06845675637564 -2.71074847054706
 1 -11.75132418871887  1.03144914341434 -2.45344240954095
 1 -11.97980582568257 -0.27922667396740 -3.32296005360536
 1 -14.62160543384338 -2.52474142674267 -0.13706190999100
 1  8.34618368636864  0.25319554475448  0.27015966216622
 1 -8.83485865476548  1.71785343814382 -0.34656997739774
 1  11.36103183768377 -2.49864136013601 -1.83131598309831
 1  10.12336520292029 -1.29949605130513 -2.03587952195220
 1  11.55705499919992 -0.71024411451145 -2.94601054915492
 1  15.12130131043104  1.30548864866487  1.01196916581658
 1  9.56049582588259 -2.52186526822682 -0.47771421392139
 1 -5.64223868486849 -0.97472462316232 -0.01782438563856
 1 -6.83757265536554 -1.32083405660566  1.42184443684368
 1 -7.41135737093709 -1.49471791999200 -0.43216143094309
 1 -6.58353063956396  2.47214600970097 -0.60641384308431
 1  6.44014756375638 -3.78703212581258  0.90594028972897
 1  6.59915726092609 -4.16844203200320 -0.83378296949695
 1  8.12862275967597 -4.22413859845985  0.33167013431343
 1  6.47166559345935 -0.13928116751675 -0.51564368626863
 1 -4.23592582418242  0.43987365256526  0.10006394879488
 1  4.63539714321432 -2.57485673867387 -0.00271793259326
 1 -4.26934297999800  3.57365534733473 -0.77329698519852
 1  4.43368344454445  0.52203954285428 -0.43130234763476
 1 -1.07537729592959  3.89189063576358 -1.65581385328533
 1 -1.18724156255626  3.85250240754075  0.27818585878588
 1 -2.35251473957396  4.77862027752775 -0.78713700740074
 1 -2.15017389778978  0.42339896539654 -0.70751548154816
 1  2.07742678477848  1.22380636983698 -0.41777879297930
 1  2.68007653535354 -2.84306070847085  0.83243162166217
 1  1.03104817611761 -2.18714800590059  0.20704941984198
 1  2.20919366876688 -2.77373516071607 -1.11392563556356
 1  0.08203408830883  2.33043288298830 -0.50865785728573
 1 -0.41878477447745 -0.65337550735074 -0.00553120812081

