%nproc=4
%Mem=4GB
# td=(NStates=1) CAM-B3LYP/6-31G(d,p) 

TD

0 1
 8 -14.24304017921792 -1.94883326502650  0.58008826412641
 8  14.83979581638164  1.13171075767577  0.22533312921292
 6 -11.75735859545955  0.17882395729573  1.41134595459546
 6 -10.98798576107611  0.37136990799080  0.04779849264926
 6 -12.10996647724772 -1.39122360676068  1.47256509780978
 6 -12.75753914741474 -2.00884194899490  0.30329448034803
 6 -11.63975926482648 -0.28105558385839 -1.11733722362236
 6  11.07204053465346  1.00558220072007  1.24666494619462
 6 -10.81560303350335  0.62334407320732  2.46510356105611
 6 -13.04724088648865  0.94723036993699  1.43542461926193
 6  12.47771495199520  1.60691011751175  0.93466085228523
 6 -12.49244022992299 -1.32896076387639 -1.02514528322832
 6  13.48817043794379  0.57217489008901  0.37926524542454
 6  10.72736221052105 -0.01196060626063  0.14288787388739
 6 -9.55156392029203 -0.06391924012401  0.16779678727873
 6  12.99222720032003 -0.00176739613961 -0.92956854315432
 6  11.55446853565356 -0.44385943124312 -0.93563862266227
 6  10.13413029862986  2.24612392439244  1.27129984338434
 6  11.05438627112711  0.23033220862086  2.54118467976798
 6 -11.36811130863086  0.36556819831983 -2.42818507670767
 6 -8.52580868116812  0.73843882628263 -0.19584320682068
 6  9.34330926022602 -0.48655643144314  0.18002808660866
 6  11.05778572407241 -1.22846581338134 -2.10466007070707
 6 -7.14880620352035  0.46701394319432 -0.24240632993299
 6  8.88417487388739 -1.68714851235124 -0.02669781078108
 6 -6.71719314081408 -0.88252700960096  0.06600948954895
 6  7.45565405290529 -2.17323019501950 -0.03246430873087
 6 -6.22965274127413  1.41883545804580 -0.49239109570957
 6  7.23227642184218 -3.61878560076008 -0.06640642244224
 6  6.47751502050205 -1.25559584828483 -0.16774911731173
 6 -4.84852882658266  1.27716125532553 -0.52510342374237
 6  5.05399624552455 -1.63672151505151 -0.18445622582258
 6 -3.98925029742974  2.41598462466247 -0.82696388538854
 6 -2.62074251235124  2.45198315591559 -0.89531227902790
 6  4.12553651915191 -0.72566307240724 -0.34315383178318
 6  2.70188723732373 -0.93100757225723 -0.33273822642264
 6 -2.00096864706471  3.82277686028603 -0.98097724512451
 6 -1.83451053655366  1.29892263666367 -0.60240625702570
 6  1.82192073707371  0.14989655115512 -0.44751331323132
 6  2.20183350445045 -2.27499028632863  0.10646301420142
 6 -0.39522178107811  1.28757007830783 -0.73480684048405
 6  0.40103493429343  0.06920858865887 -0.56767002780278
 1 -11.03272001350135  1.34700648594860 -0.06174802000200
 1 -12.58279175227523 -1.63286330003000  2.40934882958296
 1 -11.04200186978698 -1.95413460846085  1.33785706830683
 1 -12.61562519611961 -3.06704581188119  0.22297715981598
 1 -9.99547494879488 -0.04258258265827  2.74209283318332
 1 -10.65570573717372  1.73886696369637  2.34776949884989
 1 -11.38662625492549  0.73720713971397  3.48179235703570
 1 -13.62617381918192  1.15906190849085  0.37349381968197
 1 -13.74539030963096  0.71028263566357  2.15562956495650
 1 -12.88872755815581  2.14034765656566  1.42428291159116
 1  12.36039340604060  2.35567051655166  0.04555239843984
 1  12.91906633373337  2.15182922182218  1.74772237343734
 1 -12.61722520112011 -1.71068786528653 -1.90338452915292
 1  13.48121770657066 -0.26319606540654  1.18039837573757
 1 -9.29252161786179 -0.95741060006001  0.24835239523952
 1  13.79103424752475 -0.77132017131713 -1.24940009600960
 1  13.08231464896490  0.76343492139214 -1.66510643444344
 1  9.19945664326433  1.77563761556156  1.77264251165117
 1  9.94853671527153  2.55943854625463  0.22681959745975
 1  10.34728840214021  3.06531150285029  1.89677582858286
 1  11.87476031733173 -0.53203045164516  2.76220264166417
 1  9.87348231883188 -0.18489103010301  2.68657178527853
 1  11.32488338743874  0.97008480528053  3.27550249324933
 1 -10.23991648964897  0.31398130883088 -2.62425982168217
 1 -11.76828588488849  1.45358135663566 -2.47833489878988
 1 -11.95385323042304 -0.29625837713771 -3.19887764536454
 1 -14.72430570387039 -2.60969992259226 -0.00195839963996
 1  8.70699976797680  0.25457568276828  0.74224687088709
 1 -8.64633980288029  1.75552720552055 -0.58232355275528
 1  11.33654938943894 -2.16216771277128 -1.93373622512251
 1  9.91454432083208 -1.15742184388439 -2.13123905790579
 1  11.53648294199420 -0.85064815491549 -3.08050399849985
 1  15.12027120742074  1.68183628342834  1.12379034793479
 1  9.42556233253325 -2.49087216891689 -0.36104254675468
 1 -5.63153761476148 -0.85054220492049  0.09242663946395
 1 -7.07197609570957 -1.16461843504350  1.09242149454946
 1 -7.40449668486849 -1.61242969116912 -0.51270948574857
 1 -6.76139842634263  2.34217301240124 -0.62744594629463
 1  6.85372892189219 -3.90727415001500  1.00821051675168
 1  6.54362170737074 -3.90700588838884 -0.83922351355136
 1  8.17863776117612 -4.26890307490749 -0.26183921662166
 1  6.71016944384438 -0.40288752815281 -0.24527664956496
 1 -4.42746497809781  0.30768043324332 -0.56621267886789
 1  4.90808441194119 -2.66750600360036 -0.06871453225323
 1 -4.48986503220322  3.52797077887789 -0.89494915041504
 1  4.48193827002700  0.37014435333533 -0.23813303070307
 1 -1.24877463566357  3.84683613031303 -1.83817208910891
 1 -1.16842968136814  3.87093425072507 -0.11659361916192
 1 -2.67385687378738  4.62700511601160 -0.89977827152715
 1 -2.20499938033803  0.35375200070007 -0.30437516751675
 1  2.36435547764777  1.08564255345535 -0.77090410551055
 1  2.70133866156616 -2.58942534493449  0.97408578707871
 1  1.17252232353235 -2.31308059915992  0.12112082698270
 1  2.38312106150615 -3.08815660286029 -0.66603084608461
 1  0.16849273417342  2.16598643834383 -0.86946393789379
 1 -0.01331422742274 -0.96860703050305 -0.51004165916592

