%nproc=4
%Mem=4GB
# td=(NStates=1) CAM-B3LYP/6-31G(d,p) 

TD

0 1
 8 -14.01769764496450 -1.98861724342434  0.79763001830183
 8  14.77990982778278  1.03021060766077  0.32773336923692
 6 -11.62303516311631 -0.01238516361636  1.38004282428243
 6 -10.91034799729973  0.29635240624062  0.03847756055606
 6 -11.85018049864986 -1.48236272067207  1.52355019631963
 6 -12.62915630913091 -2.15923698849885  0.32976712761276
 6 -11.71047633653365 -0.26805428372837 -1.18313380328033
 6  11.01814514511451  0.99228087058706  1.15050533023302
 6 -10.77336881008101  0.43754549334933  2.52240929162916
 6 -12.94969113151315  0.76876252315232  1.45957703450345
 6  12.51847902840284  1.51657108360836  0.95051243744374
 6 -12.36206719261926 -1.44029189698970 -1.01591436013601
 6  13.40991261216122  0.39818749134913  0.44788210711071
 6  10.58388786308631 -0.02190160036004  0.07816140124012
 6 -9.41941070497050 -0.12700554875488 -0.09592958535854
 6  12.99538751635163 -0.20446766616662 -0.91774736103610
 6  11.54490757955796 -0.52235728102810 -0.84961001980198
 6  10.07724461006101  2.22041135313531  1.16581929532953
 6  10.96768760126013  0.31874104950495  2.52783334463446
 6 -11.54407890539054  0.32128376987699 -2.55177743594359
 6 -8.49835593589359  0.88062304470447 -0.18636225872587
 6  9.22571750105011 -0.40289806560656  0.13309339313931
 6  11.11561150665066 -1.36621958875888 -2.00191979667967
 6 -7.09276059895990  0.50831807360736 -0.18257034633463
 6  8.77984444084409 -1.67459725722572 -0.15056019701970
 6 -6.77627904940494 -0.89061781868187 -0.02378949034903
 6  7.36920540804080 -2.16067893989399 -0.05029609190919
 6 -6.17023679967997  1.51875545004500 -0.39151100770077
 6  7.14851804600460 -3.59878360056006  0.20289050725072
 6  6.36859412841284 -1.25625591429143 -0.20185252765277
 6 -4.74702867656766  1.44667820702070 -0.42245315871587
 6  4.85262610851085 -1.62444028692869 -0.15003278347835
 6 -3.94489586198620  2.54933795999600 -0.78597978697870
 6 -2.52725316341634  2.71128908650865 -0.82307505530553
 6  3.94895886138614 -0.62511301740174 -0.46858637503750
 6  2.60001705030503 -0.89847431893189 -0.41249620222022
 6 -1.94578312851285  4.00144472707271 -1.15001414881488
 6 -1.73576066156616  1.54144688908891 -0.53839985638564
 6  1.79864840984098  0.24697625912591 -0.56755531743174
 6  2.10479380048005 -2.32162494979498 -0.13662129422942
 6 -0.33406566546655  1.50723204450445 -0.58491185098510
 6  0.34874970577058  0.34155582338234 -0.49329259005901
 1 -10.78410515201520  1.41837362266227 -0.03584542974298
 1 -12.48148162126212 -1.81842185588559  2.41215911061106
 1 -10.84589225882588 -2.18518771377138  1.41691497409741
 1 -12.56735036863686 -3.19381848914891  0.27015187728773
 1 -9.79530493179318 -0.18071639603960  2.52502112601260
 1 -10.33647381398140  1.52876595359536  2.55936065796580
 1 -11.49469706200620  0.33275669466947  3.44705888368837
 1 -13.71434263606361  0.36688269056906  0.71969844014401
 1 -13.51490726132613  0.44137574497450  2.29734373637364
 1 -12.78090677607761  1.88973259505951  1.25533601690169
 1  12.52835020172017  2.29211416091609  0.25438328152815
 1  12.77692211931193  1.88940297919792  1.97332493369337
 1 -12.82778625722572 -1.98254505100510 -1.87742193289329
 1  13.46097568236824 -0.53328307410741  1.05367570347035
 1 -9.05451781748175 -1.04625948494850 -0.22003444344434
 1  13.39772491659166 -1.19411245054505 -1.11486664266427
 1  13.23446986448645  0.50318889678968 -1.73479340314031
 1  9.00984768236824  2.09893994579458  1.31227647504750
 1  10.13523538513851  2.79923252565256  0.17938485398540
 1  10.45879955325533  2.90337530923092  1.85221137213721
 1  11.79431227252725 -0.44731197979798  2.78629505090509
 1  10.02528749934993 -0.29078161916192  2.73574670277028
 1  11.05018591769177  0.98668646544654  3.35191013401340
 1 -10.31045354335434  0.25672558325833 -2.59182657835784
 1 -11.89938899519952  1.30747674617462 -2.48049511481148
 1 -12.06383422852285 -0.25637438873887 -3.22923068066807
 1 -14.68541181448145 -2.44728368096810  0.17471926812681
 1  8.45624469246925  0.31491171637164  0.37247989418942
 1 -8.99225439433943  1.92226387918792 -0.17177249764976
 1  11.37454318881888 -2.38185968196820 -1.89952280378038
 1  10.01801466786679 -1.28852495419542 -2.20767670167017
 1  11.74041333503350 -1.26339943004300 -2.77959390749075
 1  15.08444762506251  1.16267436723672  1.22698066696670
 1  9.53998377467747 -2.49591267296730 -0.15535197769777
 1 -5.81936639763976 -1.01245839653965 -0.02232483568357
 1 -7.07770666876688 -1.34758673187319  1.06301855425543
 1 -7.13961019621962 -1.68799724792479 -0.74066228102810
 1 -6.64299658615862  2.40754955005501 -0.74781798349835
 1  6.75588913791379 -3.76413983658366  1.19692938863886
 1  6.48034537973797 -4.05808099589959 -0.53610320152015
 1  8.14145404280428 -4.07185336993699  0.13100006730673
 1  6.71062948984899 -0.14764200360036 -0.28393051495150
 1 -4.25458769036904  0.47121678687869 -0.04495055265526
 1  4.52083568706871 -2.62709196219622  0.21318365756576
 1 -4.56756280198020  3.50578856065607 -1.14719437493749
 1  4.17174725092509  0.32432977187719 -0.91883110051005
 1 -1.24395415361536  3.89190063676368 -1.98333660556056
 1 -1.44386722512251  4.35465262256226 -0.28923088288829
 1 -2.66380586868687  4.71608402390239 -1.37730602430243
 1 -2.44901378177818  0.71639826532653 -0.31438616861686
 1  2.58419746184618  1.22311630083008 -0.67947496259626
 1  2.29971849954996 -2.37738414081408  0.99323770227023
 1  1.13869894119412 -2.39908920002000 -0.15228651375138
 1  2.60785353475348 -2.93160094729473 -0.85494973797380
 1  0.19681556645665  2.30234007370737 -0.81979897139714
 1  0.00414751875187 -0.62901307110711 -0.24920557555756

