%nproc=4
%Mem=4GB
# td=(NStates=1) CAM-B3LYP/6-31G(d,p) 

TD

0 1
 8 -14.13259913511351 -1.96701508320832  0.61163141844184
 8  14.72364420122012  1.31797938453845  0.15661625752575
 6 -11.84371723132313  0.24614068896890  1.33065788578858
 6 -11.00535749824983  0.43969674067407  0.04867858065807
 6 -11.96010149074908 -1.28079256365637  1.47587542884288
 6 -12.61489488298830 -1.98060912571257  0.34607875877588
 6 -11.64682997189719 -0.26524400270027 -1.31466695659566
 6  11.10010334093409  0.92273391589159  1.18079835953595
 6 -11.08607008020802  0.86041778057806  2.44264131483148
 6 -13.18166432883288  0.99260490739074  1.16502757955796
 6  12.39118629912991  1.71168059455946  0.80080746694669
 6 -12.27863884978498 -1.39703757155716 -1.03940670937094
 6  13.45344696559656  0.73568124072407  0.31683900280028
 6  10.69526900120012  0.01252184198420 -0.01652806770677
 6 -9.57003576747675 -0.06841969016902  0.07932794039404
 6  12.99563754135414  0.08805158575858 -0.95508109440944
 6  11.55659874867487 -0.32049709500950 -0.99082414121412
 6  10.04710159575958  2.07467677967797  1.29194190759076
 6  11.02083291579158  0.07160633603360  2.46482704400440
 6 -11.44213871137114  0.33177481898190 -2.66997925612561
 6 -8.51854795509551  0.73686866926693 -0.22965658815882
 6  9.34083901320132 -0.50107788358836  0.07303738753875
 6  11.14043398889889 -1.19585255205521 -2.11032063676368
 6 -7.13936525942594  0.33572081388139 -0.06506859615962
 6  8.86559301570157 -1.70866066356636 -0.09382452345235
 6 -6.88409983148315 -1.03636239313931  0.33993688228823
 6  7.44966345384538 -2.27167003900390 -0.09166022832283
 6 -6.20099987598760  1.37092066656666 -0.39694155075508
 6  7.33114630883088 -3.70938466066607  0.06786700490049
 6  6.45842311131113 -1.31821210991099 -0.25090743314331
 6 -4.77360133383338  1.26810034923492 -0.39063997739774
 6  5.10198104400440 -1.70571841474147  0.03059527932793
 6 -3.96593796619662  2.33616664286429 -0.66045723472347
 6 -2.56042648074807  2.47656561416142 -0.65354810261026
 6  4.03972793829383 -0.85263576967697 -0.19020853725373
 6  2.67129417801780 -0.94820929242924 -0.32732768536854
 6 -1.89894844504450  3.85150973357336 -0.92460160756076
 6 -1.80410749624963  1.34194693909391 -0.59030504690469
 6  1.89248779377938  0.12590415191519 -0.49369793169317
 6  2.13673699479948 -2.35918870617062  0.02749511741174
 6 -0.35760801970197  1.32093341464146 -0.52209556935694
 6  0.46953178397840  0.20492216001600 -0.39460272107211
 1 -11.08087482898290  1.61995378067807 -0.13499534473447
 1 -12.56397987108711 -1.66824683838384  2.28722661736174
 1 -10.88838650825083 -1.58976817181718  1.68542182478248
 1 -12.32018565216522 -2.97480658795880  0.39499436153615
 1 -10.20286568786879  0.56641831743174  2.59007763166317
 1 -10.73190335693569  1.92324540154015  2.35489021092109
 1 -12.02854044634463  0.88498191719172  3.19286346414641
 1 -13.65005620742074  0.39772577487749  0.28226469676968
 1 -13.84222999359936  0.98244985238524  1.98391239323932
 1 -13.07762644804480  2.26530015181518  0.83963444674467
 1  12.08573594029403  2.44547949744975  0.05068291149115
 1  12.92331675877588  2.05637967686769  1.72313991519152
 1 -12.63158663726373 -2.04697149364937 -1.88200239093909
 1  13.60302988778878 -0.08111785758576  1.29348968486849
 1 -9.37072943864386 -1.09473433243324  0.14463202320232
 1  13.54740988508851 -0.89544258355836 -1.22002715871587
 1  13.14459087658766  0.69654823272327 -1.83887381118112
 1  9.07447414501450  1.61126117791779  1.72071731913191
 1  9.96432829442944  2.49330193259326  0.23553046854685
 1  10.38918259155916  2.80524549624962  1.95130128112811
 1  11.73174601590159 -0.59258650725073  2.52847926932693
 1  10.11622659325933 -0.60952349334933  2.85223835193519
 1  11.26397729682968  0.63049084588459  3.36166110911091
 1 -10.34308680668067  0.77606751745175 -2.76181357705771
 1 -12.07320637693769  1.15214121262126 -2.87496456175618
 1 -11.48657650275027 -0.43687243854385 -3.35648340594059
 1 -14.51186445974598 -2.46418537113711 -0.27540574437444
 1  8.59359842784278  0.19866009120912  0.43094574077408
 1 -8.71040620952095  1.70170182298230 -0.73544886528653
 1  11.99720545504550 -2.21802329832983 -1.96273912541254
 1  10.03308617501750 -1.55972207390739 -2.20631656565657
 1  11.57906720042004 -0.64772786288629 -3.18047399549955
 1  15.29276845714571  1.14281238103810  1.11455942484248
 1  9.75153492979298 -2.23649673137314 -0.47141358385839
 1 -5.71543600460046 -1.26717386808681  0.39332672947295
 1 -7.55476437453745 -1.45923789698970  1.20272252465247
 1 -7.16655289048905 -1.48569701790179 -0.65287350215021
 1 -6.63298558505851  2.31161995709571 -0.65567876957696
 1  7.25130867986799 -4.16069949254925  1.06903659935994
 1  6.34024136933693 -4.05615080288029 -0.44418400960096
 1  8.22721261866187 -4.33570975557556 -0.22216524922492
 1  6.75970439733973 -0.31480872027203 -0.25469759165917
 1 -4.34666689828983  0.29259892509251 -0.07865392299230
 1  4.80281388488849 -2.68512776577658  0.25856819601960
 1 -4.67314336003600  3.09698768056806 -0.89181883738374
 1  4.54614469066907  0.08342568146815 -0.46484570197020
 1 -1.25311506970697  3.88496994369437 -1.86347461936194
 1 -1.27575041344134  4.17255441274127 -0.07751971177118
 1 -2.70069955805581  4.61551396689669 -0.98163645734574
 1 -2.24216309670967  0.45674229972997 -0.67586231623162
 1  2.30086912901290  1.18288227742774 -0.75845286038604
 1  2.54034256195620 -2.89058546094610  0.96158453695369
 1  1.03132820412041 -2.68311760286029  0.10752946784678
 1  2.29088183758376 -2.96935472267227 -0.98855309830983
 1  0.06960284518452  2.21726156585659 -0.66211320282028
 1  0.01143824782478 -0.68109827962796 -0.29577023202320

