%nproc=4
%Mem=4GB
# td=(NStates=1) CAM-B3LYP/6-31G(d,p) 

TD

0 1
 8 -13.94947082228223 -2.10178856055606  0.48802905820582
 8  14.78736057285728  0.80806839343934  0.06322691859186
 6 -11.76220908050805  0.15411148604860  1.25177999799980
 6 -10.95910287278728  0.28330110111011 -0.13113940114011
 6 -11.90688616921692 -1.38460294469447  1.44748258955896
 6 -12.57997139063906 -2.11874293909391  0.24447859875988
 6 -11.45330061896190 -0.45999347764776 -1.26299178907891
 6  11.04239757035704  0.92226386888689  1.06809708940894
 6 -11.16216768996900  0.58461019981998  2.47504455515552
 6 -13.15302146454646  0.79036468336834  1.14197527432743
 6  12.49298647914791  1.46497592409241  0.88216560276028
 6 -12.29380036593659 -1.54348221602160 -1.09729249794980
 6  13.47532915381538  0.41713938653865  0.21685900480048
 6  10.58382785708571  0.03842443224322 -0.13658007290729
 6 -9.51946070997100 -0.02965581378138  0.05886589418942
 6  12.90537851545155 -0.07390460986099 -1.12081766806681
 6  11.47970105890589 -0.37489253455346 -1.02799785858586
 6  10.12652953855386  2.09665897789779  1.13105581898190
 6  10.96613744624462  0.06990616601660  2.39890045134513
 6 -11.27028152565257  0.14247588908891 -2.63486574477448
 6 -8.45298139843984  0.80280526292629 -0.11524514701470
 6  9.17328225752575 -0.48471624742474 -0.03206312251225
 6  11.02963290879088 -1.27107007380738 -2.19006861156116
 6 -6.99946126902690  0.43310055185519 -0.09261135043504
 6  8.76419287568757 -1.70100989848985 -0.19761490249025
 6 -6.58386980848085 -0.97534629152915  0.22143503210321
 6  7.38910739823982 -2.13692656465647  0.01758069576958
 6 -6.20216999299930  1.57763133763376 -0.42639449604960
 6  7.09904309850985 -3.60424414661466  0.20269048724872
 6  6.33329059805981 -1.29649993869387 -0.03913625602560
 6 -4.82375634933493  1.46968050725073 -0.56633754715472
 6  5.05405625152515 -1.59793763666367  0.05955817561756
 6 -4.02658403080308  2.55847887408741 -0.71650283928393
 6 -2.53559399749975  2.62121007860786 -0.70589333713371
 6  3.99726369186919 -0.63040354645465 -0.02472198859886
 6  2.63937098569857 -0.66584105560556 -0.05197014961496
 6 -1.91964051425143  3.95983056565657 -0.96124527192719
 6 -1.80206729222922  1.51523426782678 -0.46388240464046
 6  1.83900244524452  0.41123268476848 -0.10147870977098
 6  2.16194951605161 -2.02494528182818  0.24773714161416
 6 -0.43104536343634  1.49711103240324 -0.47058041784178
 6  0.41560639143914  0.33651531933193 -0.17912117291729
 1 -11.09823656515652  1.36151793709371 -0.45499734493449
 1 -12.61443491659166 -1.66112612631263  2.28851674637464
 1 -11.00610828042804 -1.70191938693869  1.64349763236324
 1 -12.12173580718072 -3.18862797009701  0.38370323242324
 1 -10.21243664496450  0.04953662926293  2.77806643054305
 1 -10.64123429002900  1.52712578957896  2.68971369326933
 1 -12.00970856315632  0.63667708670867  3.40569474727473
 1 -13.58709991179118  0.65758176047605 -0.01382491219122
 1 -13.82467823842384  0.50169177657766  1.89503350535053
 1 -12.77587627302730  1.84160778257826  1.28917940124012
 1  12.75615298199820  2.50691564106411  0.16984482768277
 1  12.82407683478348  1.66203024192419  1.96492409360936
 1 -12.51830530913091 -2.14740153665366 -1.96981117181718
 1  13.35968555335534 -0.32596234203420  0.63394373027303
 1 -9.31269363506351 -1.02976783578358  0.29020658065807
 1  13.51184632873287 -0.88673171247125 -1.42706786278628
 1  13.30092651015102  0.51686026392639 -1.90995091889189
 1  9.09365606320632  2.11484153595360  1.56152139953995
 1  10.14102596419642  2.56396899929993  0.35742265776578
 1  10.67997167046705  2.75335030673067  1.82540869186919
 1  11.58266110741074 -0.91225847444745  2.21594801620162
 1  9.78612358295830 -0.31360390139014  2.55968909700970
 1  11.39299019811981  0.65335313211321  3.19631457445745
 1 -10.13244574257426  0.38940885158516 -2.85972336803680
 1 -11.87499655595560  0.95287128562856 -2.99240630593059
 1 -11.49142698779878 -0.97822657395740 -3.26077383498350
 1 -14.39113238653865 -2.37705665826583 -0.28030623442344
 1  8.60359942794279  0.26115634083408  0.72460510671067
 1 -8.71523669256926  1.76780843364336 -0.52929825022502
 1  11.26880261476148 -2.26452794879488 -1.97642049354935
 1  9.89426229262926 -1.06866296799680 -2.22576851085108
 1  11.44758405210521 -1.11547463756376 -3.05694164226423
 1  15.16820600090009  1.01758985878588  0.95965393429343
 1  9.55618539483948 -2.33103618531853 -0.42227867036704
 1 -5.51354581558156 -1.10890804150415  0.05674307110711
 1 -6.85770466856686 -1.16854882808281  1.19479173157316
 1 -7.16859309450945 -1.66425487368737 -0.37550576537654
 1 -6.67105939243924  2.42066086118612 -0.70557375907591
 1  6.71777532653265 -3.97823124572457  1.06631632733273
 1  6.60752809800980 -4.02699788758876 -0.74515410661066
 1  7.81300119751975 -4.11442762736274 -0.06196922962296
 1  6.42170059695970 -0.20299753915392 -0.13909603150315
 1 -4.44027625922592  0.46365603080308 -0.48444450205021
 1  4.83495709920992 -2.54574382738274  0.24020635983598
 1 -4.41958800450045  3.61788977077708 -0.62125178067807
 1  4.26605668186819  0.42748008690869 -0.05102431983198
 1 -1.16045580378038  3.96222766946695 -1.99459773167317
 1 -1.17090992939294  4.16072322962296 -0.17828978877888
 1 -2.70884037213721  4.62891530703070 -1.10887918161816
 1 -2.29571845224522  0.54803142864286 -0.29785451545154
 1  2.23045208730873  1.32284627382738 -0.11863887898790
 1  2.50479900760076 -2.50863726612661  1.09949832833283
 1  1.07247231853185 -1.84542383348335  0.41190990589059
 1  2.21000374977498 -2.65608339553955 -0.73043728672867
 1  0.21048693359336  2.42981282098210 -0.56677366886689
 1  0.01357846184618 -0.52145231503150  0.00848019301930

