%nproc=4
%Mem=4GB
# td=(NStates=1) CAM-B3LYP/6-31G(d,p) 

TD

0 1
 8 -13.99267514271427 -2.09330771247125  0.22787304260426
 8  14.81813365016502  1.05064265086509  0.00930152605261
 6 -11.87330018961896  0.04941101600160  1.25999081908191
 6 -11.05678264076408  0.45856862786279 -0.04217050425043
 6 -11.96430191079108 -1.40060454485449  1.28844668596860
 6 -12.66602999649965 -2.11676274107411  0.11196534743474
 6 -11.62899818871887 -0.31587906620662 -1.22583807370737
 6  11.01052438303830  1.04800644314431  0.93394367406741
 6 -11.08609008220822  0.55439717851785  2.41782883358336
 6 -13.22593875627563  0.73908955585559  1.15334641144114
 6  12.41164834533453  1.71451087758776  0.52282966916692
 6 -12.33412439833983 -1.47618548634863 -1.21194396309631
 6  13.47982960386039  0.56819449204921  0.20336765566557
 6  10.66151562586259  0.02789337913791 -0.08699511441144
 6 -9.57253601750175  0.06679383118312 -0.02135212761276
 6  12.96597457505750 -0.00624784418442 -1.14689027532753
 6  11.47784087288729 -0.43038808410841 -1.06926198499850
 6  10.03908079367937  2.25588490049005  0.92742545594559
 6  11.16194702720272  0.31333050845085  2.30561112241224
 6 -11.26206070357036  0.44344598609861 -2.52935519371937
 6 -8.49034513481348  0.87240222262226 -0.28908253075308
 6  9.30961589088909 -0.50897867366737 -0.00641055725573
 6  11.09187913341334 -1.45760872767277 -2.24353395809581
 6 -7.09579090199020  0.55136237803780 -0.19989207850785
 6  8.81894835123512 -1.80205000250025 -0.11572671367137
 6 -6.74187560906091 -0.89948870577058  0.21379426802680
 6  7.48020650815081 -2.17443031503150  0.08456739443944
 6 -6.08602837883788  1.51557513201320 -0.38135999259926
 6  7.19285247944794 -3.72431615381538  0.18212843104310
 6  6.42173944294429 -1.37896818551855  0.11618927652765
 6 -4.75338931263126  1.44378791799180 -0.38163907730773
 6  4.97145799169917 -1.72035987888789  0.16323854365437
 6 -3.89139051145114  2.49897292349235 -0.66081727072707
 6 -2.46387682578258  2.57957591519152 -0.55740848864886
 6  4.05762972847285 -0.64532503860386  0.01721220482048
 6  2.64304135273527 -0.94562903440344  0.12646769416942
 6 -1.92589113931393  3.92338692129213 -0.93518266566657
 6 -1.67554463996400  1.44348709310931 -0.12285830223022
 6  1.83519206420642  0.13809537103710 -0.03812237413741
 6  2.04235755685569 -2.36381916921692  0.31900426832683
 6 -0.31781404030403  1.39737105840584 -0.16628998879888
 6  0.40591542234223  0.19518118591859  0.05172191139114
 1 -11.29849659115911  1.64291607690769 -0.16454830003000
 1 -12.65334880798080 -1.71333134683468  2.25585348004800
 1 -10.98555622522252 -1.70186938193819  1.48210149274928
 1 -12.19791342494249 -3.20986009330933 -0.03252839073907
 1 -10.14691009230923 -0.12025034943494  2.74402302620262
 1 -10.83585375197520  1.44229730673067  2.39493421532153
 1 -11.77155474777478  0.79824324332433  3.17608178597860
 1 -13.71134233603360  0.30710671297130  0.21381785208521
 1 -13.82647841844184  0.44285589298930  1.87550155215522
 1 -13.11603028842884  1.84347796959696  1.37988847214722
 1  12.31609897659766  2.36242119161916 -0.29396155295530
 1  12.67540196729673  2.17718175707571  1.39735733693369
 1 -12.74383786238624 -1.87638443494349 -2.17018120882088
 1  13.32198178297830 -0.16086583238324  0.83393372927293
 1 -9.32465483118312 -0.99790464946495  0.25274283428343
 1  13.45680082418242 -0.92390542984298 -1.14702985898590
 1  13.00090650815081  0.72172074997500 -1.96238616241624
 1  8.84563126072607  1.92044209600960  1.02022727012701
 1  9.92009387098710  2.69288189058906 -0.02835592009201
 1  10.24243791709171  3.08176314801480  1.55794194519452
 1  11.78355119641964 -0.62445969456946  2.20910733213321
 1  10.07204217481748  0.03333079207921  2.71681480958096
 1  11.64453535263526  1.17098489528953  3.01273621662166
 1 -10.28987148514851  0.80128003870387 -2.61805920162016
 1 -11.95486454275428  1.37644364286429 -2.68710577587759
 1 -11.53846169126913 -0.26832558385839 -3.40894865246525
 1 -14.46028930223022 -2.31248020062006 -0.52396059985999
 1  8.51740080808081  0.18329855505550  0.38968161436144
 1 -8.62534770367037  1.96653830663066 -0.55217053745375
 1  11.36235196969697 -2.46708820482048 -2.18391124262426
 1  10.09328219461946 -1.51545764746475 -2.37242317631763
 1  11.69127842154215 -1.13999708980898 -3.12795874397440
 1  15.14129330963096  1.14364246404640  0.95858382728273
 1  9.50638041434143 -2.73993707540754 -0.02933937643764
 1 -5.61175563656366 -0.98226537723772  0.50002739953995
 1 -7.43692259035904 -1.01084305750575  1.12538479087909
 1 -6.98795503070307 -1.60302875107511 -0.57510572537254
 1 -6.38910119661966  2.69953874897490 -0.57968116981698
 1  6.49526307530753 -4.09452287488749  1.05711540724072
 1  6.75321266646665 -3.85845103290329 -0.82136172737274
 1  8.20998089548955 -4.19804598919892  0.21825879317932
 1  6.57122554945495 -0.46249348874887 -0.42689481138114
 1 -4.24106633823382  0.48120778597860 -0.04579063666367
 1  4.56833043654366 -2.70016926992699  0.46176851605160
 1 -4.72456850255025  3.34446242804280 -1.27094675017502
 1  4.36617669386939  0.28670600950095 -0.26459567696770
 1 -1.19969972817282  3.84525597229723 -1.64623289518952
 1 -1.43496633503350  4.46247340464046 -0.21693365316532
 1 -2.79897938603860  4.61109352485248 -1.08699699339934
 1 -2.31166004640464  0.69743636913691  0.28415368536854
 1  2.33636267836784  1.12564655385539 -0.17357437253725
 1  1.84618314601460 -2.54138054045404  1.55631400990099
 1  0.83946901820182 -2.46264555565557 -0.30676196129613
 1  2.87372012141214 -3.32742052925292 -0.10921516451645
 1  0.22060794569457  2.35513535323532 -0.41252824432443
 1  0.11142824682468 -0.74378454825483  0.45682502750275

