%nproc=4
%Mem=4GB
# td=(NStates=1) CAM-B3LYP/6-31G(d,p) 

TD

0 1
 8 -13.93736961216122 -2.29824820652065  0.60666092139214
 8  14.73954579137914  1.07615520212021  0.33252384828483
 6 -11.68468132773277  0.03684975987599  1.35587040704070
 6 -10.84897185968597  0.28311108210821  0.10834454725473
 6 -11.71461694229423 -1.47282176657666  1.55395323662366
 6 -12.48033142664266 -2.22467353215321  0.40672482338234
 6 -11.44030931983198 -0.53823130143014 -1.09000449034904
 6  11.08186151675167  0.91262290479048  1.18243852355236
 6 -11.08254972817282  0.73796553535354  2.56354340504050
 6 -13.20631679407941  0.67007265416542  1.21343242004200
 6  12.45156233673367  1.47967739423942  0.92750013621362
 6 -12.01131211711171 -1.72081994979498 -0.89895266396640
 6  13.43781540244024  0.44382205480548  0.53716103500350
 6  10.60390986528653 -0.14497390759076  0.16606019111911
 6 -9.38337710161016  0.01382853465347  0.27628763636364
 6  12.98843682128213 -0.30228744814481 -0.76980256655666
 6  11.47309039783978 -0.66722176747675 -0.76543160196020
 6  9.99681656725673  2.01741105310531  1.27102981638164
 6  11.03623445594559  0.11415059045905  2.59020958225823
 6 -11.17756225372537  0.07434907640764 -2.43675593379338
 6 -8.45699179947995  0.92913789618962  0.03657003450345
 6  9.19862479177918 -0.53485126092609  0.12876296009601
 6  11.14113405890589 -1.45866883368337 -1.96773637833783
 6 -7.05933725662566  0.63157039883988 -0.10904299359936
 6  8.70505696209621 -1.72812260976098 -0.04444958595860
 6 -6.55891731323132 -0.80828958585859  0.07822071067107
 6  7.32050053755376 -2.11504437643764 -0.13132419471947
 6 -6.18011778777878  1.71558513301330 -0.33112496909691
 6  6.95970916511651 -3.67264098629863  0.01483170137014
 6  6.28059532853285 -1.19689997869787 -0.30175251765177
 6 -4.79286326002600  1.61447498669867 -0.44845575897590
 6  4.91696254215421 -1.43571141404140 -0.40241802200220
 6 -4.03222459485949  2.71873489968997 -0.71032222122212
 6 -2.63330376847685  2.80939889748975 -0.93152590039004
 6  3.93121708720872 -0.52915342144214 -0.65081459785979
 6  2.55531257985799 -0.76008047954795 -0.55906085868587
 6 -1.93057160736074  4.16974155675568 -1.10174932233223
 6 -1.84606169166917  1.63679642404240 -0.73866988338834
 6  1.69134767976798  0.27867942944294 -0.72319088098810
 6  2.01363468456846 -2.13785657295730 -0.14980261236124
 6 -0.41011327022702  1.57340866216622 -0.81533489328933
 6  0.27058188898890  0.32344401220122 -0.56912017281728
 1 -10.89057579907991  1.25465725102510 -0.16907875307531
 1 -12.12913638673867 -1.65048506220622  2.58115601030103
 1 -10.73444111371137 -1.95665486048605  1.51303458605861
 1 -12.08850248384839 -3.18264737203720  0.62875773787379
 1 -10.06988238953896  0.20926260186019  2.98810743464346
 1 -10.87969813641364  1.74299737673767  2.28144286618662
 1 -11.70563815611561  0.51865528452845  3.63503768156816
 1 -13.49649085088509  0.14271027332733  0.11360783108311
 1 -13.87326309690969  0.41042264966497  1.94566856885689
 1 -13.16615530093009  1.75088871067107  1.07167765106511
 1  12.31211857855786  2.02865781528153  0.11833967716772
 1  12.67628205530553  1.96945098399840  1.93101070227023
 1 -12.32194567316732 -2.42208900540054 -1.73902809350935
 1  13.54506409120912 -0.29361910771077  1.25670600650065
 1 -9.13993635933593 -1.12744760376038  0.46560412041204
 1  13.65256040014001 -1.28709174847485 -0.65129028502850
 1  13.19842626012601  0.36188476637664 -1.82220214401440
 1  8.89970666826683  1.53153320512051  1.35796104350435
 1  10.30245210681068  2.71756435883588  0.31507842334233
 1  10.25108878217822  2.68221319301930  2.18913506450645
 1  11.69991283258326 -0.74576182478248  2.42186860826083
 1  10.14921989258926 -0.15675821682168  3.15434856295630
 1  11.62129302840284  1.00536833363336  3.44756969997000
 1 -10.09525202320232  0.50967087778778 -2.15503289898990
 1 -11.97163621992199  0.78428442694269 -2.71926899219922
 1 -11.02425027012701 -0.60377912921292 -3.21064882248225
 1 -14.19059233253325 -2.56502545514551 -0.09356756055606
 1  8.44435350335034  0.14648487368737  0.32013465966597
 1 -8.71364653355336  1.93516516931693 -0.20254557495750
 1  11.64462019651965 -2.41617311331133 -1.86385923742374
 1  10.11817468386839 -1.51939804150415 -2.24525045904591
 1  11.76162545624562 -1.18903199329933 -2.81320726882688
 1  15.03401258155816  1.71482958275828  1.19604757365737
 1  9.29691946824683 -2.64369745144514  0.00680423792379
 1 -5.58672313331333 -1.01541869256926  0.39815721252125
 1 -6.94101299939994 -1.48427040024002  1.00436268866887
 1 -6.96503273847385 -1.46183463166317 -0.74673288808881
 1 -6.46797908440844  2.68310710581058 -0.67222042374237
 1  6.83192674167417 -3.88011143374337  1.21400109580958
 1  5.88559590479048 -4.08433362116212 -0.51606119731973
 1  7.90088998639864 -4.16847303190319 -0.56521955465547
 1  6.51487991489149 -0.15324256365637 -0.46990911281128
 1 -4.27778000960096  0.65972563776378 -0.16679273687369
 1  4.68980258375838 -2.44494374737474 -0.01423908470847
 1 -4.53906995269527  3.63244122592259 -0.85471512701270
 1  4.21746182238224  0.49620695959596 -0.93835305270527
 1 -1.47868762696270  4.17557900460046 -2.08815708760876
 1 -1.11139397779778  4.09140629792979 -0.35320728052805
 1 -2.67380686878688  5.09546196169617 -0.89322761646165
 1 -2.18357723812381  0.66557318281828 -0.81016574657466
 1  2.18036707880788  1.20702469166917 -1.01221823692369
 1  1.97176570427043 -2.24511091349135  1.22374075257526
 1  0.92149722102210 -2.08813810491049 -0.44650593569357
 1  2.52407515691569 -2.94342212941294 -0.59241348434843
 1 -0.06769088418842  2.59320916061606 -1.19381637313731
 1 -0.27373026902690 -0.52313248304830 -0.16951760676068

