%nproc=4
%Mem=4GB
# td=(NStates=1) CAM-B3LYP/6-31G(d,p) 

TD

0 1
 8 -14.14128000320032 -1.96955533723372  0.65140539583958
 8  14.78503033983398  0.99616720332033 -0.08159756385639
 6 -11.78306116571657  0.07669374427443  1.24256907690769
 6 -11.10745770827083  0.31741451245125 -0.15442172937294
 6 -11.90767624822482 -1.45135962036204  1.32886072737274
 6 -12.77929132263226 -2.12976404120412  0.31337548844884
 6 -11.63862915181518 -0.42279975827583 -1.22963845374537
 6  11.16575990659066  0.93588523102310  1.11991227092709
 6 -10.98363983718372  0.61669340814081  2.41008805950595
 6 -13.14731089348935  0.79468511541154  1.19990106690669
 6  12.59136631713171  1.39254868136814  0.74362174837484
 6 -12.39163014891489 -1.50843871167117 -1.10162293099310
 6  13.47306892779278  0.34624229682968  0.20393771267127
 6  10.69124859915992 -0.01307071727173  0.01490507560756
 6 -9.55156392029203 -0.07060990919092 -0.10348034043404
 6  12.93427140474047 -0.15872309170917 -1.00781636793679
 6  11.50093318211821 -0.48338338363836 -0.98325338413841
 6  10.19435632123212  2.22027133913391  1.18686139953995
 6  11.15990682318232  0.27117629302930  2.48323888518852
 6 -11.46273077057706  0.19918155965597 -2.55197745594559
 6 -8.52641874217422  0.72857784018402 -0.44992861536154
 6  9.27813274257426 -0.49988776457646  0.07370745454545
 6  11.00282022752275 -1.30762372917292 -2.13724332903290
 6 -7.11215253815382  0.46853409520952 -0.28037012631263
 6  8.79215567196720 -1.66184598209821  0.03693855285529
 6 -6.65848727022702 -0.97407616451645  0.15427831643164
 6  7.44144263176318 -2.15475834783478  0.03222215991599
 6 -6.14340411641164  1.45146872137214 -0.37501935853585
 6  7.08484167836784 -3.56837055925593  0.18943916211621
 6  6.38749601860186 -1.24772506120612 -0.14880722312231
 6 -4.74025799949995  1.36279981918192 -0.36685759915992
 6  5.02697354325432 -1.57079492239224 -0.10954873507351
 6 -3.97934930733073  2.56492951915192 -0.57109829882988
 6 -2.53220365846585  2.60551850945094 -0.65971871967197
 6  4.06932089758976 -0.55814632073207 -0.13587310371037
 6  2.65121216981698 -0.89341381288129 -0.03948890149015
 6 -1.98784733493349  4.01637622022202 -0.87052620002000
 6 -1.70516760226023  1.52890563496350 -0.36006202260226
 6  1.81029957495750  0.31135269676968 -0.24248281018102
 6  2.14442776387639 -2.18099088638864  0.22145451335134
 6 -0.31344360326033  1.56309763106311 -0.38238159795980
 6  0.46103093389339  0.42892456025603 -0.19855311611161
 1 -11.34785152665266  1.22216400170017 -0.39315116031603
 1 -12.59189266236624 -1.61772178587859  2.24872276697670
 1 -10.93588125772577 -1.87208640364036  1.48834211681168
 1 -12.80576421002100 -3.28432754005401  0.07549241134113
 1 -9.87277267856786  0.20571224682468  2.40380900480048
 1 -11.04067423402340  1.77438051505150  2.17808253015302
 1 -11.39709730203020  0.25831925092509  3.41742592039204
 1 -13.88961016281628  0.16024202650265  0.57953442374237
 1 -13.50718648924893  0.92434404180418  2.26186018801880
 1 -13.02293097849785  1.89747336913691  0.76721720502050
 1  12.54271163786379  2.13466841634163 -0.07944010081008
 1  13.07555198229823  1.87707174607461  1.51277887908791
 1 -12.96296977557756 -2.14958175467547 -1.93518770947095
 1  13.66910649544955 -0.54081382718272  0.87673800970097
 1 -9.31631399709971 -1.19776463546355  0.24666222622262
 1  13.49846499059906 -0.90240327962796 -1.31926708270827
 1  13.03303972147215  0.73709228712871 -1.68174809860986
 1  9.26012270987099  1.68787883968397  1.44144939233923
 1  10.00914277587759  2.64123672607261  0.13596051155116
 1  10.66061973527353  2.88114308600860  1.84747089808981
 1  12.13540638193819 -0.39429667826783  2.61535795719572
 1  10.30231520212021 -0.29121166216622  2.53795692379238
 1  11.41854275337534  0.83699149594960  3.38846378937894
 1 -10.34918741674167  0.32345225592559 -2.60600799649965
 1 -11.64835389168917  1.38028402690269 -2.55309237453745
 1 -11.85629347444744 -0.26118486978698 -3.56052380998100
 1 -14.54962823612361 -2.62303125572557  0.00153194939494
 1  8.81331039903990  0.52891311651165  0.15631827802780
 1 -8.71334650355036  1.62111376417642 -0.77311263166317
 1  11.61377711221122 -2.18834033003300 -2.23652650415041
 1  10.01638450485049 -1.05625172687269 -2.11849778377838
 1  11.17884717841784 -0.79091218131813 -3.24820076817682
 1  15.12598177847785  1.25181328112811  0.88780674957496
 1  9.39371914821482 -2.61304438613861 -0.01837828032803
 1 -5.61120558155816 -1.25027217791779 -0.28800140334033
 1 -6.60479937803780 -1.07114908810881  1.26961921432143
 1 -7.30349658485849 -1.66330477867787 -0.37495571037104
 1 -6.49864215071507  2.40198899399940 -0.57457065876588
 1  6.50066361536154 -4.03138656125613  0.93418311401140
 1  6.57877522272227 -3.88163335113511 -0.68345793699370
 1  8.12441233863386 -4.12498868346835  0.21373834113411
 1  6.68511693859386 -0.07276451585159 -0.20384250615062
 1 -4.21253348494849  0.59048871407141 -0.06689274687469
 1  4.83274687818782 -2.37999725272527  0.17628996819682
 1 -4.70361640734073  3.45667364916492 -0.94648430393039
 1  4.43769384558456  0.33575091399140 -0.45107432483248
 1 -1.48609836803680  4.14492593929393 -1.90810908280828
 1 -1.27369020742074  4.41696885418542 -0.16701866166617
 1 -2.87632712081208  4.79051146664666 -0.67132542624262
 1 -1.98683756415642  0.48270489598960 -0.05124985498550
 1  2.30363940604060  1.21716570577058 -0.39323633873387
 1  2.69707823552355 -2.69097549995000  1.00861924042404
 1  0.99081415271527 -2.23124241534153  0.57837655255525
 1  1.97995074447445 -2.93037082428243 -0.75161940494049
 1  0.15847173207321  2.51122096179618 -0.81132812431243
 1 -0.19095199119912 -0.52386255605561  0.03412275727573

