%nproc=4
%Mem=4GB
# td=(NStates=1) CAM-B3LYP/6-31G(d,p) 

TD

0 1
 8 -13.98357423262326 -2.08582696439644  0.43450370567057
 8  14.75930776757676  0.84394198079808  0.00135073097310
 6 -11.73724658425843  0.04098017291729  1.31375619561956
 6 -10.95653261576158  0.33386615761576 -0.02121840904090
 6 -11.80246572717272 -1.55928041244124  1.40127796909691
 6 -12.57787118061806 -2.20584164896490  0.24086823772377
 6 -11.56286157505751 -0.38617609590959 -1.27497298719872
 6  11.02355568616862  0.95307695019502  1.01428170787079
 6 -10.89767124032403  0.47642938173817  2.49801685238524
 6 -13.13882004440444  0.67683333023302  1.20605168196820
 6  12.45164234473447  1.51493091959196  0.78927631383138
 6 -12.16681766766677 -1.69752762056206 -1.05430819951995
 6  13.48816043694369  0.39032670527053  0.39206652555256
 6  10.61608108240824 -0.11757116731673  0.00477406250625
 6 -9.49605836973697 -0.00677352555256 -0.04704469686969
 6  12.95493347094709 -0.18412563196320 -0.92809839613961
 6  11.52328541734173 -0.56765181048105 -0.94537959675968
 6  10.18002488808881  2.22044135613561  1.07857057045705
 6  11.02053288578858  0.20535971137114  2.49213977527753
 6 -11.41219571707171  0.17181882338234 -2.61878413661366
 6 -8.43846994729473  0.89163414581458 -0.07616123862386
 6  9.21884681398140 -0.56519429522952 -0.01739165536554
 6  11.19889983548355 -1.52264523132313 -2.03554315901590
 6 -7.07724904780478  0.59668691049105 -0.14988707800780
 6  8.69234569096910 -1.83892368986899 -0.10795593659366
 6 -6.67168859035904 -0.83045180208021  0.08375126372637
 6  7.35910439793979 -2.04831770377038 -0.03819488178818
 6 -6.22068184418442  1.59005257975798 -0.22684454105411
 6  6.90476367056706 -3.54615833803380  0.18556877507751
 6  6.33985125412541 -1.14694498319832 -0.21613395579558
 6 -4.84740871457146  1.51675521472147 -0.34941585498550
 6  4.91767261316132 -1.39965780868087 -0.05838361856186
 6 -4.02732410481048  2.66846987318732 -0.54797598659866
 6 -2.58841928002800  2.65716367396740 -0.69297204500450
 6  3.94333829932993 -0.47230773687369 -0.31156067246725
 6  2.66058310691069 -0.75764023552355 -0.05032998559856
 6 -1.91517006720672  4.04878946154615 -1.02301144854485
 6 -1.73552063756376  1.62373511791179 -0.56724274067407
 6  1.75371391639164  0.33252481398140 -0.36165472737274
 6  2.19062238333833 -2.19849263656366  0.33047541544154
 6 -0.32603486238624  1.59180050135014 -0.46729008880888
 6  0.37129195999600  0.37121878967897 -0.23674693549355
 1 -11.26847358885889  1.43318510381038 -0.11681352655265
 1 -12.47385085818582 -1.66020603430343  2.30232812751275
 1 -10.76597426702670 -2.14337353235324  1.59410269286929
 1 -12.31022465606561 -3.44922402970297  0.25420028212821
 1 -9.94354975627563 -0.02576090049005  2.75522414631463
 1 -10.65554572117212  1.52479555655566  2.24790951285128
 1 -11.65549314161416  0.53489690869087  3.31392557035704
 1 -13.63804500630063  0.40718672097210  0.34990146044604
 1 -13.96275204580458  0.31076268366837  1.93208721072107
 1 -13.16830551595159  1.82292591439144  1.34140462376238
 1  12.39062642934293  2.19698464796480 -0.24715687248725
 1  12.72130655775577  2.35035907480748  1.51861946314631
 1 -12.41138461706171 -2.08281507800780 -2.01855604630463
 1  13.71535111991199 -0.46529627542754  1.27174751065107
 1 -9.22197456315632 -1.09634449344935  0.05105266526653
 1  13.75137028112811 -0.96613965326533 -1.41266642264226
 1  13.02316873437344  0.51332991089109 -1.66066599039904
 1  9.21211790939094  2.13026307810781  1.51646689408941
 1  10.03994585618562  2.59447204960496  0.00856777227723
 1  10.67777145044504  3.08207317901790  1.63643979497950
 1  11.75832867416742 -0.67424467306731  2.49203562496250
 1  10.01423639423942 -0.15313785478548  2.57904103220322
 1  11.30165106420642  0.86757455425543  3.22739768276828
 1 -10.32078457645765  0.48351826252625 -2.63821121682168
 1 -11.79203826012601  1.18870486898690 -2.65871293659366
 1 -11.68285613071307 -0.63181193249325 -3.45869362696270
 1 -14.23428670197020 -2.70272922552255 -0.24252245604560
 1  8.65662473047305  0.19440966616662  0.48255090129013
 1 -8.67448261716172  2.05820747354736 -0.34079940034003
 1  11.16193192769277 -2.77434893089309 -1.65200805230523
 1  10.22798566496650 -1.38877497919792 -2.32893882788279
 1  11.97605689938994 -1.49685277537754 -2.97650359845985
 1  15.29459864016402  0.99369746954695  0.79398736763676
 1  9.22904268056806 -2.88162124382438 -0.35161160366037
 1 -5.68240270127013 -1.11878902960296  0.22173957075708
 1 -7.32670156825683 -1.39315128832883  0.75435768816882
 1 -6.97933416861686 -1.45350379857986 -0.84834304910491
 1 -6.77721000750075  2.64183297839784 -0.35334853655366
 1  6.50459400840084 -3.61625504810481  1.39433912961296
 1  6.06587393259326 -3.87809299709971 -0.38195778697870
 1  7.73342323972397 -4.29586577117712 -0.06687972067207
 1  6.62443086998700 -0.08187542694269 -0.30579270117012
 1 -4.33537576917692  0.53630329552955 -0.28018407600760
 1  4.57536113961396 -2.33870312331233 -0.05399306010601
 1 -4.45781182688269  3.54848283008301 -0.63643329882988
 1  4.26460653685369  0.66464380328033 -0.57244646204620
 1 -1.40790054825483  4.00070151685169 -1.98353662556256
 1 -0.99221205960596  4.12934009130913 -0.27341930173017
 1 -2.72577206530653  4.72938535403540 -0.97974626832683
 1 -2.10176905730573  0.59421604710471 -0.31077580758076
 1  2.16044508660866  1.38350233943394 -0.72768978407841
 1  2.71543007070707 -2.69711611401140  1.37281566006601
 1  1.06580165146515 -2.30268956005601  0.70373908880888
 1  2.56419916931693 -2.69202698989899 -0.69185342834283
 1  0.28084396929693  2.47020686038604 -0.83983097459746
 1 -0.34204710071007 -0.46044621442144 -0.22148280328033

