%nproc=4
%Mem=4GB
# td=(NStates=1) CAM-B3LYP/6-31G(d,p) 

TD

0 1
 8 -14.18706458165816 -1.78433681538154  0.32360261556156
 8  14.70860269706971  1.09810739733973  0.10871146704670
 6 -11.76233909350935  0.10661673657366  1.27369218921892
 6 -10.93332029452945  0.37348011901190 -0.05745203240324
 6 -12.08481396199620 -1.42990747514751  1.45386322762276
 6 -12.75748914241424 -2.01141220602060  0.10881503240324
 6 -11.48568385728573 -0.37231470977098 -1.23430892079208
 6  11.06613994459446  0.97122876537654  1.12685296499650
 6 -11.07571904510451  0.41502324112411  2.59099615031503
 6 -13.00607677007701  1.01439708660866  1.21890296709671
 6  12.35587276777678  1.59250867736774  0.87447483368337
 6 -12.35056604250425 -1.51156902470247 -1.15281805050505
 6  13.27479910081008  0.57284495709571  0.38273559245925
 6  10.67493696799680  0.05039562936294 -0.08729514441444
 6 -9.49384814871487 -0.01800464866487  0.12354236183618
 6  12.96916489408941  0.04953773437344 -0.92462804910491
 6  11.59113220202020 -0.39892493779378 -0.96398145694569
 6  9.92915980158016  2.16516582858286  1.06796951035104
 6  11.05964679717972  0.18196737213721  2.49836039733973
 6 -11.06298079557956  0.19881152265227 -2.51604386258626
 6 -8.40705680598060  0.85666064846485 -0.04824844734473
 6  9.30042497179718 -0.42864063986399 -0.04419433563356
 6  11.26806675217522 -1.40674364116412 -2.08254785948595
 6 -7.08839016191619  0.55644288608861  0.13022093279328
 6  8.80816727312731 -1.75680547804780 -0.13485862686269
 6 -6.74302572407241 -0.90930968786879  0.31221411001100
 6  7.43422190969097 -2.21272414441444 -0.12183324562456
 6 -6.21873164916492  1.52527610211021 -0.15706756335634
 6  7.13185637983798 -3.67888161036104  0.00210042824282
 6  6.41925919491949 -1.29279956865687 -0.15012735513551
 6 -4.73663763746375  1.38609214841484 -0.34914582798280
 6  5.04673551945194 -1.58845668856886  0.00369258905891
 6 -4.04531590399040  2.54306733293329 -0.61277246624662
 6 -2.54480491859186  2.53028098569857 -0.71513426122612
 6  4.01472543804380 -0.72316282238224 -0.17065658205821
 6  2.64879192779278 -0.92524699619962 -0.08294324692469
 6 -1.82437098729873  3.76316089868987 -1.25479462686269
 6 -1.85638272377238  1.37007975237524 -0.52794881128113
 6  1.76689523452345  0.14715627712771 -0.43234179607961
 6  2.15809913101310 -2.26364915221522  0.19615198309831
 6 -0.40505276417642  1.31699302060206 -0.67055041484148
 6  0.40888571937194  0.27125879367937 -0.46503976477648
 1 -10.89157589908991  1.37822960826083 -0.26233807900790
 1 -12.88966243934393 -1.61791180488049  2.31444933963396
 1 -11.21709937953795 -2.05912510751075  1.54225750835083
 1 -12.56171980558056 -3.21744085138514  0.01495635773577
 1 -10.07288268956896 -0.15927425182518  2.88315693959396
 1 -10.68769893649365  1.46550962796280  2.51688641054105
 1 -11.77090468276828  0.51661508050805  3.56293047084709
 1 -13.44224542634263  0.68584458675868  0.22709918021802
 1 -13.77923369396940  0.55581718911891  1.98573257525753
 1 -12.78874756015601  2.03441706350635  1.49644012731273
 1  12.13398076477648  2.48049299879988  0.13332117531753
 1  12.64442886998700  2.13613765266527  1.76737433863386
 1 -12.67913139173917 -1.80996779327933 -2.10074426512651
 1  13.40021960676068 -0.33799354515452  1.03883421932193
 1 -9.26776914261426 -1.05755061406141  0.58547610761076
 1  13.64675982008201 -0.74903794309431 -1.16476163216322
 1  13.17129354685468  0.91600017791779 -1.79491941574157
 1  9.01144784238424  1.57198725052505  1.47207245464546
 1  10.01400326192619  2.46324892729273  0.11751866736674
 1  10.29468314161416  2.84043901560156  1.84255040604060
 1  12.06988983028303 -0.33219046764676  2.39693611501150
 1  10.21960693129313 -0.24331687268727  2.63924705280528
 1  11.44942584168417  0.91575937273727  3.08563350635064
 1 -9.98025052305231  0.18276818751875 -2.66133352905291
 1 -11.35718477477748  1.22155815431543 -2.56771383668367
 1 -11.57618546364636 -0.49175792709271 -3.28743650125012
 1 -14.83969724302430 -2.00848980158016 -0.41081928572857
 1  8.30061912991299  0.18431865706571  0.14045669186919
 1 -8.75215038393839  1.67255890869087 -0.11633695409541
 1  11.70754648914891 -2.40055155115512 -1.98140099159916
 1  10.21880474687469 -1.41552765446545 -2.23311924592459
 1  11.84755404910491 -0.92704579467947 -2.80655660376038
 1  15.01478065836584  1.71156925672567  0.94271224012401
 1  9.53327310361036 -2.57787086878688 -0.27158360086009
 1 -5.67041150215022 -1.08106525722572  0.47677507430743
 1 -7.28056695479548 -1.35702767596760  1.16254850725073
 1 -7.03671990719072 -1.50378882708271 -0.56892510731073
 1 -6.68235052155215  2.52817161226123 -0.20550375207521
 1  6.71125467446745 -3.61486490909091  1.13178287398740
 1  6.43053039823982 -4.00676586438644 -0.54745433663366
 1  8.01681157855786 -4.21755794039404 -0.03653668636864
 1  6.69844827172717 -0.26187342674267 -0.30095221712171
 1 -4.07319955155516  0.41639130433043 -0.22778883648365
 1  4.96382998649865 -2.71426067906791 -0.04673233403340
 1 -4.56116216191619  3.44680266206621 -0.98035769126913
 1  4.31427150335034  0.24766210511051 -0.39505872327233
 1 -1.17237699589959  3.53540498719872 -2.26114438633863
 1 -1.13195603400340  4.22387954525453 -0.54371633143314
 1 -2.46317580568057  4.61730414591459 -1.36647494119412
 1 -2.32730161056106  0.36042266776678 -0.11053578357836
 1  2.32386142824282  1.03820780998100 -0.69428644374438
 1  2.77173570127013 -2.70450685308531  1.05929430793079
 1  0.98862393369337 -2.25517480858086  0.68404711961196
 1  2.38811156055606 -2.67915570277028 -0.80793503650365
 1  0.22710859575958  2.20605044474447 -0.81049804130413
 1 -0.10266316231623 -0.66165633543354 -0.17229788478848

