%nproc=4
%Mem=4GB
# td=(NStates=1) CAM-B3LYP/6-31G(d,p) 

TD

0 1
 8 -14.19397527272727 -1.82118049974997  0.73789404470447
 8  14.78011984878488  1.26129371597160  0.56058665456546
 6 -11.79272213181318  0.22340841574157  1.27281210121012
 6 -11.03658062056206  0.29186195719572 -0.07145343254325
 6 -12.08375385598560 -1.35268975337534  1.56457429872987
 6 -12.70979437293729 -2.12062312711271  0.41710586148615
 6 -11.68523381228123 -0.52046952525253 -1.12152764266427
 6  10.92532586318632  0.94291593409341  1.13510379007901
 6 -11.02164363756376  0.64709644844484  2.48025507620762
 6 -13.13532969536954  1.01608725562556  1.22368344514451
 6  12.30746792729273  1.49402882938294  0.97722510871087
 6 -12.34500548644865 -1.60300816861686 -0.95446821552155
 6  13.46885850675067  0.54793246584658  0.59648696759676
 6  10.62257173147315 -0.10385979617962  0.00797438253825
 6 -9.63257202110211  0.03897104890489 -0.01464145654565
 6  13.16438441604160  0.01633441404140 -0.72821840814081
 6  11.70281337013701 -0.49718476377638 -0.79843490229023
 6  9.97195408100810  2.14135344734473  1.14105681908191
 6  10.90740157265727  0.23896307170717  2.47887844914491
 6 -11.43968846634663 -0.07057541604160 -2.66977923612361
 6 -8.50861696199620  0.79771475387539 -0.15008863136314
 6  9.23399832913291 -0.45228300410041  0.02995307910791
 6  11.44279422492249 -1.49935290209021 -2.03279288398840
 6 -7.05647697059706  0.47447468926893  0.03057096779678
 6  8.83139959635964 -1.74213401090109 -0.31453659465947
 6 -6.55165658715872 -0.85072382928293  0.40017290589059
 6  7.49454794229423 -2.28168104010401 -0.43945500780078
 6 -6.21536131213121  1.59761333583358 -0.29613146974697
 6  7.16975016921692 -3.63835755795580 -0.13990377217722
 6  6.49211648064806 -1.42451273997400 -0.42361470387039
 6 -4.80178415211521  1.45206874607461 -0.31472238563856
 6  5.01950279617962 -1.71721956485649 -0.48787656785679
 6 -3.96085745814581  2.50712373857386 -0.60426161516152
 6 -2.53670410851085  2.54310226782678 -0.76340908870887
 6  4.10684464996500 -0.61326183228323 -0.42399191559156
 6  2.64492154075408 -0.79126359785979 -0.34423937653765
 6 -1.84698324852485  3.88016259885989 -0.98949809720972
 6 -1.77328441394139  1.42536528092809 -0.68848486488649
 6  1.80741928692869  0.30590215171517 -0.40726928882888
 6  2.03981730283028 -2.21993478077808 -0.02924055615562
 6 -0.33370562946295  1.45785710701070 -0.76451981178118
 6  0.43413824462446  0.24462613041304 -0.48326158695870
 1 -11.10888763026303  1.27137892319232 -0.45653749894990
 1 -12.80782425552555 -1.50493050675068  2.42424031873187
 1 -11.02380004960496 -1.81726092109211  1.80514379697970
 1 -12.60095372897290 -3.10600970827083  0.58641350345034
 1 -9.93553895519552  0.19573124872487  2.53602222612261
 1 -10.84568473507351  1.79639271627163  2.20686540844084
 1 -11.50939853215321  0.43923734273427  3.45865004280428
 1 -13.85178638043804  0.71540754305431  0.35596206650665
 1 -13.78945471607161  0.71519312671267  2.10979498149815
 1 -12.80284897029703  2.11870549234923  1.07945842914291
 1  12.01235860256026  2.39312426192619  0.19019686288629
 1  12.53018744584458  2.10413445234523  1.87863546474647
 1 -12.56045952455245 -2.33773056955696 -1.82418660936094
 1  13.36574615941594 -0.29538928472847  1.24171450735073
 1 -9.25901826752675 -1.12454731373137  0.39735729572957
 1  13.64381952605261 -0.80732377167717 -1.08765392139214
 1  13.12333875137514  0.71774035193519 -1.66977690149015
 1  8.93959065666567  2.08477852965297  1.80004525192519
 1  9.90649251085108  2.58616121852185  0.23035995149515
 1  10.67651132443244  2.96948191989199  1.73317946894689
 1  11.85769861116112 -0.35524277287729  2.57427384878488
 1  9.93892886348635 -0.30492303330333  2.52721584968497
 1  10.93876477557756  0.97521531833183  3.32753769676968
 1 -10.49287178517852  0.09005891659166 -2.79221661736174
 1 -11.65135419171917  0.92898889738974 -2.54033109840984
 1 -11.89741758685869 -0.61274002530253 -3.20703846144614
 1 -14.56686996029603 -2.03865281788179 -0.26523472727273
 1  8.84936400440044  0.38626885208521  0.34088673487349
 1 -8.71571674057406  1.90777243004300 -0.57806312671267
 1  11.64189992449245 -2.58403989999000 -1.65744859635964
 1  10.43835670207021 -1.64432053375338 -2.38847478147815
 1  12.21758105180518 -1.49430252035204 -2.84486043414341
 1  15.02874205450545  1.45874397419742  1.57313528242824
 1  9.61717149344935 -2.42025510721072 -0.44760120262026
 1 -5.51803626462646 -0.86349350005001  0.28859625642564
 1 -6.86040493859386 -1.34238621182118  1.41741399379938
 1 -6.89355559075908 -1.66201464966497 -0.20593880868087
 1 -6.79445173167317  2.48216701180118 -0.42035523722372
 1  6.87865141414141 -3.72166558915892  0.76377607330733
 1  6.51370871607161 -3.83108829662966 -0.78420801200120
 1  8.09072897029703 -4.05868205280528 -0.03227626032603
 1  6.69027745464547 -0.37506474587459 -0.61875399729973
 1 -4.24717694929493  0.53183284848485  0.03627757015702
 1  4.65593919741974 -2.78633788678868 -0.42487014781478
 1 -4.27462350805081  3.48883686548655 -0.92686234173417
 1  4.38485856205621  0.45305264416442 -0.57787700510051
 1 -1.42430218841884  3.89190063676368 -2.00294856675668
 1 -1.08470130853085  3.86883404070407 -0.15107706750675
 1 -2.28816830493049  4.80021243674367 -0.84629292299230
 1 -2.21052993339334  0.36842346784678 -0.70598532853285
 1  2.36692573467347  1.18958294749475 -0.57453446854685
 1  2.50586911461146 -2.65393179557956  0.98226660516052
 1  0.99529460076008 -2.33689298039804  0.10421913681368
 1  2.32954570397040 -3.01223901110111 -0.75713995699570
 1  0.25015089999000  2.45217505720572 -0.59041603310331
 1 -0.20703359935994 -0.70697086688669 -0.45564621962196

