%nproc=4
%Mem=4GB
# td=(NStates=1) CAM-B3LYP/6-31G(d,p) 

TD

0 1
 8 -14.19771564676468 -1.88832721442144  0.45531578687869
 8  14.86112794959496  0.76299388598860  0.02727332323232
 6 -11.74244710431043 -0.01595552065207  1.28693351335134
 6 -10.93119008150815  0.26676944794479 -0.12127841504150
 6 -12.04293977457746 -1.50635511991199  1.38383622492249
 6 -12.82711610511051 -2.14201526632663  0.27266141704170
 6 -11.72322761166117 -0.49261673997400 -1.16598208810881
 6  11.28224155475547  0.96186782928293  1.00214049374937
 6 -10.84079555275528  0.41836357515752  2.46730378107811
 6 -13.04317047944794  0.81620726762676  1.31826290309031
 6  12.66679385988599  1.37642706920692  0.74391177737774
 6 -12.38470945684569 -1.56284415221522 -1.09499226792679
 6  13.58673029392939  0.20285795839584  0.27569488838884
 6  10.71982145644565 -0.05552496269627 -0.06453286818682
 6 -9.50432919681968 -0.11251409960996 -0.16993698609861
 6  12.94408238583858 -0.32838005740574 -1.04827041334133
 6  11.49381247004700 -0.62130717601760 -0.93911897069707
 6  10.35713259885989  2.23362267426743  1.08090080348035
 6  11.12861369386939  0.34722389778978  2.43521408270827
 6 -11.37895239273927  0.20759240074007 -2.47628988718872
 6 -8.42362846314631  0.71920690309031 -0.31392501500150
 6  9.25890081938194 -0.39965774157416  0.06790687448745
 6  11.05206515201520 -1.28958192499250 -2.24280388508851
 6 -7.13035435833583  0.38206544834483 -0.26755884518452
 6  8.76468292469247 -1.68895869336934 -0.01402654365437
 6 -6.73443486498650 -1.04185294219422 -0.01705881728173
 6  7.39623811131113 -1.96050892289229 -0.04608567086709
 6 -6.11330110611061  1.43823739823982 -0.52066392299230
 6  7.01877507170717 -3.40661438363836  0.44954517271727
 6  6.38278554755475 -1.07130741944194 -0.08098044044404
 6 -4.73474744844484  1.51029456865687 -0.40948186158616
 6  5.01286213211321 -1.43984182708271  0.07672989278928
 6 -3.93009438183818  2.61972499869987 -0.57091828082808
 6 -2.60150058815882  2.73596155375538 -0.57746049384939
 6  3.95054902040204 -0.54889539563956 -0.33561307770777
 6  2.61440848944894 -0.78690316181618 -0.03600855345535
 6 -1.99797834803480  4.03649823242324 -0.92336148354835
 6 -1.81990907640764  1.57783052745275 -0.33735975237524
 6  1.68480702570257  0.30673223472347 -0.31926048794879
 6  2.15444876597660 -2.14966775407541  0.31209357725773
 6 -0.47896015491549  1.60576189748975 -0.26329968976898
 6  0.37445227602760  0.37492916071607 -0.28095135593559
 1 -11.28538528002800  1.39871165646565 -0.32387423262326
 1 -12.55713918701870 -2.04579459315932  2.44753264796480
 1 -11.06764443404340 -2.22147134213421  1.34744802740274
 1 -12.61322495609561 -3.27012611991199  0.35225008710871
 1 -9.89011441274127 -0.40676900130013  2.61428005190519
 1 -10.45769593619362  1.41472454945495  2.17914263616362
 1 -11.21582917521752  0.23173659265927  3.67149132693269
 1 -13.69640084188419  0.61402740504050  0.27589405970597
 1 -13.55194096469647  0.27931953935394  2.17640164216422
 1 -12.82969165456546  1.75977959975998  1.45965644894489
 1  12.68165553225323  2.41837678717872  0.22855069826983
 1  13.16076050315031  1.83314735363536  1.78932653385339
 1 -13.08499197779778 -1.96751354785479 -2.08775296599660
 1  13.62968255305531 -0.45370511631163  1.08708904480448
 1 -9.09945231093109 -1.20891575057506 -0.10955339533953
 1  13.30278542264226 -1.26235927522752 -1.26978213421342
 1  13.30042646014601  0.31051962986299 -1.86327625142514
 1  9.36989368696870  2.30748079987999  1.45224047144715
 1  10.34510637223722  2.71277387978798  0.16956387188719
 1  10.89035270857086  2.91806677837784  1.73609976097610
 1  11.61651449274927 -0.76787403600360  2.26835325672567
 1  9.90853582418242 -0.12987552855286  2.39013214131413
 1  11.27420831993199  0.92503029982998  3.21040598359836
 1 -10.23200569856986 -0.01553164246425 -2.63571096679668
 1 -11.68110716701670  1.29758575707571 -2.17950501580158
 1 -11.72632047714771 -0.22364111541154 -3.56948470607061
 1 -14.72007528082808 -2.14333328592859 -0.23068127192719
 1  8.54148321632163  0.60486071127113  0.24385703190319
 1 -8.50227539643964  1.91622327512751 -0.48605392579258
 1  11.37463319781978 -2.39348084408441 -2.52568542004200
 1  9.95258812521252 -1.27797389908991 -2.30552648664866
 1  11.44780407410741 -0.67655074517452 -3.01529747784778
 1  15.15970515081508  1.16277437723772  0.78420638953895
 1  9.44582435873587 -2.41289437113711  0.01228478597860
 1 -5.67855231623162 -0.98558570927093 -0.07989059225923
 1 -7.08482738083808 -1.33722569576958  1.00319257165717
 1 -7.32480871607161 -1.47951639983998 -0.83607182198220
 1 -6.58036032253225  2.54975377047705 -0.87976117781778
 1  6.40155370437044 -3.47210063266327  1.38250794649465
 1  6.19920726592659 -3.73581876967697 -0.23378296949695
 1  8.02060195759576 -4.02262844744474  0.42171913921392
 1  6.70777920482048  0.04296705730573 -0.51584370627063
 1 -4.29260149174918  0.58075774097410 -0.22753881148115
 1  4.81566517001700 -2.47377663066307  0.44671701090109
 1 -4.45950199589959  3.50638862066207 -1.04050370587059
 1  4.02997307350735  0.60902824172417 -0.67644686208621
 1 -1.36376613481348  3.84358580528053 -1.87587585948595
 1 -1.27996083448345  4.59082623992399 -0.07851981178118
 1 -2.82931241934193  4.64098651415141 -0.97039533323332
 1 -2.39535841624162  0.70850747624762 -0.17328205820582
 1  2.11440048214821  1.24306829602960 -0.22235925102510
 1  2.85246377407741 -2.52265866826683  1.15767414591459
 1  0.95754082538254 -2.37785707680768  0.77457617251725
 1  2.12526527592759 -2.79878766596660 -0.49669391239124
 1  0.24648053295329  2.49481932163216 -0.30048704020402
 1 -0.22192508850885 -0.47838800860086 -0.15418607360736

