%nproc=4
%Mem=4GB
# td=(NStates=1) CAM-B3LYP/6-31G(d,p) 

TD

0 1
 8 -14.19171504670467 -1.99618800050005  0.68780903620362
 8  14.87874971177118  0.48252583918392  0.42650324622462
 6 -11.70957381698170 -0.16780070517052  1.40411523152315
 6 -10.97219418191819  0.24732750375037  0.09154286708671
 6 -12.00745622622262 -1.62442692709271  1.38291613291329
 6 -12.81402479597960 -2.14073513831383  0.26606075697570
 6 -11.80395568446845 -0.34397187548755 -1.20584607450745
 6  11.23863719431943  1.00913255575558  0.93926420612061
 6 -10.88641011421142  0.26607834663466  2.51610866156616
 6 -12.95543170557056  0.71857750465046  1.48635971277128
 6  12.62588976947695  1.30438986548655  0.85260264646465
 6 -12.40344133003300 -1.49260712851285 -0.97033980268027
 6  13.43213483438344  0.14512218481848  0.43471078997900
 6  10.78130760506051 -0.06154556475648 -0.02583899879988
 6 -9.43500226412641 -0.19061190939094 -0.10733072547255
 6  13.09218719631963 -0.38712593199320 -0.82397798409841
 6  11.63453654245425 -0.62236728202820 -0.91354641344134
 6  10.27463434903490  2.40067937993799  0.77386009940994
 6  10.91227205970597  0.50348952435244  2.37895845714571
 6 -11.55293979147915  0.25666730823082 -2.52568482668267
 6 -8.53986008630863  0.81422640504050 -0.28377199969997
 6  9.39002393169317 -0.32081985778578  0.01358144194419
 6  11.18155810131013 -1.55682864966497 -1.98843844854485
 6 -7.05230655355536  0.49806704850485 -0.43210529982998
 6  8.78800525692569 -1.53752354985499 -0.04357949894990
 6 -6.66929835133513 -0.93945270217022 -0.29276638803880
 6  7.42544103160316 -1.91091396339634 -0.04097515981598
 6 -6.22530230623062  1.55709928442844 -0.51395325192519
 6  7.13581677587759 -3.40838456065607  0.06100631883188
 6  6.40799806880688 -1.04584487318732 -0.26310865326533
 6 -4.81615558925893  1.57446098529853 -0.44267518091809
 6  5.02368321422142 -1.38954679757976 -0.13215099529953
 6 -3.98649002140214  2.63558658485849 -0.62277346634663
 6 -2.57501793989399  2.69662762036204 -0.61323407120712
 6  3.99804376987699 -0.53196370247025 -0.22273178957896
 6  2.58359540814081 -0.64603907540754 -0.12289724232423
 6 -2.05480403060306  4.01790637323732 -0.97565671307131
 6 -1.85900298579858  1.52348509290929 -0.41505752215222
 6  1.70208875387539  0.40140170167017 -0.37164572647265
 6  2.15352867396740 -2.02981576887689  0.35624799269927
 6 -0.47758001690169  1.48660998229823 -0.52403576337634
 6  0.28005283608361  0.41664333213321 -0.27106036683668
 1 -10.78121486298630  1.39441122642264 -0.24746659185919
 1 -12.38035150825082 -1.94440445414541  2.22699059375938
 1 -11.04752242184219 -2.23729292429243  1.12437572017202
 1 -12.76210984458446 -3.27503661096110  0.13501836393639
 1 -9.92158756005601 -0.29102742714271  2.72674129802980
 1 -10.68903907050705  1.37003008000800  2.38439316121612
 1 -11.50142773507351  0.17722114111411  3.44905908370837
 1 -13.65234643644364  0.40118612091209  0.67656412671267
 1 -13.32312808340834  0.46669827722772  2.49277327932793
 1 -12.79941862726272  1.88934255605561  1.75733621692169
 1  12.78313568026803  1.87733268276828 -0.22669482628263
 1  13.17159158625863  1.95818985788579  1.52443004420442
 1 -12.94614809340934 -1.78536533303330 -1.98703289398940
 1  13.36651623642364 -0.53286303210321  1.30620095599560
 1 -9.29613197889789 -1.16130098909891  0.02817037703770
 1  13.54596974107411 -1.31754479377938 -0.76976213221322
 1  13.46665308280828  0.38422700060006 -1.61697162096210
 1  9.30284698229823  2.38134818661866  0.87852309970997
 1  10.46441830343034  2.69959256165617 -0.21992507700770
 1  10.74197787108711  3.15985095679568  1.56847299829983
 1  11.34826766806681 -0.49603685228523  2.57174359575958
 1  9.90637560816081  0.38285574457446  2.55732886098610
 1  11.16919781888189  1.09156695349535  3.17326226922692
 1 -10.59006150415042  0.29283919461946 -2.86029342504250
 1 -12.09233829012901  1.27637363586359 -2.46419348464846
 1 -12.10595844094409 -0.35009376067607 -3.37301505910591
 1 -14.69558283158316 -1.91429038163816 -0.25096330013001
 1  8.79525859385939  0.52586281148115  0.01285393159316
 1 -8.91997716661666  1.87039869266927 -0.42605792619262
 1  11.60246598109811 -2.53391488748875 -1.75578843034303
 1  10.15877874427443 -1.61169727142714 -2.28472440644064
 1  11.75379467316732 -1.31827491759176 -2.91319726782678
 1  15.14397357765777  0.71762986278628  1.42654062296230
 1  9.48616839313931 -2.30841392309231 -0.23460990349035
 1 -5.60941540254025 -0.83124027472747 -0.18975157835784
 1 -6.94060295839584 -1.41780375357536  0.60075232763276
 1 -6.96857309250925 -1.69236768496850 -1.01095931073107
 1 -6.66134842134213  2.51389018411841 -0.63635683738374
 1  6.37445099409941 -3.74785820842084  0.82258195389539
 1  6.83318066326633 -3.96685187298730 -0.98319791099110
 1  8.05170506790679 -3.96508269286929  0.13559052635264
 1  6.60407883478348 -0.04454169356936 -0.51915403730373
 1 -4.37579981158116  0.56479614481448 -0.33056911451145
 1  4.97261086458646 -2.48722797579758 -0.05605326612661
 1 -4.40756680238024  3.60605858765877 -0.69122877837784
 1  4.28148822502250  0.53809114801480 -0.47557677507751
 1 -1.81983174137414  3.88998044474447 -2.07376564846485
 1 -0.91141397979798  4.15901305860586 -0.35626758655866
 1 -2.67634712281228  4.88764117961796 -0.92302059575958
 1 -2.24431331173117  0.55945257075708  0.03932920292029
 1  2.26627566966697  1.14554854405441 -0.83969098419842
 1  2.43173170087009 -2.12273867626763  1.47526590509051
 1  1.18747381868187 -2.27573686478648  0.35820453535354
 1  2.76637938733873 -2.86389417661766 -0.17026126912691
 1  0.02733861876188  2.43202304200420 -0.61301829332933
 1 -0.34486738273827 -0.57982815261526 -0.02606326132613

