%nproc=4
%Mem=4GB
# td=(NStates=1) CAM-B3LYP/6-31G(d,p) 

TD

0 1
 8 -14.29285516071607 -1.86099448114811  0.62305256055606
 8  14.96271810861086  0.91850943754375  0.37692828872887
 6 -11.86440930053005  0.06331240614061  1.53661848184818
 6 -10.98690565306531  0.30634340534053  0.12039575237524
 6 -12.15479095969597 -1.53717820222022  1.53983182448245
 6 -12.89124251775178 -2.10946201100110  0.34352850375038
 6 -11.80523581248125 -0.29353683198320 -1.07016250615062
 6  11.16575990659066  0.93183482598260  1.20604088378838
 6 -10.89446091929193  0.38201994079408  2.68840589128913
 6 -13.17085324772477  1.00556620352035  1.51599267606761
 6  12.60085726622662  1.45641506800680  0.94825221142114
 6 -12.60478146404641 -1.41518938673867 -0.87373014171417
 6  13.55859748064806  0.37129480208021  0.63919123802380
 6  10.78692816711671 -0.09501891209121  0.10194377947795
 6 -9.52408117201720 -0.06459930813081  0.01379138673867
 6  13.08331630923092 -0.30464768416842 -0.59290487678768
 6  11.65309839863986 -0.45436048134813 -0.84566962576258
 6  10.08324521012101  2.16451576357636  1.12445515891589
 6  10.95677651015101  0.13328250365036  2.61012157345735
 6 -11.45553005050505  0.29814145564556 -2.42217447564756
 6 -8.49809590989099  0.79855483788379 -0.23584720722072
 6  9.34137906720672 -0.35008278407841  0.02301238503850
 6  11.35529547504750 -1.27868083488349 -2.04978458315832
 6 -7.11760308320832  0.40069731153115 -0.13102519181918
 6  8.81252770917092 -1.59245904340434 -0.12004714571457
 6 -6.73530495199520 -1.06031478837884  0.01480436903690
 6  7.46854534203420 -2.06154902690269 -0.14404546684668
 6 -6.24863463946395  1.33078665316532 -0.50719257585759
 6  7.27635082928293 -3.55091881408141 -0.15306508830883
 6  6.41855912491249 -1.03893418211821 -0.18587092949295
 6 -4.82461643534353  1.26652019121912 -0.61101201460146
 6  5.04762560846085 -1.32138998189819 -0.17260504070407
 6 -3.98336970937094  2.36231925812581 -0.90448163716372
 6 -2.57708814691469  2.54412236983698 -0.95638838663866
 6  4.03508747424743 -0.44833533963396 -0.32301181758176
 6  2.69840688928893 -0.74243871537154 -0.32636758935894
 6 -2.01860041024102  3.87791237383738 -1.32483163056306
 6 -1.78724581008101  1.42827557195720 -0.67724374077408
 6  1.75237378237824  0.26262782428243 -0.64003256515652
 6  2.14961828292829 -2.06484927222722 -0.08831646374637
 6 -0.39734199309931  1.35986730803080 -0.83506686648665
 6  0.41673650445045  0.23722539033903 -0.65703896469647
 1 -10.92587932943294  1.39880166546655  0.11254940974097
 1 -12.43058653175317 -1.77561757545755  2.55508340304030
 1 -11.09684735433543 -1.85406460146015  1.61419470207021
 1 -12.72876651025102 -3.15046415371537  0.44621948404840
 1 -10.01604700600060 -0.41416974137414  2.65936456035604
 1 -10.27761792839284  1.43643672067207  2.90119484138414
 1 -11.17177476977698  0.23381680068007  3.66390056785679
 1 -13.69188038983898  0.60737673997400  0.66571304160416
 1 -13.91391716231623  0.75374698209821  2.42587658965897
 1 -12.73301198659866  2.04952857465747  1.55641612491249
 1  12.68029539623962  2.21577652715272  0.20603844704470
 1  13.06517094419442  2.08237227612761  1.88307590879088
 1 -13.27725120372037 -1.52455925242524 -1.82947713841384
 1  13.72085166996700 -0.39763950975097  1.66939727562756
 1 -9.23718608430843 -1.12532739173917  0.28002556255626
 1  13.50070521462146 -1.29194223352335 -0.80184534053405
 1  13.47441385888589  0.36689526742674 -1.44131405520552
 1  9.01289798739874  1.81350140194019  1.42892814021402
 1  10.38729059065907  2.95769837223722  0.16052296779678
 1  10.49122279557956  2.81783675537554  2.10488663966397
 1  11.54832767406741 -0.85896314491449  2.78766518791879
 1  9.99475444604460  0.02023948294829  2.74984811291129
 1  11.41489238833883  0.82800059685969  3.30545548854885
 1 -10.36522902090209  0.53897380808081 -2.39205660136014
 1 -12.18025708200820  1.29945594409441 -2.33809087438744
 1 -11.63122096719672 -0.44027277857786 -3.19518727632763
 1 -14.90768404170417 -1.89928888148815 -0.25522372617262
 1  8.73873294129413  0.42492271747175  0.13846649284928
 1 -8.64396956585659  1.77847950075008 -0.21594691509151
 1  11.65386112061206 -2.37205870187019 -1.99353220472047
 1  10.16196906330633 -1.04377047874788 -2.25256119011901
 1  11.85801509520952 -0.77204029412941 -3.02468841694169
 1  15.46061524182418  1.16924502430243  1.21379934883488
 1  9.63893366966697 -2.35790887258726 -0.14201064356436
 1 -5.65352981398140 -1.21264841554155  0.14062145894589
 1 -7.31479037713772 -1.62658463166317  0.73991624402440
 1 -7.12151838703870 -1.49468791699170 -0.72883109790979
 1 -6.59293157965797  2.36685548064807 -0.54660786248625
 1  6.65864941394139 -3.90120354295430  0.63904360006001
 1  6.64702204740474 -3.88355354315431 -1.18536812801280
 1  8.24427432483248 -4.01604778937894 -0.02985601830183
 1  7.08804723162316 -0.05599283868387 -0.20750287218722
 1 -4.22539477107711  0.33026269146915 -0.25654171177118
 1  4.51145474897490 -2.28921817481748 -0.18480614141414
 1 -4.59095514121412  3.29943792559256 -1.26922657815782
 1  4.26118619481948  0.64312165106511 -0.35279449684969
 1 -1.30989074727473  3.77364881158116 -2.19631790369037
 1 -1.46554939333933  4.45350250755076 -0.59043100290029
 1 -2.81926141424142  4.45701811731173 -1.33182147584758
 1 -2.20425930633063  0.51145777127713 -0.77545227522752
 1  2.18092713481348  1.26556054525453 -0.51557857295730
 1  2.71453998169817 -2.46751315371537  0.87415579407941
 1  1.07579265056506 -1.89604889598960  0.33107182208221
 1  2.40574332373237 -2.76238402560256 -0.90473471647165
 1  0.32021790669067  2.26463630333033 -0.76611360286029
 1 -0.06013890989099 -0.80219038883888 -0.51240189518952

