%nproc=4
%Mem=4GB
# td=(NStates=1) CAM-B3LYP/6-31G(d,p) 

TD

0 1
 8 -14.20265614081408 -1.95855423712371  0.54083433873387
 8  14.82884472127213  1.03013059965997 -0.14890429452945
 6 -11.91015387498750  0.15804187908791  1.09235405540554
 6 -11.06318328082808  0.28845161616162 -0.19047533473347
 6 -12.00427590819082 -1.38041252565257  1.46721456275628
 6 -12.73077647114711 -2.11323238803880  0.23349750065006
 6 -11.67009229812981 -0.50258773707371 -1.33701919181918
 6  11.30114344494449  0.88871051355135  1.16986726642664
 6 -11.09721119431943  0.82502424122412  2.26082313301330
 6 -13.25636179857986  0.76456210311031  1.12076315311531
 6  12.64416159665967  1.42683210971097  0.82641002720272
 6 -12.43565455135514 -1.55301316911691 -1.09157192589259
 6  13.51626324722472  0.39632730533053  0.21507882678268
 6  10.73989346364636 -0.01849125932593  0.06581016611661
 6 -9.59946871077108 -0.03497634583458 -0.01465145754575
 6  12.99038701630163 -0.02491971137114 -1.10118570487049
 6  11.48803189198920 -0.47347239253925 -1.00425548434843
 6  10.34961184678468  2.20059937193719  1.17814052745275
 6  11.23878471097110  0.20562973837384  2.40860142144214
 6 -11.23426792429243 -0.01575993449345 -2.69907216541654
 6 -8.53203930423042  0.89611459385939 -0.11859548204820
 6  9.36967189648965 -0.55372314811481  0.26173625742574
 6  11.08727867336734 -1.22497546434643 -2.36624622932293
 6 -7.15664698759876  0.47884512631263 -0.05651774107411
 6  8.92955941234123 -1.77708750625063 -0.07837297829783
 6 -6.83704512601260 -0.95537429432943  0.15225811441144
 6  7.52185067256726 -2.15868874087409 -0.11573263556356
 6 -6.28644842084208  1.53938751325133 -0.27343920052005
 6  7.20682387658766 -3.67358108030803 -0.00284006580658
 6  6.48663593259326 -1.34415470417042 -0.05112745514551
 6 -4.86460043374337  1.44901844104410 -0.34514542794279
 6  5.00099094499450 -1.57146498939894 -0.08833661386139
 6 -4.02826419881988  2.48699172537254 -0.63776496549655
 6 -2.62109254735474  2.55215317291729 -0.59835258305831
 6  4.12441640714071 -0.58498900500050 -0.16312582898290
 6  2.70804785338534 -0.75671014251425  0.04813986138614
 6 -2.00119867006701  3.99800438303830 -0.97167631503150
 6 -1.85844292979298  1.41891463586359 -0.34423043944394
 6  1.79238778377838  0.29152071357136 -0.24966352825283
 6  2.11516483758376 -2.11763455075508  0.41837420532053
 6 -0.32699495839584  1.43593491479148 -0.37986134593459
 6  0.40420525132513  0.33829549734974 -0.07952121292129
 1 -10.92704944644464  1.40190197549755 -0.26417826302630
 1 -12.59982345544554 -1.66414642834283  2.24730262496250
 1 -11.16093376297630 -1.68889808480848  1.51618490109011
 1 -12.47641127472747 -3.28794790209021  0.26452131423142
 1 -10.04539994129413  0.44464614021402  2.46442506640664
 1 -10.71545171177118  1.80373345034503  2.08270299219922
 1 -11.71692928522852  0.95255867486749  3.07796197399740
 1 -13.86460766256626  0.25612161446145  0.28889535983598
 1 -13.92439821042104  0.43131473887389  1.88828283028303
 1 -13.32699138453845  1.92318594039404  1.20441092439244
 1  12.54837220392039  2.18228317781778  0.06472431563156
 1  12.99007343444344  2.23087712661266  1.64006160736074
 1 -12.77830130873087 -2.20013681018102 -1.93225741644164
 1  13.69924950975098 -0.51905165096510  1.01494183008301
 1 -9.25514788048805 -1.13995885488549  0.07935549554955
 1  13.69378452255225 -0.62245528482848 -1.54707986398640
 1  12.96141255875588  0.86934551245124 -1.79842976677668
 1  9.26966366396640  2.18209826162616  1.28419366676668
 1  10.20225208680868  2.86404900730073  0.26168308380838
 1  10.70633430673067  2.69910488218822  2.12781893289329
 1  11.71161400270027 -0.82655990459046  2.30211663306331
 1  10.20175514611461 -0.06945948694869  2.60628375647565
 1  11.52312321142114  0.66737453425343  3.36242118511851
 1 -10.21054355235524  0.41973188388839 -2.55743313901390
 1 -11.81026008230823  1.04881087958796 -2.71879894519452
 1 -11.51479932503250 -0.79648840014001 -3.53534129172917
 1 -14.52235550885088 -2.27399635223522 -0.35335353915392
 1  8.66699576757676  0.27568779397940  0.71668431463146
 1 -8.99521469036904  1.86049770257026 -0.29004432483248
 1  11.37728346284628 -2.33371486748675 -2.30158300980098
 1  9.93723659005901 -1.17231333303330 -2.33175910991099
 1  11.59143843754375 -0.85549863996400 -3.25480142824282
 1  15.18403758405841  1.32139023882388  0.79656762566257
 1  9.58827860416042 -2.48444152585258 -0.44413085558556
 1 -5.89245370637064 -0.98135528622862  0.36430382718272
 1 -7.44834373247325 -1.35964793799380  1.08056030843084
 1 -6.86845308050805 -1.63314176237624 -0.74893310811081
 1 -6.73924621112111  2.42055085018502 -0.43840704240424
 1  6.85587913691369 -3.96888031063106  1.05835553125313
 1  6.33026037123712 -3.95884107190719 -0.71473106430643
 1  7.98344824222422 -4.19839602420242 -0.13616664936494
 1  6.92751117801780 -0.25060229962996 -0.20516263816382
 1 -4.47263949554955  0.38596826202620 -0.04372042964296
 1  4.67965156865687 -2.51680093309331  0.16038837803780
 1 -4.49623566926693  3.38633661546155 -0.69282893839384
 1  4.54677475367537  0.31857919681968 -0.31512072947295
 1 -1.29127888608861  3.86536798349835 -1.70071834373437
 1 -1.68959179757976  4.52498965626563 -0.04616657645765
 1 -2.89847933603360  4.66967938343834 -1.19227752145215
 1 -2.19865874627463  0.52977960346035 -0.17062179217922
 1  2.48004704680468  1.15622961216122 -0.46895391049105
 1  2.40284881258126 -2.43621002340234  1.49831821032103
 1  1.01430650195020 -2.18724801590159  0.66834554945495
 1  2.32737548694869 -2.88086587378738 -0.36898114111411
 1 -0.02703681878188  2.26127596729673 -0.38262525402540
 1  0.00053715771577 -0.76600677047705  0.19908925392539

