%nproc=4
%Mem=4GB
# td=(NStates=1) CAM-B3LYP/6-31G(d,p) 

TD

0 1
 8 -14.11284715991599 -1.93840222192219  0.33138339363936
 8  14.83826566336634  0.76316390299030 -0.17141654575458
 6 -11.71046390599060 -0.02293621872187  1.18969378937894
 6 -10.94437139963996  0.27008977997800 -0.20975726292629
 6 -12.02736821742174 -1.51102558695870  1.21687952925293
 6 -12.69402279577958 -2.13450451525153  0.10558470937094
 6 -11.59231452035204 -0.42122960126013 -1.41545703560356
 6  11.14932826342634  1.09334097659766  0.85182546224622
 6 -10.94959643284328  0.50072181098110  2.28613566426643
 6 -13.09367552995299  0.73031867876788  1.02085316211621
 6  12.62060924142414  1.49235866236624  0.54228161436144
 6 -12.39180016591659 -1.44898276607661 -1.25823859255926
 6  13.47298891979198  0.36040371297130  0.20686800570057
 6  10.67351682598260 -0.04131354155416 -0.03035945084508
 6 -9.55682444634463 -0.06409925812581 -0.14646463886389
 6  12.94708268586859 -0.27797501690169 -1.05989157545755
 6  11.50284337313731 -0.65362040734073 -0.93817887668767
 6  10.28630551615162  2.38128744074407  0.76459917331733
 6  11.06261709420942  0.50982015741574  2.38679924122412
 6 -11.18082257975798  0.13828547004700 -2.74305656385639
 6 -8.55153125342534  0.80322530493049 -0.04278790129013
 6  9.27046197549755 -0.34480225602560 -0.00746066226623
 6  11.10417036253625 -1.67930089688969 -2.04887449214922
 6 -7.08647997089709  0.49294653645365  0.07845575627563
 6  8.74595105150515 -1.62071186868687 -0.07904304530453
 6 -6.58173959545955 -0.89767852475248  0.22899578817882
 6  7.44278276577658 -2.09180205220522  0.07162610031003
 6 -6.22756253225323  1.53826740124012  0.03158130153015
 6  7.13248644284428 -3.58317203940394  0.15469568776878
 6  6.32154942394239 -1.25478576727673 -0.15958830123012
 6 -4.73327730143014  1.47637117631763 -0.13688460186019
 6  4.99382022792279 -1.54944278717872  0.10302252205221
 6 -4.01353272567257  2.62147517371737 -0.31641283028303
 6 -2.57234767286729  2.68460641824182 -0.41019376717672
 6  3.95147911341134 -0.64789529562956 -0.14033354975498
 6  2.56982403100310 -0.79846431793179  0.09826487388739
 6 -1.94690324052405  4.01071565416542 -0.70592974037404
 6 -1.86979406490649  1.57753049744974 -0.22442845924592
 6  1.76809535453545  0.24946650815082 -0.15777433933393
 6  2.00720404150415 -2.16649943724372  0.45895826372637
 6 -0.45386764566457  1.50978229952995 -0.30050341014101
 6  0.32029686048605  0.40904257205721 -0.15813907470747
 1 -10.88774551605160  1.35665745104510 -0.33896574177418
 1 -12.52397587068707 -1.64512452615262  2.15205310001000
 1 -11.02429009860986 -1.94718391339134  1.35424870747075
 1 -12.49411304490449 -3.14115322262226  0.10197505960596
 1 -9.94651005230523 -0.09250757515752  2.53628225212521
 1 -10.72492265886589  1.65997907490749  1.92574729662966
 1 -11.48548614091409  0.54794821382138  3.20966514431443
 1 -13.67333853565357  0.29444544684468  0.14156062636264
 1 -13.71223699429943  0.57527913531353  1.88758276027603
 1 -12.76520520592059  1.67411103290329  1.02208269156916
 1  12.80881824852485  2.26245119461946 -0.16662881968197
 1  13.10736516361636  1.98945298419842  1.46173377457746
 1 -12.85380885948595 -2.11893869036904 -1.97423161386139
 1  13.17950753555356 -0.36573631943194  0.93629396529653
 1 -9.30049241494149 -1.12199705870587  0.05445300530053
 1  13.56666181028103 -1.24030707000700 -1.22653780978098
 1  13.26962337983798  0.18535711361136 -2.02834275807581
 1  9.31504820242024  2.15049510131013  1.29385463286329
 1  10.18703056465647  2.62526512891289 -0.32706579107911
 1  10.76406007930793  3.27093206490649  1.40726687768777
 1  11.90056289758976 -0.28956620522052  2.67410383178318
 1  9.92023699429943  0.10485794479448  2.58205133323332
 1  11.28359925902590  1.43340113691369  2.92024696769677
 1 -10.11379387738774 -0.07266735603560 -2.94455185088509
 1 -11.45909496579658  1.16748274677468 -3.04164122942294
 1 -11.85506335143514 -0.51148990029003 -3.50757851545155
 1 -14.67852112541254 -2.61592054465446 -0.35177338113811
 1  8.51522059005901  0.44906513171317  0.15756840304030
 1 -8.76005117401740  1.87407906070607 -0.05757107750775
 1  11.29735547004701 -2.65328682468247 -1.63814666616662
 1  10.17003987038704 -1.45293139483948 -2.43082901690169
 1  11.55931522522252 -1.31127421752175 -2.92444839293929
 1  15.35151433173317  0.98283638343834  0.64861283018302
 1  9.49071884818482 -2.53888697039704 -0.21478792129213
 1 -5.53676813781378 -0.92444959565957  0.46373377017702
 1 -7.37522642074207 -1.66466844004400  0.85245749814982
 1 -6.56251248644864 -1.59000744894489 -0.77249546434643
 1 -6.72163444994499  2.67194598969897 -0.25704890659066
 1  6.50018356735673 -3.52919634223422  1.08658835453545
 1  6.60059740494049 -3.94169935773577 -0.87559715091509
 1  8.11142103950395 -4.18840502510251  0.32809977727773
 1  6.53612203910391 -0.13306054545454 -0.50408253015302
 1 -4.23922615421542  0.63254291949195  0.28539248164816
 1  4.85865946944695 -2.47716696969697  0.34319665886589
 1 -4.66539258495850  3.46077405920592 -0.54180383588359
 1  4.25387546374637  0.27958529742974 -0.53125234263426
 1 -1.69735949414942  4.09877132383238 -1.89493776567657
 1 -1.14298713711371  4.28536569386939 -0.06678863866387
 1 -2.77081656975698  4.84781719721972 -0.48786708040804
 1 -2.21323020342034  0.64177080258026 -0.10690542054205
 1  2.52171121322132  0.96877086628663 -0.45528254335434
 1  2.22758128582858 -2.42895929832983  1.59352773127313
 1  0.94796986828683 -2.00039933103310  0.29102781768177
 1  2.52539528892889 -3.07994578177818 -0.12135637863786
 1  0.22201808670867  2.31589142884288 -0.67510450195020
 1 -0.23200609660966 -0.51720188998900  0.14619396439644

