%nproc=4
%Mem=4GB
# td=(NStates=1) CAM-B3LYP/6-31G(d,p) 

TD

0 1
 8 -14.12948882408241 -2.06592497419742  0.53204345964596
 8  14.77284912171217  0.79809739633963  0.17439803570357
 6 -11.66623948354836 -0.06782070717072  1.26584140414041
 6 -10.88966592909291  0.13093586458646 -0.06727301450145
 6 -11.90713619421942 -1.56827131153115  1.42442028332833
 6 -12.72280567406741 -2.19303036783678  0.20684483538354
 6 -11.56898218711871 -0.54133161146115 -1.25433092299230
 6  11.18067139773977  0.99670131263126  0.99222950265026
 6 -10.90401187438744  0.44451619041904  2.44466151685168
 6 -12.96619278167817  0.64414006090609  1.27158823562356
 6  12.55508268876888  1.41046047254725  0.67844523072307
 6 -12.25105609150915 -1.67243511131113 -1.06564933363336
 6  13.45075669656966  0.32262993559356  0.43127044594459
 6  10.74921439573957 -0.13130254045405 -0.00504691959196
 6 -9.45383414731473 -0.10506335453545 -0.04648464086409
 6  12.98873685128513 -0.38892611201120 -0.88967455375538
 6  11.51360444924492 -0.67633267856786 -0.99812487128713
 6  10.29115600120012  2.14704401640164  1.06321903530353
 6  11.04196502900290  0.35220439583958  2.47920848214821
 6 -11.37948244574457 -0.01727008550855 -2.63812607080708
 6 -8.47046314661466  0.89898488088809 -0.11409503200320
 6  9.35718064736474 -0.49221699749975  0.11999208300830
 6  11.06252619811981 -1.58424139093909 -2.07363696839684
 6 -7.09125044794479  0.59074631643164 -0.03572566186619
 6  8.72256871327133 -1.68712851035103 -0.04724986598660
 6 -6.59493091459146 -0.86146490339034  0.23758664726473
 6  7.34274276177618 -2.05922879487949  0.04385332303230
 6 -6.11553132913291  1.58295186968697 -0.25642749934994
 6  6.93599679387939 -3.53156687888789  0.09146936513651
 6  6.28580584958496 -1.14849513821382 -0.09196153855386
 6 -4.73790776447645  1.66316985618562 -0.31983289668967
 6  4.91915276117612 -1.46122396529653 -0.02535031523152
 6 -4.05793716611661  2.76131915811581 -0.47647883688369
 6 -2.55998643674367  2.86437439503950 -0.69180192799280
 6  3.93699766526653 -0.52379288538854 -0.36721623802380
 6  2.53746079467947 -0.68546301780178 -0.21081603420342
 6 -1.86530508070807  4.16926150875087 -0.99835898329833
 6 -1.77703478897890  1.66921966636664 -0.53853987038704
 6  1.73186173117312  0.40384194569457 -0.37417597949795
 6  1.91317463856386 -2.07854064136414  0.04057642554255
 6 -0.37782004090409  1.64386570787079 -0.60229358915892
 6  0.37948277907791  0.45882755055506 -0.35748900970097
 1 -11.11163790529053  1.21581336663666 -0.36540838603860
 1 -12.38221169426943 -1.82075208890889  2.41331922662266
 1 -11.02134980458046 -1.90814000900090  1.45284856745675
 1 -12.55218885248525 -3.30590969826983  0.39061392349235
 1 -10.06681208250825 -0.13939226362636  2.49491811571157
 1 -10.60002016861686  1.50367344434443  2.44780950285028
 1 -11.41619921222122  0.38202162116212  3.32824700250025
 1 -13.73724492629263  0.46801280358036  0.55073154345435
 1 -13.70023579417942  0.26669827722772  2.10312431443144
 1 -12.98564725012501  1.72683630543054  1.00791127442744
 1  12.69017638433843  2.17880282978298 -0.09491164796480
 1  12.89263369046905  2.04182822172217  1.49933753495350
 1 -12.76825030363036 -2.04234103060306 -1.95163935463546
 1  13.46108569336934 -0.44582432823282  1.18158849474948
 1 -9.07302966866687 -1.08214307330733  0.25493305330533
 1  13.43990913501350 -1.46111915121512 -0.97147230323032
 1  13.23692010951095  0.29519809770977 -1.72518244204420
 1  9.24215091269127  1.97396744854485  1.39820506790679
 1  9.99450131173117  2.64428703110311  0.06416333183318
 1  10.63909758305831  2.77971294299430  1.85458160916092
 1  11.75553839513952 -0.44725197379738  2.54778119951995
 1  10.03265823642364 -0.15773831483148  2.70271339943994
 1  11.25786668576858  1.20706850365037  3.07547249024902
 1 -10.29854235223522 -0.15931602090209 -3.10711810751075
 1 -11.64804386068607  1.08036403490349 -2.66024308960896
 1 -12.03083092819282 -0.42228097939794 -3.46926468406841
 1 -14.48596186948695 -2.53051200380038 -0.20536874067407
 1  8.71517058505851  0.37720794599460  0.34560720692069
 1 -8.93470863976398  1.89261091389139 -0.33805912631263
 1  11.18816455095510 -2.62867436343634 -1.95005785728573
 1  9.97073994039404 -1.38277437913791 -2.09753568756876
 1  11.52564185788579 -1.31504459455946 -2.90819676777678
 1  14.86939611991199  1.39154725452545  0.99321729062906
 1  9.44057383368337 -2.56323940564056 -0.29517596009601
 1 -5.56312077307731 -0.89784693539354  0.46492388918892
 1 -7.15845474357436 -1.08838081128113  1.17114936733673
 1 -6.81460769596960 -1.37821626982698 -0.57044525932593
 1 -6.73150543704370  2.52241103620362 -0.55824902660266
 1  6.65181873087309 -3.67236065866587  1.23380307600760
 1  6.02865021022102 -3.93670885868587 -0.70689028022802
 1  7.87525742314231 -4.08198438303830 -0.01713474617462
 1  6.32384081098110 -0.13333057245725 -0.25596771867187
 1 -4.27751998359836  0.65756542174217 -0.31514757235724
 1  4.61015461896190 -2.58453770677068  0.20334267346735
 1 -4.53060910661066  3.75016299809981 -0.59604926042604
 1  4.47109718591859  0.44794213311331 -0.45484470187019
 1 -1.14135389358936  4.12433388008801 -1.78050632253225
 1 -1.30848368676868  4.47799495679568 -0.00116207600760
 1 -2.71320080818082  4.87324974047405 -1.20552884658466
 1 -2.16672555295530  0.73364999049905 -0.29984471447145
 1  2.33579262136214  1.32761675087509 -0.53557057215722
 1  2.46175470317032 -2.49917632003200  1.02584096259626
 1  0.98465353665367 -1.83390268136814  0.36307502240224
 1  1.84779752915292 -2.83488127532753 -0.84868911191119
 1  0.33905979087909  2.43757359705971 -0.98233522502250
 1 -0.18086098209821 -0.44677484728473 -0.30893154815482

