%nproc=4
%Mem=4GB
# td=(NStates=1) CAM-B3LYP/6-31G(d,p) 

TD

0 1
 8 -14.09965584078408 -1.96635501720172  0.49350960626063
 8  14.74285612241224  1.01305889248925  0.16862745864586
 6 -11.79136199579958  0.09386546144614  1.34578939893989
 6 -11.05528249074908  0.32875564656466  0.06025973877388
 6 -12.05494097469747 -1.35627011141114  1.46032387368737
 6 -12.76189958345835 -2.09805086988699  0.24747889878988
 6 -11.63149843874387 -0.36239371767177 -1.25983147304730
 6  11.03227655825583  1.02708435093509  1.10667094679468
 6 -10.90786225942594  0.51722346114611  2.54106115681568
 6 -13.09253541594159  0.88574422132213  1.26717779457946
 6  12.50821800230023  1.55962538903890  0.91538892509251
 6 -12.39898088398840 -1.39594746254625 -1.00271304000400
 6  13.49557117801780  0.48482615521552  0.38281560046005
 6  10.68038751305131 -0.07421683188319  0.06620020512051
 6 -9.54827359125913 -0.04861770997100  0.01182118971897
 6  13.02811078867887 -0.02801002040204 -0.84897048334833
 6  11.59579266806681 -0.48308335363536 -0.87198225702570
 6  10.10996788238824  2.17242655465547  1.11699441284128
 6  11.00837166966697  0.20553972937294  2.38495905720572
 6 -11.22869736723672  0.11755339683968 -2.54975723392339
 6 -8.53436953725373  0.87577255965597 -0.07875149764977
 6  9.28827375667567 -0.50498827462746  0.00272035583558
 6  11.22821276677668 -1.24440740754075 -2.04257386208621
 6 -7.14836615951595  0.42072931473147 -0.15438752805281
 6  8.77631408780878 -1.80655045254525 -0.15943108410841
 6 -6.71104252575258 -0.96644540144014  0.15473836243624
 6  7.43865235273527 -2.29041191319132 -0.09038010031003
 6 -6.22603237923792  1.43164673917392 -0.22917477407741
 6  7.23764695889589 -3.69403312551255  0.17240745894589
 6  6.40885815481548 -1.32701298999900 -0.20008235063506
 6 -4.80450442414242  1.32430596979698 -0.43606451985199
 6  5.10748159405941 -1.58187603050305 -0.13790157035704
 6 -4.08027940034003  2.48960198639864 -0.55187637663766
 6 -2.63217365546555  2.61259921752175 -0.75515826362636
 6  4.14753871937194 -0.63329383548355 -0.28838835523552
 6  2.65500254885489 -0.81520599209921 -0.24196914951495
 6 -1.99440799099910  3.98104268686869 -1.15496464386439
 6 -1.79034612011201  1.47942068646865 -0.49739575597560
 6  1.81669021402140  0.33512507400740 -0.57234579647965
 6  2.06993031413141 -2.21283407070707  0.02798516641664
 6 -0.40027228612861  1.52742406370637 -0.68195155495550
 6  0.40246507730773  0.35354702250225 -0.35398865966597
 1 -11.29374611611161  1.36897868316832 -0.28145999119912
 1 -12.67910138323832 -1.66935694939494  2.43283117781778
 1 -11.23042071167117 -2.09766896189619  1.96930021262126
 1 -12.28958259185919 -3.17152625992599  0.04415927802780
 1 -10.02252765406541 -0.03495181958196  2.95909453335334
 1 -10.69137930453045  1.61592466946695  2.29374409630963
 1 -11.53558115041504  0.80822424142414  3.48918309610961
 1 -13.62532373417342  0.73065906820682  0.20332680298030
 1 -13.75065083568357  0.56915852325232  2.07606160816082
 1 -12.85363404880488  1.93828745054505  1.45756623992399
 1  12.55779314601460  2.26787173667367  0.07576541974197
 1  12.76002042914291  2.17191123002300  1.81899950115011
 1 -12.88652213081308 -1.77002379887989 -1.82396658735874
 1  13.46029561436144 -0.45025477127713  1.07069740564056
 1 -9.13382574827483 -1.06296115511551  0.19403696369637
 1  13.60830597469747 -0.98085112441244 -1.02869802580258
 1  13.46028244574457  0.64246282418242 -1.71360128392839
 1  9.00865756335634  1.99765981778178  1.61368661606161
 1  10.13316517811781  2.62190479287929  0.14019093459346
 1  10.40312398569857  2.98889386108611  1.88765491649165
 1  11.52497533883388 -0.74591183978398  2.47618403980398
 1  9.85056002660266 -0.07182972397240  2.72954608270827
 1  11.38524942404240  0.62542033883388  3.40344528752875
 1 -10.08938143614361 -0.02795288458846 -2.77423481918192
 1 -11.35490454675468  1.26776277477748 -2.67621468676868
 1 -11.67921576667667 -0.52732148344834 -3.19174693229323
 1 -14.64992826612661 -2.51637058965897 -0.15622382618262
 1  8.48284735273527  0.11999222442244  0.38489113531353
 1 -8.67503267216722  1.95743739653965 -0.40963628402840
 1  11.48321405590559 -2.30439193519352 -2.14313716521652
 1  10.09209207560756 -1.30515661736174 -2.14791072507251
 1  11.87374666836684 -0.91839492959296 -2.98880482858286
 1  15.05723490379038  1.20255835563556  1.08258622752275
 1  9.53783355965597 -2.46802988468847 -0.16470291279128
 1 -5.57614207520752 -0.95959311001100  0.23963135993599
 1 -6.93571246934693 -1.29634160736074  1.24071632403240
 1 -7.09120535573557 -1.68103655185519 -0.52222043684368
 1 -6.59692197869787  2.54913370847085 -0.37507070877088
 1  7.20073362236224 -3.75972939553955  1.38551824752475
 1  6.17463480868087 -4.13020820862086 -0.20836042724272
 1  7.98580847824782 -4.14177036163616 -0.48145117781778
 1  6.67335576247625 -0.33776101550155 -0.40544266616662
 1 -4.26907913951395  0.21919158435844 -0.56492254985499
 1  4.62574617811781 -2.64769402240224  0.24436677587759
 1 -4.66553259895990  3.52655063686369 -0.78455811131113
 1  4.56946702290229  0.51878921782178 -0.54109332673267
 1 -1.49967972617262  4.08367981468147 -2.15120339223922
 1 -1.30189302770277  4.16569372667267 -0.40182214201420
 1 -2.63202269036904  4.81757417291729 -1.17911620532053
 1 -2.30274915531553  0.62455908140814 -0.02370710071007
 1  2.36750579267927  1.26846083528353 -0.72766978207821
 1  2.57564609230923 -2.56207260966097  0.93343172167217
 1  1.12286735803580 -2.05701499259926  0.04848356325633
 1  2.33426617601760 -2.91185897309731 -0.74037828082808
 1  0.12552843774377  2.44253409310931 -1.17862485398540
 1  0.03829093309331 -0.67009717951795 -0.13136379137914

