%nproc=4
%Mem=4GB
# td=(NStates=1) CAM-B3LYP/6-31G(d,p) 

TD

0 1
 8 -14.13522939813981 -1.92489087078708  0.41328158345835
 8  14.80554239103910  0.76286387298730  0.35672626852685
 6 -11.88374123372337  0.12591866676668  1.38564338433843
 6 -11.01417838033803  0.35511828282828  0.09850356315632
 6 -12.03084856545654 -1.49533401780178  1.47215505680568
 6 -12.74470786428643 -2.14886595139514  0.27455160606061
 6 -11.61170645954595 -0.41230870917092 -1.08395388528853
 6  11.14282761336134  1.06947859035904  1.10815109480948
 6 -11.06347782098210  0.51584332313231  2.62738978967897
 6 -13.23280944334434  0.90600624752475  1.29619069586959
 6  12.54991217171717  1.44804423092309  0.91821920812081
 6 -12.32673365926593 -1.52203007080708 -0.99020178887889
 6  13.50106172707271  0.35304297689769  0.56348366726673
 6  10.67656713101310  0.06894748454845 -0.00238665356536
 6 -9.49840860476048 -0.02160500870087  0.13738374597460
 6  13.14579255685569 -0.26023324272427 -0.72274786108611
 6  11.64577766656666 -0.39221426672667 -0.90838589738974
 6  10.23743062866287  2.29035834783478  0.97388010141014
 6  10.97538837133713  0.41158033343334  2.51911247254725
 6 -11.33293779127913  0.20518215971597 -2.41536379457946
 6 -8.55857195749575  0.79450443284328 -0.15345896839684
 6  9.24985991529153 -0.28436621242124  0.02397248104810
 6  11.28292823832383 -1.49519248604860 -1.93852345704570
 6 -7.09997132003200  0.47697493929393 -0.13687577687769
 6  8.89046550295030 -1.65403520102010 -0.07751289228923
 6 -6.71287270877088 -0.91919067596760  0.25959884848485
 6  7.44704319181918 -2.06512938493849 -0.17017808010801
 6 -6.27348712471247  1.49209278377838 -0.32215407200720
 6  7.22794598879888 -3.52042576477648  0.10563078127813
 6  6.37033430243024 -1.20830111881188 -0.31527386978698
 6 -4.85053902760276  1.43563710291029 -0.34221513491349
 6  4.99711055695570 -1.53812165506551 -0.16496427662766
 6 -4.01876324872487  2.52903592979298 -0.73732492149215
 6 -2.60793123122312  2.61082904050405 -0.81223397119712
 6  3.99083304880488 -0.63748425452545 -0.54688420482048
 6  2.59911696029603 -0.86997146864686 -0.39509446204620
 6 -1.92843139333933  3.98136271887189 -0.86986613401340
 6 -1.82144923042304  1.48685142954295 -0.72026804320432
 6  1.74453299829983  0.27625918741874 -0.52322088398840
 6  2.21800512161216 -2.39105189248925 -0.16230386248625
 6 -0.32845510441044  1.31748306960696 -0.71133449324933
 6  0.38712354315432  0.22178384618462 -0.53105636643664
 1 -11.20650739223922  1.48061984728473 -0.19431127632763
 1 -12.79851332443244 -1.57707772147215  2.29031692639264
 1 -11.03412108170817 -1.89994918991899  1.73367665026503
 1 -12.64220785438544 -3.34563367066707  0.26920178227823
 1 -10.14399980128013 -0.17542586698670  2.65778440234023
 1 -10.75319548614861  1.62075515251525  2.65417013891389
 1 -11.46856444874487  0.29214263326333  3.54978915671567
 1 -13.81355255705570  0.34103010531053  0.62304877517752
 1 -13.73332910351035  0.76860846824682  2.22433643564356
 1 -13.24378306370637  1.95308893069307  1.33710419371937
 1  12.77699506620662  2.37407235673567  0.13749159235924
 1  12.83846827392739  1.92632667156716  1.90507810901090
 1 -12.57237071567157 -1.81931872837284 -1.85111930263026
 1  13.62930251505151 -0.25637538333833  1.33124346024602
 1 -9.22818518421842 -1.14393925292529  0.27026458645865
 1  13.59647479157916 -1.22057509680968 -0.88028318431843
 1  13.65102151965197  0.43718229612961 -1.65045496929693
 1  9.23641033863386  2.22244229602960  1.41471671907191
 1  10.22241410301030  2.60515311771177 -0.22327541204120
 1  10.54183785708571  3.04180915261526  1.64877102810281
 1  11.62254509580958 -0.24187143574357  2.62264868626863
 1  10.07738270887089  0.01652911191119  2.78441156925693
 1  11.12146304540454  1.29138693549355  3.32536747974798
 1 -10.24948744674468  0.47896780748075 -2.60458785448545
 1 -12.03541259755976  1.10657665616562 -2.63678074337434
 1 -11.59201704680468 -0.49136788808881 -3.16418417601760
 1 -14.63011628492849 -2.10935988858886 -0.37994619841984
 1  8.52675174317432  0.42993321852185  0.18287093329333
 1 -8.87428259715972  1.89421107390739 -0.42501782218222
 1  11.36293202770277 -2.54178567456746 -1.42183503500350
 1  10.25172803920392 -1.33594969666967 -2.19444537853785
 1  12.30416971067107 -1.27016010611061 -2.76104205230523
 1  14.92036121642164  1.42057015681568  1.12225019391939
 1  9.71181095739574 -2.53119620132013 -0.00668711121112
 1 -5.62057651865186 -1.28542569326933  0.32349974677468
 1 -7.08899779787979 -1.02544451765177  1.22475472787279
 1 -7.46270250545054 -1.66507495569557 -0.22772098689869
 1 -6.66548883538354  2.57047584268427 -0.52641584328433
 1  6.86313986298630 -3.86455987858786  1.03391308700870
 1  6.58476582178218 -4.00274546234624 -0.66583617481748
 1  8.19876977437744 -4.21351753635363  0.09757672497250
 1  6.59933836073607 -0.05493273267327 -0.49603172507251
 1 -4.34651688328833  0.42210187538754 -0.21976803440344
 1  4.58253185668567 -2.49706895989599 -0.03846150695069
 1 -4.62189823552355  3.41286926872687 -0.93168282378238
 1  4.11359143534353  0.38544588348835 -0.85661487888789
 1 -1.22718247644764  4.13687513421342 -1.68651692359236
 1 -1.20321315971597  4.20082724002400  0.04503254345435
 1 -2.63312280038004  4.71641405690569 -0.86864515821582
 1 -2.46989586998700  0.47766439193919 -0.97134186418642
 1  2.39281832393239  1.16099008820882 -0.85588260336034
 1  2.34312283998400 -2.51207761016102  0.92421079957996
 1  1.11726679797980 -2.40739003010301 -0.48988027312731
 1  2.89703245264526 -3.02737052425242 -0.87901214421442
 1  0.14611049594959  2.29479931963196 -0.63771076257626
 1 -0.11781467746775 -0.62029219901990 -0.23408406340634

