%nproc=4
%Mem=4GB
# td=(NStates=1) CAM-B3LYP/6-31G(d,p) 

TD

0 1
 8 -14.11738761396140 -1.99891827352735  0.47604786008601
 8  14.83045488228823  0.86905449204920  0.03046364226423
 6 -11.78782164176418  0.06757283218322  1.35943076307631
 6 -10.94953191569157  0.30416318731873 -0.06632291949195
 6 -11.90741622222222 -1.45659014341434  1.45887372867287
 6 -12.69508290179018 -2.16500756555656  0.31655580648065
 6 -11.61713700260026 -0.39053653195320 -1.17541303120312
 6  11.18057138773877  0.94393603610361  1.20377065676568
 6 -11.07137861106111  0.65139687848785  2.56037308800880
 6 -13.13012917531753  0.87824347124712  1.24055513231323
 6  12.53342052255226  1.63422284878488  0.85148253445345
 6 -12.32567355325533 -1.52369023682368 -1.03677644634463
 6  13.47980960186019  0.54689236183618  0.43008032693269
 6  10.66520599489949  0.05457604740474  0.07664124922492
 6 -9.52668143204320 -0.00878372657266  0.03278328592859
 6  12.97141511911191 -0.03422064146415 -1.00952653895390
 6  11.54688777757776 -0.43148819411941 -0.90335539433943
 6  10.20128701430143  2.11066037803780  1.31138385178518
 6  11.27495832833283  0.17161633703370  2.54068462976298
 6 -11.50685518301830  0.23537517901790 -2.52595485368537
 6 -8.54190029032903  0.88382336473647 -0.24398802130213
 6  9.31237616691669 -0.46238401420142  0.11093117691769
 6  10.98602854835483 -1.11480444724472 -2.13648325302530
 6 -7.15053637653765  0.46098334013401 -0.06840893019302
 6  8.83694015041504 -1.71780157765777 -0.03497863886389
 6 -6.70564198569857 -0.91791054795480  0.29655254385439
 6  7.49096758425843 -2.14796766876688 -0.01636269856986
 6 -6.14622439843984  1.42863643814381 -0.39117097369737
 6  7.12703589778978 -3.64998872107211  0.17555777397740
 6  6.30118738773877 -1.24016430513051 -0.04366670907091
 6 -4.78114208790879  1.48049158835884 -0.22809372277228
 6  5.02374322022202 -1.58184602750275 -0.06587436763676
 6 -3.98836020842084  2.59496252245225 -0.67176836583658
 6 -2.61254169226923  2.60188814641464 -0.82737548534854
 6  3.99329329482948 -0.76044655075508 -0.12288180458046
 6  2.60387743634363 -0.91329580108011 -0.35429038163816
 6 -1.93488203840384  3.99538412101210 -1.11579072647265
 6 -1.78027511301130  1.46086883128313 -0.72260827722772
 6  1.79990853585359  0.22661422292229 -0.39020758265827
 6  2.03915723682368 -2.35066785408541 -0.13173080518052
 6 -0.37582984188419  1.39602092339234 -0.79663302310231
 6  0.40046487728773  0.21583325112511 -0.48248150895090
 1 -11.07664440594059  1.44744652995300 -0.50039188438844
 1 -12.50306377947795 -1.52847286098610  2.54084197889789
 1 -10.92361003060306 -1.81677087208721  1.63386666926693
 1 -12.56467010061006 -3.20689979727973  0.50651551365137
 1 -10.11211661296130  0.01773344894489  2.53677230113011
 1 -10.68425859245925  1.68215129212921  2.32493721562156
 1 -11.69542713501350  0.54854827382738  3.56191036883688
 1 -13.74410561236123  0.70580658295830  0.23491996229623
 1 -13.63418918951895  0.57920952835284  2.11439544154415
 1 -12.65934461986198  1.78608223002300  1.38658914221422
 1  12.66123349004901  2.38178312781278 -0.01089324612461
 1  12.74500892799280  2.09227326622662  1.70296789798980
 1 -12.86679015761576 -2.14346114261426 -1.85716990769077
 1  13.59560914571457 -0.30759050485048  1.07320765666567
 1 -9.23554592029203 -0.91944680368037  0.29962752275228
 1  13.69597474157416 -0.93607664696470 -1.16420157615762
 1  13.17167358485849  0.71237981588159 -1.87898782258226
 1  9.20479717731773  1.86955700750075  1.72740798819882
 1  10.10881274287429  2.35543814621462  0.37314422992299
 1  10.51939561286128  2.93931890359036  1.80704685568557
 1  12.25847868916892 -0.44372162076208  2.76646306770677
 1  10.47815278587859 -0.55425796679668  2.74696782488249
 1  11.20799169826983  0.98414621142114  3.37807275027503
 1 -10.39088158615862  0.74430434113411 -2.75751314701470
 1 -12.11165022132213  1.04024002250225 -2.60657772307231
 1 -11.52647049214922 -0.53551230253025 -3.32036979457946
 1 -14.41508478177818 -2.16086503910391 -0.24952315611561
 1  8.71488055605560  0.30768099329933  0.21874452065207
 1 -8.78551372027203  1.99451110391039 -0.41925724612461
 1  11.13116885138514 -2.26797829382938 -2.11603445494549
 1  9.83644651105110 -1.11486758845885 -1.92493842784278
 1  11.50886017971797 -0.75993908400840 -3.04437038513851
 1  15.31023020332033  1.04890299009901  0.92697066596660
 1  9.57833761006101 -2.46618970067007 -0.16058250075007
 1 -5.73175763676368 -0.85804295499550  0.34811220802080
 1 -6.80915981408141 -1.27120909410941  1.22166441884188
 1 -7.03946018121812 -1.78624707290729 -0.29063727852785
 1 -6.63978626512651  2.26922571767177 -0.71002420412041
 1  6.73439698869887 -4.03128655125512  1.19034873057306
 1  6.55691303650365 -4.07727291509151 -0.75483507470747
 1  8.28595849324932 -4.11056724132413 -0.04051708440844
 1  6.59953838073807 -0.13335057445745 -0.26502862476248
 1 -4.23308554015402  0.56960662586259 -0.11221727932793
 1  4.78248185168517 -2.65025427842784 -0.00140780158016
 1 -4.54734077977798  3.64756273807381 -0.94421407690769
 1  4.32171224742474  0.36823416231623 -0.11415063246325
 1 -1.41361111931193  4.01513295999600 -2.08442671457146
 1 -1.27086992539254  4.23113027032703 -0.19140109990999
 1 -2.68790827892789  4.91237365286529 -1.15730402410241
 1 -2.28004688508851  0.48594522002200 -0.73954868486849
 1  2.15075411751175  1.32886687588759 -0.39991700680068
 1  2.41583011071107 -2.96626302870287  0.76259463796380
 1  0.85269034033403 -2.56578586968697 -0.08711999709971
 1  2.55383813321332 -2.99325711291129 -0.94874911791179
 1  0.17903378827883  2.45673551325133 -0.76173316481648
 1  0.02996010001000 -0.91175134493449 -0.35506616161616

