%nproc=4
%Mem=4GB
# td=(NStates=1) CAM-B3LYP/6-31G(d,p) 

TD

0 1
 8 -14.28153402860286 -1.96562494419442  0.51291154645465
 8  14.83991582838284  1.05888347494749  0.34822541844184
 6 -11.86287914751475 -0.05930985608561  1.46614143414341
 6 -11.00929789228923  0.34621739273927  0.20807452025203
 6 -12.10408588918892 -1.53018750315031  1.48629647094709
 6 -12.79338273177318 -2.07458852365237  0.28180233113311
 6 -11.70324561346135 -0.19758723702370 -1.08349383928393
 6  11.13310664126413  1.08594023652365  1.23709398909891
 6 -10.96766824002400  0.32645438423842  2.69105615631563
 6 -13.09383554595460  0.93288893579358  1.48365944274427
 6  12.55732291279128  1.50282970947095  1.00956834303430
 6 -12.49761074697470 -1.28355622342234 -0.94962773147315
 6  13.52064368526853  0.47582525512551  0.43680099899990
 6  10.69773924822482  0.01041163096310  0.19019260436044
 6 -9.52163092699270 -0.05692854105411  0.24352436003600
 6  13.03646162376238 -0.08596581598160 -0.81114670097010
 6  11.55785887468747 -0.41521656695670 -0.72850790959096
 6  10.09004589018902  2.19861917391739  1.09994270767077
 6  11.02697352985298  0.38958813421342  2.57577813911391
 6 -11.36137063456346  0.50218185968597 -2.50329258745875
 6 -8.50701680198020  0.90255523792379 -0.01087470997100
 6  9.30046497579758 -0.41612938873887  0.23045312911291
 6  11.10233017851785 -1.26565953275328 -1.95721532623262
 6 -7.16562788568857  0.44235147694770 -0.00950303960396
 6  8.92169862626263 -1.68920871837184 -0.02002714371437
 6 -6.68758017951795 -0.92788154505451 -0.05257236863686
 6  7.54510299779978 -2.28721159315932 -0.10897195949595
 6 -6.20459023502350  1.48687226172617 -0.31763361996200
 6  7.22998619281928 -3.64965868806881  0.05799601780178
 6  6.44999226822682 -1.30058034673467 -0.25564790719072
 6 -4.82849682338234  1.42777631683168 -0.52484339773977
 6  5.08844969086909 -1.59464730763076 -0.13378115831583
 6 -3.99083045544554  2.57434046024602 -0.82798398739874
 6 -2.65881631973197  2.46805476307631 -0.82637538533853
 6  4.07139110461046 -0.65260576667667 -0.59568908530853
 6  2.66365341394139 -0.92291676317632 -0.53015796839684
 6 -1.99724827502750  3.78496307890789 -1.34199334673467
 6 -1.76695378087809  1.34813755815582 -0.70982699909991
 6  1.78805735073507  0.16784834633463 -0.77309587148715
 6  2.23823714481448 -2.26884967226723 -0.06531416351635
 6 -0.43399565846585  1.30939226052605 -0.94667802760276
 6  0.50352518331833  0.18141980978098 -0.66221948274827
 1 -11.02279902140214  1.45546733203320  0.34935309010901
 1 -12.64646811991199 -1.61168118181818  2.36679457415742
 1 -11.14232190179018 -2.03573276827683  1.41176445904590
 1 -12.65670930453045 -3.09603871117112  0.15831069316932
 1 -10.05419082038204 -0.02854117851785  2.85478410231023
 1 -10.70844101070107  1.29361243824382  2.46276099799980
 1 -11.47290488278828  0.50582400140014  3.59547372517252
 1 -13.73176437823782  0.70568657095710  0.59899636993699
 1 -13.55362113271327  0.94627623502350  2.35548955095510
 1 -12.76048473387339  1.99144276607661  1.43048353165317
 1  12.62236960366037  2.45370031953195  0.36124396759676
 1  13.10790521762176  2.05737977687769  1.98333593479348
 1 -13.00460393899390 -1.62879967646765 -1.98702289298930
 1  13.61508109290929 -0.37700744654465  1.12136247214721
 1 -9.31807417311731 -1.03727858685869  0.44416197619762
 1  13.40339548364837 -0.87424046334633 -1.29305446144614
 1  13.35824224172417  0.71623020092009 -1.54137406120612
 1  9.13042974057406  2.01936198799880  1.82506775417542
 1  9.95532739433943  2.28938154055406  0.00304722022202
 1  10.44156783008301  3.42091706340634  1.49570572157216
 1  11.85012785408541 -0.44458170677068  2.77887430883088
 1  10.07197216781678 -0.09303184418442  2.71760488858886
 1  11.30616151525152  1.07541533833383  3.46772171517152
 1 -10.21707420542054  0.67384729542954 -2.43273066876688
 1 -11.93418247454746  1.42019801830183 -2.22884995029503
 1 -11.71428927402740 -0.14200295159516 -3.28554631223122
 1 -14.52871614491449 -2.02079103170317 -0.36787499129913
 1  8.70928999699970  0.31990221542154  0.65146779297930
 1 -8.96527169606961  1.77986963976398 -0.16748206860686
 1  11.55885161966197 -2.39442093809381 -1.75165801730173
 1  10.04574744114411 -1.42256835853585 -2.08806474047405
 1  11.70404969866987 -0.92774586468647 -2.87128307640764
 1  15.15525470577058  1.30870897069707  1.24355232413241
 1  9.69622939923993 -2.43099618131813 -0.36688313081308
 1 -5.47146160716072 -1.09591674237424  0.22883027982798
 1 -7.17181607970797 -1.17038901210121  0.91444369676968
 1 -7.17754398959896 -1.46359480768077 -0.79428764356436
 1 -6.83217550405041  2.48448724382438 -0.48066126782678
 1  6.72544609360936 -3.87338076067607  1.15970566626663
 1  6.44205155035504 -4.04416960476048 -0.39349894109411
 1  8.17563746114612 -4.34387057165717 -0.14736776947695
 1  6.79536796369637 -0.22678991839184 -0.51430355225523
 1 -4.27777000860086  0.44628429362936 -0.42535859345935
 1  4.80732433593359 -2.67398665166517  0.11399373857386
 1 -4.36930297599760  3.64057203900390 -1.04508416391639
 1  4.42167224342434  0.38139547844784 -0.67375659305931
 1 -1.52521227942794  3.72838428512851 -2.26525479737974
 1 -1.32534537293729  4.11387854515452 -0.57793975377538
 1 -2.73134262236224  4.46006842234223 -1.22778107180718
 1 -2.28576745714571  0.51149777527753 -0.70515524552455
 1  2.29835887798780  0.92625661486149 -1.30382739783978
 1  2.35780430813081 -2.37617401980198  1.18819719821982
 1  1.24637970927093 -2.43004229532953 -0.34575586068607
 1  2.98376112551255 -3.12405019221922 -0.57869211221122
 1  0.15783166806681  2.26421626132613 -1.36864385588559
 1 -0.35853874987499 -0.65053522332233 -0.30746140114011

