%nproc=4
%Mem=4GB
# td=(NStates=1) CAM-B3LYP/6-31G(d,p) 

TD

0 1
 8 -14.01358723392339 -2.16980536223622  0.78721897719772
 8  14.63188502530253  0.94150173677368  0.44868546444644
 6 -11.67659051865187  0.17218329322932  1.28936375637564
 6 -11.00592755525553  0.34963773477348 -0.00668695589559
 6 -11.77753323392339 -1.35972045644564  1.53118095939594
 6 -12.57552094559456 -2.19298036283628  0.43168731963196
 6 -11.68066335523552 -0.37584506280628 -1.20486597649765
 6  10.99694302490249  1.01807344984498  1.17338761846185
 6 -10.92831430463046  0.70686242504250  2.55337238793879
 6 -13.09889605200520  0.82616826372637  1.33126420322032
 6  12.46095327582758  1.57497692419242  0.90071745794579
 6 -12.33655464136414 -1.53628149594960 -0.95553832253225
 6  13.44214583548355  0.43608128072807  0.50203752265227
 6  10.59559903420342 -0.02418182838284 -0.06369278417842
 6 -9.51219998389839  0.05660281208121 -0.00415040744074
 6  13.03379135673567 -0.01228844824482 -0.90155574187419
 6  11.55644873367337 -0.52761780708071 -0.87052211101110
 6  10.01066795239524  2.16347565956596  1.36338905230523
 6  10.95709654215421  0.14525370077008  2.46537709900990
 6 -11.36741123862386  0.10525216671667 -2.62025428362836
 6 -8.52401850215022  0.90636561896190 -0.34022764526453
 6  9.21784671397140 -0.44033180898090 -0.11977189338934
 6  11.29509945544554 -1.35780874767477 -2.13044264896490
 6 -7.19940126302630  0.57950519231923 -0.21926401570157
 6  8.82478893529353 -1.67523732123212 -0.23586872787279
 6 -6.75716713821382 -0.88426718361836  0.13537642624262
 6  7.46767525502550 -2.15781865386539 -0.15657671997200
 6 -6.22642241824182  1.53541711621162 -0.51099295589559
 6  7.24772796699670 -3.55255897809781  0.18409862806281
 6  6.39408667766777 -1.22923321202120 -0.29481182358236
 6 -4.79924389808981  1.43960749994999 -0.44814572797280
 6  5.04526537243724 -1.55810365326533 -0.25010279047905
 6 -3.94103547594759  2.57945097129713 -0.57488867786779
 6 -2.59142958105811  2.68067602520252 -0.69816256405641
 6  4.00581454695470 -0.63503400950095 -0.47115663206321
 6  2.61163821242124 -0.90629510101010 -0.34929988258826
 6 -1.89462801300130  3.95548013061306 -0.92201134853485
 6 -1.78843592909291  1.47505024942494 -0.59669568596860
 6  1.72754129912991  0.06365792729273 -0.53056161806181
 6  2.13914723582358 -2.36103889118912 -0.00054768686869
 6 -0.37327958685869  1.33333465476548 -0.68416177597760
 6  0.32676750755076  0.15694736253625 -0.50859412021202
 1 -11.28897563906391  1.42830461576158 -0.08004985018502
 1 -12.16945041814181 -1.48939895359536  2.73224111881188
 1 -10.87532520212021 -1.75323451845184  1.64741802440244
 1 -12.24744837843784 -3.13804291159116  0.42706756885689
 1 -9.93710911221122  0.20390206580658  2.69125774967497
 1 -10.80350051665167  1.76159923692369  2.48308303020302
 1 -11.45735332763276  0.28470188918892  3.45280945874587
 1 -13.71250245204520  0.63177918021802  0.48851532183218
 1 -13.56298206880688  1.02340394779478  2.32229623162316
 1 -12.90701938733873  1.94708833063306  1.04874535783578
 1  12.75016238293829  2.44956990649065  0.10326817001700
 1  12.75067949504950  2.09420345924592  1.92498009920992
 1 -13.03802728132813 -1.91754855135514 -1.73155734643464
 1  13.14859444424443 -0.43348309410941  1.38214855075508
 1 -9.24498686438644 -0.99608446744674  0.01557911791179
 1  13.91603674777478 -0.80924396369637 -1.20464562056206
 1  13.03145956345635  0.74666324422442 -1.65648557235724
 1  9.03137983558356  1.79901995379538  1.57832307970797
 1  9.86929879147915  2.96263886628663  0.53691060656066
 1  10.43631730503050  2.91806677837784  2.29337548854885
 1  11.80010285158516 -0.78919616821682  2.48339476087609
 1  9.93676864746475 -0.28951149214921  2.65753888198820
 1  11.18101900100010  0.77824562136214  3.40010495349535
 1 -10.25543804180418  0.07047695839584 -2.82313970967097
 1 -11.69010806710671  1.18979497799780 -2.66809387468747
 1 -11.73139098419842 -0.38382713401340 -3.38513627122712
 1 -14.53151642494250 -2.33284223682368 -0.02950115391539
 1  8.54911397939794  0.42626285148515 -0.02252960676068
 1 -8.65528069696970  2.11079273207321 -0.44337965836584
 1  11.44926066056606 -2.29745124112411 -1.92123497499750
 1  10.20360322672267 -1.17209331103110 -2.31765769976998
 1  11.87525681938194 -0.92232532263226 -2.81524747284729
 1  15.00640982128213  1.24898299809981  1.25873384228423
 1  9.52577235353535 -2.54634771647165 -0.11052749524952
 1 -5.75274973597360 -0.73263041374137  0.10009740654065
 1 -7.03035193329333 -1.02907488068807  1.26444869726973
 1 -7.03346958215822 -1.63903235143514 -0.47403561836184
 1 -6.62889517601760  2.51703049814982 -0.73740694239424
 1  6.67987153615361 -3.59364278687869  1.24793448914891
 1  6.67723506870687 -4.06166135393539 -0.42239183038304
 1  8.44453435083508 -3.98516470107011  0.55576254355436
 1  6.58099652655265 -0.19644688408841 -0.55470759265927
 1 -4.36355858745875  0.59958962416242 -0.07913397099710
 1  4.77173077657766 -2.58370762376238  0.13678601780178
 1 -4.43184923062306  3.48082606440644 -0.99720937643764
 1  4.41873194939494  0.38610594949495 -0.61842105950595
 1 -1.38008776697670  3.87229867656766 -1.94258253015302
 1 -1.25000783918392  4.23395055235524 -0.24980694049405
 1 -2.63386287438744  4.77908032353235 -0.80379867356736
 1 -2.19132801320132  0.50168679417942 -0.41562629262926
 1  2.24726376847685  1.02787677687769 -0.72589960506051
 1  2.44848337603760 -2.67177357975798  0.89289766826683
 1  0.98635370667067 -2.28948823992399  0.22140085498550
 1  2.44344709410941 -3.26582436963696 -0.65764000700070
 1  0.03082896779678  2.33678351805181 -0.97254424592459
 1 -0.20146304230423 -0.64384455425543 -0.29101975697570

