%nproc=4
%Mem=4GB
# td=(NStates=1) CAM-B3LYP/6-31G(d,p) 

TD

0 1
 8 -14.03101897709771 -2.07635601730173  0.34603485878588
 8  14.86236807360736  0.93988157475748 -0.04461386548655
 6 -11.84076693629363  0.07378345324532  1.25908072807281
 6 -11.03214017651765  0.31364413541354 -0.01928821602160
 6 -12.02261774237424 -1.43124760916092  1.45107294859486
 6 -12.60553394689469 -2.24424548934893  0.25675982688269
 6 -11.61004629352935 -0.51309878817882 -1.31163665356536
 6  11.15573890449045  0.94360600310031  0.99521980168017
 6 -10.98073954715472  0.64339607840784  2.40727777847785
 6 -13.11244740714071  0.79100474737474  1.05271634843484
 6  12.66817399789979  1.38168759525953  0.80265765196520
 6 -12.24056504240424 -1.60132800060006 -1.08568133683368
 6  13.53970559145915  0.35789346194619  0.31717903680368
 6  10.76310578487849 -0.10063947414741 -0.06830324522452
 6 -9.59245800970097 -0.06690953915392  0.16675668326833
 6  12.99235721332133 -0.18359557895790 -0.99517510381038
 6  11.67330041884188 -0.64264931023102 -0.94345940474047
 6  10.24416130173017  2.12079139113911  0.97259997339734
 6  10.97536836933693  0.26612578797880  2.46072663396340
 6 -11.35314981248125  0.12183382488249 -2.59288154635464
 6 -8.60329642994300  0.82069705210521 -0.16930055255526
 6  9.27072200150015 -0.48721649744975  0.06574665846585
 6  11.34935488098810 -1.64531749854986 -2.03413301800180
 6 -7.13695501840184  0.50672791459146 -0.09339142844284
 6  8.70143660006001 -1.75972577007701 -0.03747888888889
 6 -6.75844726622662 -0.92580133703370  0.18709159775978
 6  7.42518100560056 -2.07408028002800  0.02749168686869
 6 -6.29724950095009  1.48620219471947 -0.30651250785079
 6  6.97054024822482 -3.51494521672167  0.26987720592059
 6  6.40090735973597 -1.03938422712271 -0.14860720312031
 6 -4.79553352705271  1.48311185038504 -0.32836374977498
 6  5.07142798869887 -1.43021086398640 -0.11166894709471
 6 -4.03271464386439  2.62605563176318 -0.52030321932193
 6 -2.70715115321532  2.64652260986099 -0.50192294009401
 6  4.07375134063406 -0.50508101420142 -0.21360087648765
 6  2.61171822042204 -0.68528299979998 -0.25746069866987
 6 -1.97672622282228  3.94814939753975 -0.68754790219022
 6 -1.86788387388739  1.52287503190319 -0.49903591999200
 6  1.76932547754775  0.35783734523452 -0.21736029792979
 6  2.11354467556756 -2.10406319361936  0.10027239513951
 6 -0.43711597049705  1.60969229052905 -0.42770613041304
 6  0.38552338313831  0.43418508630863 -0.36719998079808
 1 -10.90841758325833  1.28651043634363 -0.10818266346635
 1 -12.69890336343634 -1.32590260396040  2.14960285498550
 1 -11.07523519311931 -2.00468966396640  1.87611089368937
 1 -12.44963859745975 -3.44304341164116  0.52315717781778
 1 -9.91079648094810  0.37047872347235  2.75676430033003
 1 -11.02566273287329  1.65074815181518  2.26622134403440
 1 -11.59095668796880  0.25274869386939  3.43626780458046
 1 -13.82436363816382  0.26070207250725  0.19757622792279
 1 -13.83320909150915  0.76677828522852  1.98388239023902
 1 -13.01345003040304  1.95340896269627  0.83231371467147
 1  12.54687205390539  2.34091904140414  0.07933577677768
 1  13.11232565966596  1.82696673557356  1.73302090329033
 1 -12.53386686528653 -2.17241403790379 -2.00114430513051
 1  13.77558714351435 -0.40512025782578  1.12199253515352
 1 -9.27636000170017 -1.01184604360436  0.53359091909191
 1  13.65723086718672 -1.19179221852185 -1.26760191619162
 1  13.23893031053105  0.46721529942994 -1.81170109390939
 1  9.09644634223422  1.83867391919192  1.18005325272527
 1  10.40387224882488  2.68967156955696 -0.01707479197920
 1  10.44759843314331  2.92417738943894  1.70216636763676
 1  11.82648548984899 -0.50281753035303  2.52556897829783
 1  9.94485945654565 -0.01693423442344  2.42225535363536
 1  11.21117201630163  1.03437123392339  3.23003794679468
 1 -10.26338883688369  0.11966187688769 -3.00199759545955
 1 -11.68069712601260  1.09429542804280 -2.93636070137014
 1 -11.77234507960796 -0.57885663696370 -3.28395615321532
 1 -14.28321159445945 -2.41661061366137 -0.67271547534753
 1  8.71445051305130  0.58165839103910 -0.14108146194619
 1 -8.78395356425643  1.75805745854585 -0.37373269366937
 1  11.67899363386339 -2.53242473847385 -1.93706655815582
 1  10.22154502090209 -2.05025112681268 -2.39292522652265
 1  11.85017431113111 -1.19482257235724 -3.03650959905991
 1  15.30699988028803  1.30695879567957  0.82160012891289
 1  9.44408418471847 -2.70608369006901 -0.23139958245825
 1 -5.70060452145214 -1.21434858555856  0.12027942474247
 1 -6.94239313741374 -1.14773674687469  1.30797304970497
 1 -7.29965620082008 -1.89817826602660 -0.49451766656666
 1 -6.55564785128513  2.57045584068407 -0.28501170287029
 1  6.65097864686469 -3.61607503010301  1.37628732443244
 1  5.97164450965097 -3.73878906670667 -0.36012560376038
 1  7.90804070147015 -4.13933011761176  0.13501046834684
 1  6.57477590449045 -0.10450769016902 -0.58599072097210
 1 -4.37402963456346  0.43764342954295 -0.05311136873687
 1  4.78470207370737 -2.44834408740874  0.17307964716472
 1 -4.50423646934693  3.55654363616362 -0.92906256175618
 1  4.30812088828883  0.42372971187119 -0.38046726412641
 1 -1.48231798999900  4.15008645534553 -1.65612388428843
 1 -1.30656349474948  4.31746890419042 -0.05822778257826
 1 -2.62912240034003  4.88586100160016 -0.61558985268527
 1 -2.20884976537654  0.46605323082308 -0.39594432443244
 1  2.22772181428143  1.25520951015101 -0.19367638273827
 1  2.34477300500050 -2.22447885028503  1.15680405890589
 1  1.13201827312731 -1.87495678677868 -0.12898418351835
 1  2.55724847424742 -2.75653344054405 -0.55491973497350
 1  0.23324920982098  2.54299413911391 -0.41679867136714
 1 -0.25864876087609 -0.54466463626363 -0.49724037903790

