%nproc=4
%Mem=4GB
# td=(NStates=1) CAM-B3LYP/6-31G(d,p) 

TD

0 1
 8 -14.10873674887489 -2.07711609330933  0.44292454775478
 8  14.72944478127813  0.99033662026203  0.06349694559456
 6 -11.77777063666367  0.14125019991999  1.31847666766677
 6 -11.03386034853485  0.39972274327433 -0.10050633783378
 6 -11.99776525712571 -1.43630811521152  1.42822066336634
 6 -12.64215760926093 -2.09292035683568  0.31542569346935
 6 -11.63107839673967 -0.29987746604660 -1.22153764366437
 6  11.08100143074307  0.99066070857086  1.13954423412341
 6 -10.95857733093309  0.58115985478548  2.46099315001500
 6 -13.17247340974097  0.74146979387939  1.26296737353735
 6  12.46370355085508  1.54501392789279  0.84933231943194
 6 -12.41105209110911 -1.32614048184819 -1.03560632933293
 6  13.37328894979498  0.54835250785079  0.21865918481848
 6  10.63139261356136 -0.01964137433743  0.00937452255226
 6 -9.55075383928393  0.07847499929993 -0.07694768716872
 6  12.89135711331133 -0.02854007340734 -1.00688627492749
 6  11.42060514931493 -0.43897894319432 -0.98429348814881
 6  10.12520940654065  2.25796510851085  1.12092480588059
 6  11.01755258775878  0.25525470087009  2.47891845314531
 6 -11.10588508600860  0.16348799029903 -2.54987724592459
 6 -8.49446554685469  0.85899088148815 -0.17867148964896
 6  9.31712664196420 -0.48405618141814  0.22356244004400
 6  11.05319526502650 -1.19518248504850 -2.20410001470147
 6 -7.05779710261026  0.57622486428643 -0.06572866216622
 6  8.82349880628063 -1.67544734223422 -0.13317845884588
 6 -6.71302272377238 -0.93866262316232  0.18219110771077
 6  7.46323481098110 -2.19305217721772 -0.08495955825583
 6 -6.18145792179218  1.52692626712671 -0.39009086568657
 6  7.34997819201920 -3.72455617781778  0.27999821802180
 6  6.35755302430243 -1.38716900560056 -0.20212255465547
 6 -4.72153612731273  1.45853939313931 -0.37164807820782
 6  4.99825067096710 -1.62670051295130 -0.06068384858486
 6 -3.92482385478548  2.53065609180918 -0.66458764776478
 6 -2.56139657775778  2.55242319991999 -0.62731547934793
 6  4.02801676717672 -0.59687019311931 -0.21941145754575
 6  2.59718676727673 -0.94122859435944 -0.08696364896490
 6 -1.80630918111811  3.83408799139914 -0.89699884728473
 6 -1.73960104560456  1.36126887128713 -0.53912992939294
 6  1.75028357335734  0.16232779427943 -0.37163572547255
 6  2.10373369446945 -2.29750253755376  0.21395376327633
 6 -0.35498775767577  1.29034035533553 -0.72553591339134
 6  0.36901173197320  0.25933760156016 -0.24491775257526
 1 -11.13796053755375  1.50317210251025 -0.29832167736774
 1 -12.44176764986499 -1.60826083978398  2.48327622232223
 1 -10.91972964256426 -1.94190338533853  1.60124340694069
 1 -12.24766840044004 -3.11559066636664  0.28201306340634
 1 -10.28338373967397  0.18278995459546  2.99805842974297
 1 -10.79354952155215  1.67259033603360  2.27223194509451
 1 -11.77484507680768  0.40091351035104  3.22994717251725
 1 -13.62425362716272  0.36412241454145  0.27357382768277
 1 -13.82148791939194  0.65890749814981  2.14083808580858
 1 -13.06799548494849  1.92200582238224  0.91852233553355
 1  12.21526889358936  2.31830678017802  0.04652249544955
 1  12.67023145024502  2.00435447434743  1.77407500870087
 1 -13.06564004260426 -1.64235103160316 -1.93651784248425
 1  13.35270485528553 -0.25630537633763  1.03389372527253
 1 -9.29610197589759 -0.87739259825983  0.23771133113311
 1  13.50649579367937 -0.78607164646465 -1.08773392939294
 1  12.96771318881888  0.81699027692769 -1.65690561436144
 1  9.21738843644364  2.07365741754175  1.43579882728273
 1  10.09487134873487  2.64376697909791  0.09710662616262
 1  10.58362203550355  2.83531850355036  1.83903005400540
 1  11.73974681598160 -0.37485473407341  2.44056047744774
 1  10.11598656925693 -0.41102364336434  2.52217534563456
 1  11.19085998509851  1.10059785658566  3.04046898989899
 1 -10.10784328232823  0.53206311701170 -2.51603899959996
 1 -11.61107016331633  1.23853985248525 -2.60815788108811
 1 -11.71585943104310 -0.35067381868187 -3.39077683528353
 1 -14.56876014931493 -2.18621757435744 -0.31808001180118
 1  8.61522059005901  0.30768099329933  0.54023666986699
 1 -8.85225039393939  1.92971462426243 -0.43027834823482
 1  11.38543427792779 -2.18567006300630 -2.33494634613461
 1  9.94116698309831 -0.99705580728073 -2.38836477047705
 1  11.45372466616662 -0.74335742584258 -3.26074202230223
 1  15.14463364366437  1.12142024182418  0.92953092199220
 1  9.36582635893589 -2.51078416011601 -0.25913235573557
 1 -5.61268572957296 -1.23292044274427  0.12210960776078
 1 -7.16961585968597 -1.55498747194719  1.07938019041904
 1 -7.04563079827983 -1.42470091829183 -0.66283449824983
 1 -6.81557384388439  2.39465826092609 -0.68867206890689
 1  7.48776232523252 -3.82706612921292  1.50438013371337
 1  6.22146949214921 -4.29700488828883 -0.05422501370137
 1  8.17672757015702 -4.44077026162616 -0.11560459315932
 1  6.77303573047305 -0.36095333473347 -0.85196731863186
 1 -4.35613784538454  0.51770143534353 -0.18100415801580
 1  4.58765236873687 -2.69823907690769  0.17712005120512
 1 -4.40272631833183  3.48793677547755 -0.76054571007101
 1  4.21300137633763  0.52990032893289 -0.40982019941994
 1 -1.17679743794379  3.83503495019502 -1.76110438233823
 1 -0.96215905430543  4.17479463676368 -0.24471643144314
 1 -2.44359384748475  4.79772218771877 -0.86375466916692
 1 -2.29304818521852  0.56039266476648 -0.47020175017502
 1  2.27564660676068  1.04394838403840 -0.70560757585759
 1  2.60941946964697 -2.40327673007301  1.07672605110511
 1  1.08597366866687 -2.52556184728473  0.03030174507451
 1  2.62602535193519 -2.92177996519652 -0.52928717171717
 1  0.29948583348335  2.27622746244624 -0.98001499299930
 1  0.09158626262626 -0.76452662246225  0.28848819381938

