%nproc=4
%Mem=4GB
# td=(NStates=1) CAM-B3LYP/6-31G(d,p) 

TD

0 1
 8 -14.26667254245424 -1.76259464116412  0.59664992029203
 8  14.84823666046605  0.88492607920792  0.23564416031603
 6 -11.75312817241724  0.21530760566057  1.21365618561856
 6 -11.03877083958396  0.37077984898490 -0.06412269946995
 6 -12.01672715331533 -1.34005849024902  1.43969181048105
 6 -12.81449484298430 -1.95369643444344  0.36910106100610
 6 -11.76089137803780 -0.33405088338834 -1.28678416831683
 6  11.17983131373137  1.05317696019602  1.08095837553755
 6 -10.98679015221522  0.72654439323932  2.31072812351235
 6 -13.07106326872687  0.97267291419142  1.13438451525153
 6  12.59989717021702  1.52167159365937  0.77196458265827
 6 -12.45029601550155 -1.44296216401640 -1.08844161286129
 6  13.59377099799980  0.35357302990299  0.45668298719872
 6  10.73087256155616  0.06588717851785 -0.08694510941094
 6 -9.68006677057706  0.00628778057806 -0.04409440184018
 6  13.12352032963296 -0.14403162256226 -0.98949453575358
 6  11.60626371517152 -0.39954499979998 -0.98569362816282
 6  10.22507939353935  2.27881719371937  1.07568028142814
 6  11.01267209970997  0.39102827822782  2.38975953725373
 6 -11.42611710921092  0.06150779227923 -2.73758601680168
 6 -8.60334643494349  0.81578656105611 -0.12906652915292
 6  9.31449637893789 -0.39791756755676  0.06224630843084
 6  11.22179212471247 -1.28590155695570 -2.14186379107911
 6 -7.19138046094610  0.37914515631563 -0.05124721402140
 6  8.88526498289829 -1.58442824032403 -0.31246638763876
 6 -6.76392781428143 -1.10255901280128  0.09453234183418
 6  7.49652814031403 -2.07009988198820 -0.24631569386939
 6 -6.18047782378238  1.27863143764376 -0.44351620822082
 6  7.22704589878988 -3.54571829402940 -0.19800958275828
 6  6.40652792179218 -1.19802009070907 -0.24352669506951
 6 -4.76566053975398  1.19864340354035 -0.29135004840484
 6  5.07960880678068 -1.48822666556656 -0.03988176837684
 6 -3.96906827922792  2.34039706590659 -0.70155134413441
 6 -2.60450088818882  2.39210716831683 -0.66596934473447
 6  4.03809777527753 -0.55744625072507 -0.13286280268027
 6  2.66689373797380 -0.88906337783778  0.02034708210821
 6 -1.96258480868087  3.66276085868587 -0.84633378077808
 6 -1.78946603210321  1.32861560596060 -0.36412242864286
 6  1.76701524652465  0.27006856835684 -0.10775933783378
 6  2.22140546164616 -2.31090387768777  0.27921028892889
 6 -0.50976323522352  1.38435975727573 -0.27448080788079
 6  0.35495032583258  0.22404407220722 -0.05712897369737
 1 -11.09758650015001  1.40617240254025 -0.28235008020802
 1 -12.52419589268927 -1.52103211691169  2.47515541024102
 1 -11.12102977257726 -1.91301049604961  1.49007228982898
 1 -12.76423005660566 -3.08050715801580  0.18032289438944
 1 -9.98146354765477  0.23896557215722  2.71221984588459
 1 -10.82935310191019  1.68918199519952  1.99271399329933
 1 -11.55776336863686  0.57821124012401  3.31629580738074
 1 -13.48992019381938  0.45723172547255  0.03873034333433
 1 -13.75167093769377  0.83069467686769  1.85814981698170
 1 -13.00903958935893  2.04888851065107  0.76497698099810
 1  12.55780314701470  2.12910786028603 -0.21940409720972
 1  12.96795122222222  2.00769480838084  1.57247484868487
 1 -12.86828030663066 -1.98921571807181 -1.99237342804280
 1  13.61335091989199 -0.38037778357836  1.16832716861686
 1 -9.45705807150715 -0.99932479147915  0.33639119911991
 1  13.86947209130913 -1.10905394469447 -1.19535469146915
 1  13.38219463696370  0.61414999289929 -1.68200812461246
 1  9.18928562616262  1.94475452725272  1.49916516391639
 1  10.27609947154716  2.75298790119012  0.10071698719872
 1  10.44895856915691  3.10223519521952  1.89266541754175
 1  11.77648048934894 -0.52328957755776  2.39347576897690
 1  9.95805077567757 -0.05155769676968  2.56830995909591
 1  11.20160105920592  1.29255705250525  3.04481942494249
 1 -10.21964446244624  0.42353226392639 -2.76372376807681
 1 -12.02563161946195  1.06994299279928 -3.09283634893489
 1 -11.67070491559156 -0.70030878217822 -3.48258601620162
 1 -14.59069234253425 -1.87305625822582 -0.29979818361836
 1  8.64218328632863  0.33534375957596  0.47237988418842
 1 -8.77804297319732  1.71785343814381 -0.29354467486749
 1  11.00711644614461 -2.32455395139514 -1.82234508600860
 1  10.38269113551355 -0.88986508820882 -2.72476841084108
 1  11.86506580028003 -1.31278436853685 -3.07724367246725
 1  14.89764894519452  1.33923202300230  1.18774674357436
 1  9.52435221152115 -2.37355043674367 -0.43138958145815
 1 -5.70921538253825 -1.47858500920092  0.22789018581858
 1 -7.14257315541554 -1.56982895609561  1.00684293669367
 1 -6.95854208940894 -1.79498794699470 -0.74089230403040
 1 -6.69514180068007  2.35908470357036 -0.49297249894989
 1  7.24055760476048 -4.02856627922792  0.82175187088709
 1  6.12747009220922 -3.87027221502150 -0.58998859005901
 1  7.96151604900490 -4.22712889748975 -0.72564559725973
 1  6.73378180508051 -0.08536577597760 -0.21384350625063
 1 -4.37851008260826  0.31781144634463  0.15902984538454
 1  4.72791639513951 -2.49318857185719  0.12107444664466
 1 -4.67551359705971  3.14354233603360 -1.02127178267827
 1  4.37335741194119  0.54410174907491 -0.28765798319832
 1 -1.02381213941394  3.72444389108911 -1.50899917181718
 1 -1.43531637003700  4.07038419571957  0.07542558275828
 1 -2.71251073917392  4.56543895939594 -1.19452774647465
 1 -2.43460234063406  0.31919854535454 -0.18588331833183
 1  2.23860290239024  1.40989497869787 -0.39802681778178
 1  2.64682321002100 -2.84525092749275  1.22284066256626
 1  1.30905597689769 -2.52495178627863  0.35919463436344
 1  2.60304305370537 -2.91099888708871 -0.54898914191419
 1  0.21227711261126  2.22153199289929 -0.46591358285829
 1 -0.07921081708171 -0.78617878767877 -0.07933858885889

