%nproc=4
%Mem=4GB
# td=(NStates=1) CAM-B3LYP/6-31G(d,p) 

TD

0 1
 8 -14.27402327752775 -2.04108248994899  0.55130538583858
 8  14.81160299709971  0.78738632523252  0.02682327822782
 6 -11.63768662826283  0.01575765066507  1.41269608960896
 6 -11.06456341884189  0.31250402140214  0.14809852265227
 6 -11.99126460706071 -1.50958544294429  1.37908574987499
 6 -12.84125751925193 -1.93513457825783  0.19592374327433
 6 -11.78683397229723 -0.22344982328233 -1.15810130003000
 6  11.31432476307631  0.93986562906291  1.21669194889489
 6 -10.83986545974597  0.38365010381038  2.66096314701470
 6 -13.01327749014902  0.81973762066207  1.53807488428843
 6  12.71961914241424  1.37829725622562  0.94468185438544
 6 -12.57932891879188 -1.29550741854185 -1.11343411211121
 6  13.56810843174318  0.27674534713471  0.29688700760076
 6  10.74489396369637  0.03878446824682  0.02804638973897
 6 -9.49245800970097 -0.13816666486649  0.03316332393239
 6  12.99485746334633 -0.24090130953095 -0.92689827612761
 6  11.56474956375638 -0.41330637593759 -0.96646170497050
 6  10.40590747634763  2.19602891489149  1.32841555495550
 6  11.19736056855686  0.18539771517152  2.57598816011601
 6 -11.38172266976698  0.41971361286129 -2.45779803800380
 6 -8.56387248754876  0.68759374177418 -0.19736335883588
 6  9.29250417971797 -0.29536731253125  0.15270535433543
 6  11.19240918641864 -1.30371333813381 -2.15761536623662
 6 -7.17638896179618  0.37960520232023 -0.13520560986099
 6  8.81965842224222 -1.60543034053405  0.05047990699070
 6 -6.66508793029303 -1.12082083898390  0.03094598319832
 6  7.48442693019302 -2.01900477247725  0.00706964466447
 6 -6.18221799779978  1.34628820332033 -0.53233509010901
 6  7.17422061626163 -3.43482720492049  0.24552477067707
 6  6.35993326232623 -1.16431672037204 -0.13256559895990
 6 -4.76062003570357  1.38407194639464 -0.51303221662166
 6  5.05369621552155 -1.46299414231423 -0.07351513171317
 6 -4.05252662506251  2.47512053825383 -0.83216440544054
 6 -2.63912435053505  2.56351430903090 -0.84394714251425
 6  4.00909487498750 -0.54833533963396 -0.29163868026803
 6  2.61406845544554 -0.69538400990099 -0.18902385498550
 6 -2.08834738493849  3.84871945454545 -1.36646579397940
 6 -1.88752583808381  1.38681142554255 -0.60368638503850
 6  1.76112465746575  0.34826638813881 -0.40387894979498
 6  2.13224654575458 -2.10234302160216  0.09514188208821
 6 -0.47118937783778  1.45683700500050 -0.57161052085209
 6  0.30500533133313  0.34576624442444 -0.42636589738974
 1 -10.92667940944094  1.47594938023802 -0.07900974617462
 1 -12.46911038413841 -1.68600861456146  2.37563545824582
 1 -11.10393806340634 -2.19182837783778  1.29277255985599
 1 -12.72432606620662 -3.02076118341834 -0.00852599049905
 1 -9.77483288458846 -0.21065939033903  2.53596222012201
 1 -10.77604777137714  1.34787786478648  2.69630435233523
 1 -11.35053264556456  0.13150656965697  3.64856903470347
 1 -13.81584278607861  0.64740074237424  0.82170864116412
 1 -13.62838860946095  0.44294590199020  2.39697369936994
 1 -13.05632431783178  1.91109473127313  1.41330181348135
 1  12.49496686338634  2.26394134363436  0.17439528272827
 1  13.08016244334433  1.82110614951495  1.89006660786079
 1 -12.59108258685869 -1.59486628312831 -2.19780397109711
 1  13.54119370417042 -0.59490923672367  1.18664900080008
 1 -9.38061042674267 -1.23286814581458  0.10879843984398
 1  13.63294843894389 -1.09743278257826 -1.28434359035904
 1  13.12469888738874  0.55149372727273 -1.52174209800980
 1  9.21796849444945  2.20983103490349  1.54129937733773
 1  10.59973183478348  2.83291589398940  0.28122503800380
 1  10.75851952525252  2.84683965566557  2.19658580958096
 1  11.77161000230023 -0.54894214281428  2.73595001640164
 1  10.18906387698770 -0.24930747174717  2.69089221732173
 1  11.50757165626563  0.99111690849085  3.53672861586159
 1 -10.34603710171017  0.14643455415542 -2.71639903560356
 1 -11.54240329662966  1.53398939743974 -2.64990205550555
 1 -12.02314015911591 -0.26009476077608 -3.27802556015602
 1 -14.72242551585159 -2.27704665726573 -0.26699490329033
 1  8.53297236523652  0.53635386058606  0.36489913611361
 1 -8.72840800970097  1.77204885768577 -0.24417973837384
 1  11.05912164666467 -2.33320481648165 -2.00741359285929
 1  10.06865973237324 -1.12893899559956 -2.33908984298430
 1  11.67103639733973 -0.86933002310231 -3.26639258735874
 1  15.00962014231423  1.37001510131013  0.72000996989699
 1  9.37831760806081 -2.44539762146215 -0.01991843434343
 1 -5.68035249624962 -1.39606675737574 -0.04471707490749
 1 -6.88461735983598 -1.28221019421942  1.11247349974998
 1 -7.28942517771777 -1.70849929812981 -0.68692690749075
 1 -6.72223450995100  2.20729952505251 -0.63890709240924
 1  6.14489803880388 -3.78399182178218  1.03705340104010
 1  6.77692503770377 -3.89012420022002 -0.83182277347735
 1  8.21700159755976 -3.94513069766977  0.61598856615662
 1  6.49192761966197 -0.10256749614962 -0.30325244714471
 1 -4.14310654225423  0.54338400360036  0.00363430583058
 1  4.77822142564256 -2.42352160516052  0.14348668786879
 1 -4.71277732343234  3.49609759155916 -1.15792544804480
 1  4.44964504070407  0.47458479737974 -0.52155137253725
 1 -1.28010776897690  3.67521896859686 -2.19450772267227
 1 -1.49906274467447  4.27304446174618 -0.56647860766077
 1 -2.93314280238024  4.49652206770677 -1.69417771147115
 1 -2.43906278667867  0.51433805930593 -0.14178890889089
 1  2.16237527962796  1.25520951015102 -0.82133914901490
 1  2.36994552225223 -2.43870027242724  1.03901227972797
 1  1.12647771907191 -2.24501379247925 -0.09717100220022
 1  2.53262601200120 -2.79899768696870 -0.68332257525753
 1 -0.04141825692569  2.44505434513451 -0.90536752825283
 1 -0.09493238923892 -0.62564273407341 -0.46519717471747

