%nproc=4
%Mem=4GB
# td=(NStates=1) CAM-B3LYP/6-31G(d,p) 

TD

0 1
 8 -14.03474935013501 -2.21097947964796  0.36903715901590
 8  14.89558139493949  0.94043162976298 -0.14503390749075
 6 -11.82452531213121  0.06473254815482  1.28529334933493
 6 -11.10812777527753  0.37952072307231 -0.07060334753475
 6 -11.92386786738674 -1.54304878927893  1.43642148344834
 6 -12.64376777027703 -2.20296136093609  0.20501465236524
 6 -11.67977326622662 -0.38747622592259 -1.25479096899690
 6  11.09773310391039  1.01120276277628  1.05936621632163
 6 -11.09959143234324  0.64281602040204  2.43016006670667
 6 -13.20674683708371  0.66765241214121  1.10962203900390
 6  12.64284146464646  1.45557498399840  0.69789717591759
 6 -12.32105309120912 -1.60223809160916 -1.23686645534553
 6  13.55587720862086  0.34690236283628  0.30418773767377
 6  10.74731420572057 -0.00972038223822  0.05993957905791
 6 -9.60288905280528  0.07541469326933 -0.01705169756976
 6  13.03942191979198 -0.25534275367537 -1.06190177647765
 6  11.50254334313431 -0.60789583488349 -0.92045710451045
 6  10.25983286888689  2.40198951095110  1.07144985838584
 6  11.07751858435843  0.43360253565357  2.44128468976898
 6 -11.32141663916392  0.21266290779078 -2.53483574177418
 6 -8.68988508880888  1.03430841324132 -0.14907853035304
 6  9.22206713601360 -0.40824860066007  0.09956003980398
 6  11.10635058055806 -1.44068703550355 -2.12128173287329
 6 -7.20641196409641  0.64499174097410 -0.08370045934593
 6  8.83093955035504 -1.70737053455346 -0.03672881388139
 6 -6.83405482698270 -0.82442119901990  0.11031391999200
 6  7.48298678617862 -2.14181705370537 -0.07079814211421
 6 -6.28672844884488  1.68974254875488 -0.18106996359636
 6  7.26610980518052 -3.56740046224622  0.27436765496550
 6  6.36991426042604 -1.30527081578158 -0.12965530793079
 6 -4.85284925862586  1.45229876907691 -0.35637655105511
 6  5.02340318621862 -1.54309215211521 -0.03985176537654
 6 -3.98696006840684  2.59355238143814 -0.56164735373537
 6 -2.53439387748775  2.68249620722072 -0.55436818461846
 6  3.98951291679168 -0.66667717381738 -0.08009752615262
 6  2.60912796139614 -0.88358282978298  0.00475552295230
 6 -1.88085663586359  4.02546712931293 -0.86594574197420
 6 -1.79565665116512  1.49369211361136 -0.39082509890989
 6  1.76014455945595  0.23525508700870 -0.24417297919792
 6  2.14678799989999 -2.33454624192419  0.11997436533653
 6 -0.45629788868887  1.36530785208521 -0.55786914671467
 6  0.40348517931793  0.25398706650665 -0.26841010181018
 1 -11.06052279377938  1.40032181748175 -0.29215106030603
 1 -12.42245571867187 -1.67763777747775  2.24076197089709
 1 -11.14359202880288 -2.11677087208721  1.85482876547655
 1 -11.97299093269327 -3.26888599589959  0.22303716581658
 1 -10.17502290359036  0.06152782838284  2.44518314221422
 1 -10.70003016961696  1.70067314431443  2.31580630253025
 1 -11.70639823212321  0.89726314531453  3.37200137793779
 1 -13.51920312211221  0.62683868616862  0.06306277657766
 1 -13.97271304190419  0.39225083248325  1.93302730473047
 1 -12.90973965936594  1.79388301010101  1.21300178347835
 1  12.58549591629163  2.17953290279028 -0.35124728152815
 1  12.92788721582158  2.08573261216122  1.64204180538054
 1 -12.61533501210121 -2.29285608210821 -2.09012320302030
 1  13.62950253505351 -0.38458820462046  0.91080141604160
 1 -9.13279564526453 -0.86103096209621  0.00904846484648
 1  13.61675681978198 -1.14655769506951 -1.13955911191119
 1  13.13382980048005  0.40632921082108 -1.83795371917192
 1  9.13005970357036  2.11012106390639  1.29948519591959
 1  10.41184304590459  2.79703230563056  0.03738065356536
 1  10.88956262956296  2.81874684638464  1.83398954995500
 1  11.81688452975298 -0.33583083168317  2.53767018841884
 1  9.90759573017302  0.12940039903990  2.59724285238524
 1  11.49466036513651  1.23058085488549  3.36929187218722
 1 -10.18762126012601  0.00860077077708 -2.78445584128413
 1 -11.57473652995300  1.26205220372037 -2.65091215651565
 1 -12.02431027612761 -0.17571632293229 -3.25401315891589
 1 -14.49289256255626 -2.58862781538154 -0.33926213001300
 1  8.59820888888889  0.36968719391939  0.30270291649165
 1 -8.75385055395540  2.26370802360236 -0.33493881428143
 1  11.39886562106211 -2.42661415741574 -1.93790664216422
 1  10.07580044644465 -1.53133923562356 -2.31838777277728
 1  11.48048734243424 -1.03493658375838 -3.04587053515352
 1  15.19241842214221  1.25398349814981  0.62790075897590
 1  9.66667644394439 -2.59947302900290 -0.22764920742074
 1 -5.60403486448645 -1.03693084378438 -0.01430403360336
 1 -7.13391228932893 -1.31281325452545  0.98680093249325
 1 -7.27838407360736 -1.61972042024202 -0.60594880968097
 1 -6.60263254975498  2.77215601070107 -0.24305750745074
 1  6.97714126312631 -3.82498592119212  1.20521021672167
 1  6.45079242444244 -4.46150133793379 -0.21902149334933
 1  8.12617251465146 -4.22161834643464  0.21173814111411
 1  6.66994542144214 -0.16306354575458 -0.34452657455746
 1 -4.55957818941894  0.63855352055206 -0.33511956955696
 1  4.80016361986199 -2.60825007800780 -0.02250991179118
 1 -4.56208225392539  3.55171315311531 -0.59625928142814
 1  4.59778985518552  0.23343068196820 -0.34727394479448
 1 -1.35454521272127  3.87121856855686 -1.82267053895390
 1 -1.18298113651365  4.12144930223022 -0.07713967376738
 1 -2.70951043914391  4.67109952545255 -0.59902819651965
 1 -2.35293417381738  0.47383400890089 -0.36783151315132
 1  2.45923496559656  1.26043003220322 -0.31055807090709
 1  2.88023655135514 -2.92495889828983  0.85074345284528
 1  1.11648671997200 -2.28448773987399  0.42447116201620
 1  2.19202195159516 -2.81900968816882 -0.98610285328533
 1  0.29542542744274  2.33999383908391 -0.75140213171317
 1 -0.14886778277828 -0.63996416621662 -0.18000865586559

