%nproc=4
%Mem=4GB
# td=(NStates=1) CAM-B3LYP/6-31G(d,p) 

TD

0 1
 8 -14.07056293149315 -1.93153153485349  0.63164341964196
 8  14.69805164196420  0.92423000960096  0.29470006590659
 6 -11.75880874047405  0.09049512441244  1.36784160416042
 6 -10.93060002250225  0.29002177317732  0.06074978777878
 6 -11.89700518111811 -1.42217670207021  1.57091493279328
 6 -12.70218361186119 -2.13239430423042  0.35395954685469
 6 -11.55765105400540 -0.42868034633463 -1.19068455835584
 6  10.94074740534053  0.86270791329133  1.25213549324933
 6 -10.78916038923892  0.67065880468047  2.44063111381138
 6 -12.99672583498350  0.79311495839584  1.29533060986099
 6  12.30568774927493  1.46294572107211  0.96251363756376
 6 -12.28664965086509 -1.49255712351235 -0.98337110581058
 6  13.37274889578958  0.51011868446845  0.48518583748375
 6  10.56849632393239 -0.01690110031003  0.03635722082208
 6 -9.45994475837584 -0.05085793399340  0.07813782138214
 6  12.82479045664566 -0.01480870027003 -0.96582216851685
 6  11.35666875567557 -0.29384442974297 -1.01227628642864
 6  10.04316120172017  2.15690500250025  1.38343105650565
 6  11.05773660616062  0.07786696209621  2.58754931623162
 6 -11.20710520802080  0.08124976647665 -2.53911616981698
 6 -8.41056715701570  0.82295727812781 -0.14097772027203
 6  9.15381031033103 -0.54337211301130  0.16679676347635
 6  10.95709565506551 -1.03359632643264 -2.21082068676868
 6 -7.03661498439844  0.55141238303830 -0.02973506280628
 6  8.84583103950395 -1.77894769226923 -0.12907804880488
 6 -6.65224664616462 -0.93073183008301  0.21491438003800
 6  7.45016350385038 -2.21262413441344 -0.14372543484348
 6 -6.15741551755175  1.54707828232823 -0.34170602720272
 6  7.21305449964996 -3.70434415661566 -0.02822260406041
 6  6.38550581958196 -1.33131342004200 -0.23586592899290
 6 -4.77014098779878  1.43412695189519 -0.45214612801280
 6  5.04083492939294 -1.58209605250525 -0.13876165636564
 6 -3.99044041644164  2.53296632283228 -0.82135332433243
 6 -2.56430686878688  2.66052401000100 -0.95747849564956
 6  4.01942590809081 -0.59133964006401 -0.31527104350435
 6  2.59209625822582 -0.77589206070607 -0.24827978057806
 6 -2.00836938713871  3.97661224382438 -1.23778292569257
 6 -1.70542762826283  1.46226897129713 -0.80765678207821
 6  1.84790333533353  0.24983654515452 -0.42505106700670
 6  2.10366368746875 -2.16968975627563  0.23494586248625
 6 -0.26335859475948  1.46890821212121 -0.88769212901290
 6  0.47706253705371  0.30509217701770 -0.43306656745675
 1 -11.01978872037204  1.31950373567357  0.09280743554355
 1 -12.38900237333733 -1.78978899259926  2.43461135583558
 1 -10.90728839843984 -1.72351154615462  1.72879616221622
 1 -12.42053568716872 -3.13277238453845  0.22326718881888
 1 -9.80107550885089  0.02401407700770  2.55389401330133
 1 -10.70799096569657  1.73912698969897  2.47071179307931
 1 -11.40245783808381  0.54808822782278  3.39756393419342
 1 -13.72575377717772  0.42207821012101  0.43831030133013
 1 -13.34773054365437  0.78343995139514  2.25491949394940
 1 -12.90539922532253  1.85236885868587  1.15448593189319
 1  12.37621498819882  2.29038398789879  0.07119496269627
 1  12.50223465056506  1.94240827972797  1.96098369956996
 1 -12.68259173777378 -2.03134993149315 -1.91732592329233
 1  13.32219180398040 -0.28713845964596  1.23336367226723
 1 -9.25325769146915 -1.05583044204420  0.16551411141114
 1  13.36155129922992 -0.80857389668967 -1.34828998499850
 1  13.19027544504450  0.63281185908591 -1.76834675847585
 1  9.07073377097710  1.76168622042204  1.51997724512451
 1  10.12976483808381  2.88310091249125  0.35404231973197
 1  10.35516919021902  2.67927289898990  2.40931708270827
 1  11.69417225852585 -0.83505075367537  2.45984240564056
 1  9.98682365296530 -0.48138067906791  2.62043517161716
 1  11.26587748684868  0.68726652345235  3.40859580258026
 1 -10.16101859985999  0.03825373607361 -2.67764516021602
 1 -11.51758081438144  1.16784278277828 -2.45716278157816
 1 -11.73297114221422 -0.42365111641164 -3.39623738133813
 1 -14.62923619691969 -2.31705065766577 -0.16752495629563
 1  8.33823289128913 -0.01996177097710  0.65812845904590
 1 -8.62831800070007  1.98341999479948 -0.30739606000600
 1  11.41036677117712 -2.16851834783478 -2.09865271677168
 1  9.87965083148315 -1.13635973767377 -2.27017295129513
 1  11.24395368906891 -0.54573766386639 -3.36665261336134
 1  15.19729891019102  0.99774787458746  1.25203317221722
 1  9.60040981728173 -2.55079816151615 -0.37482392489249
 1 -5.58201266226623 -1.27082423312331  0.48407580438044
 1 -7.08847774587459 -1.25694766796680  1.03052530493049
 1 -7.36246248144815 -1.64907335553555 -0.53423163796380
 1 -6.59244153065307  2.39721851695169 -0.65234843654365
 1  6.97079062806281 -3.95209863246325  0.96145584128413
 1  6.53111045624562 -3.85153034083408 -0.70660025122512
 1  8.09239913731373 -4.33783996859686 -0.44044707740774
 1  6.81323975087509 -0.26281352075208 -0.50010213211321
 1 -4.37752998459846  0.45472513771377 -0.29744580218022
 1  4.75183878737874 -2.75005425842584 -0.12578023882388
 1 -4.34371041674167  3.61306928872887 -1.15100475597560
 1  4.52999307550755  0.38076541544154 -0.46105532293229
 1 -1.41830158835884  3.90702214891489 -1.91150942284228
 1 -1.32644548294830  4.18131528882888 -0.39839179897990
 1 -2.81754124222422  4.75839825532553 -1.61859015271527
 1 -2.13294217461746  0.48278490399040 -0.22915764576458
 1  2.33816285838584  1.15230922012201 -1.02302931803180
 1  2.41968049574958 -2.42270867326733  1.22430080858086
 1  1.05969104040404 -2.33519281038104  0.25355407030703
 1  2.41267401680168 -3.00660844804480 -0.57263150615061
 1  0.04494037893789  2.47390723042304 -1.27701469296930
 1 -0.18848174417442 -0.49009917971797 -0.11065172017202

