%nproc=4
%Mem=4GB
# td=(NStates=1) CAM-B3LYP/6-31G(d,p) 

TD

0 1
 8 -14.20859673487349 -2.03656203790379  0.51853210851085
 8  14.95218705550555  0.71545913251325  0.22467306320632
 6 -11.72930579017902 -0.02709663476348  1.26761158115812
 6 -11.02728969146915  0.27698046904690  0.06925063786379
 6 -11.94639011961196 -1.62855734013401  1.33931177247725
 6 -12.86013940744074 -2.14827589238924  0.18110226112611
 6 -11.78110339923992 -0.33302078037804 -1.14708019791979
 6  11.14489782038204  0.97992963546355  0.95372565226523
 6 -10.91886335953595  0.34046578537854  2.61719877057706
 6 -13.07397355975598  0.78292393929393  1.35388646544654
 6  12.53353053355336  1.49454888138814  0.60990837703770
 6 -12.53184417031703 -1.37355522332233 -1.02053482218222
 6  13.56540816171617  0.32468014061406  0.33709102800280
 6  10.77038651295130 -0.10453986418642 -0.05745216011601
 6 -9.59999876377638 -0.14560740894089  0.09412942054205
 6  13.12532050965096 -0.31144836423642 -0.96312189848985
 6  11.69102219101910 -0.58375342064206 -0.85719077787779
 6  10.32671955755576  2.19423873587359  0.97629034243424
 6  11.09425025752575  0.35263443884388  2.33436399769977
 6 -11.43997849534954  0.42624426592659 -2.50307256545655
 6 -8.58392449274928  0.73174815721572 -0.15971959445945
 6  9.34323925322532 -0.38612638843884  0.02304238803880
 6  11.20883082858286 -1.50519348614861 -1.93215281998200
 6 -7.15197652055206  0.43464070587059 -0.29722181148115
 6  8.76785324172417 -1.63442323982398 -0.01092623362336
 6 -6.67261868336834 -1.00674943184318 -0.19094620602060
 6  7.37969645714571 -2.02655552755276  0.13373231093109
 6 -6.25522529852985  1.46122969746975 -0.39959181578158
 6  7.14135732993299 -3.56237996019602  0.44941515971597
 6  6.35317258625863 -1.12743303200320 -0.08846118851885
 6 -4.80347432113211  1.39486302550255 -0.33892480588059
 6  5.05381622752275 -1.43234107700770 -0.00176795699570
 6 -4.07091846424642  2.52831585778578 -0.69531072007201
 6 -2.67699813791379  2.67825578317832 -0.80265301310131
 6  4.06076004150415 -0.47014752085209 -0.14308382478248
 6  2.66402345094509 -0.67214168566857 -0.22765771837184
 6 -1.89095764596460  4.07597217981798 -0.96932608000800
 6 -1.81204829032903  1.59712245664566 -0.52423844024402
 6  1.76996554155416  0.48559012051205 -0.28400696259626
 6  2.16783010411041 -2.19271205850585 -0.08569620172017
 6 -0.38427068596860  1.50928224952495 -0.49811317111711
 6  0.31199603040304  0.37113878167817 -0.36829008980898
 1 -10.95138187968797  1.25994778007801 -0.18040988618862
 1 -12.50911438453845 -1.73758377207721  2.39032692739274
 1 -11.03328099769977 -2.31163035803580  1.52789607220722
 1 -12.36385001860186 -3.29487859515952 -0.11332647054706
 1 -10.16955235653565 -0.38403672807281  2.61241986588659
 1 -10.56619678627863  1.36301937893789  2.76979170107011
 1 -11.49945753805381  0.09811323032303  3.45935011281128
 1 -13.87860906270627  0.37825382768277  0.58444491479148
 1 -13.62048781938194  0.58113972137214  2.31207520952095
 1 -12.75189387478748  1.89987360916092  1.19149963326333
 1  12.37807517421742  2.05361031053105 -0.36567872467247
 1  12.87800222732273  2.09777381628163  1.42795039623962
 1 -13.03621710031003 -1.61832862936294 -1.90634482518252
 1  13.29404898969897 -0.49186893269327  0.98038837473747
 1 -9.14502686838684 -1.23316817581758  0.31229878987899
 1  13.72271741584158 -1.22032507180718 -1.01432658865887
 1  13.50339675717572  0.47702628052805 -1.64227415121512
 1  9.40276697429743  2.00452050385039  1.62111735913591
 1  10.14486634823482  2.79730233263326  0.03376029152915
 1  10.56696036933693  2.97346231793179  1.73640979197920
 1  11.65972881418142 -0.45900314891489  2.42648907030703
 1  10.08005297589759  0.17717517651765  2.58579170727073
 1  11.27917881698170  1.23079087588759  3.06886182918292
 1 -10.38588108610861  0.30253016371637 -2.47903529922992
 1 -11.85462451875188  1.31278727722772 -2.42558962426243
 1 -11.91612945804581 -0.00693944524452 -3.23843160076008
 1 -14.86448972227223 -2.12245119771977 -0.16137434123412
 1  8.59576864486449  0.59238946414641  0.09678232443244
 1 -8.84181935083508  1.76428808160816 -0.48496381678168
 1  11.70319605410541 -2.67776927292729 -1.90767361886189
 1  10.06255912231223 -1.52398850055005 -2.04232016601660
 1  11.42961225492549 -0.88668175827583 -3.10061600970097
 1  15.03252243254325  1.05082318211821  1.17824579347935
 1  9.45744552085208 -2.63909699139914 -0.00303674617462
 1 -5.48030249124912 -1.39789694039404 -0.55783838703870
 1 -6.69319821792179 -1.38914088728873  0.83211546394639
 1 -7.11607784298430 -1.53537198539854 -1.11171938673867
 1 -6.55469775627563  2.50128892399240 -0.44731793349335
 1  6.59401295029503 -3.67981140374037  1.36785648134814
 1  6.49953729892989 -4.02042723052305 -0.44077366856686
 1  8.15511540894089 -4.00620680528053  0.42320928822882
 1  6.82056048294830 -0.01452869226923 -0.11897401930193
 1 -4.41066329792979  0.40360002520252  0.01518546094609
 1  4.69067267076708 -2.50373962696270  0.17906024522452
 1 -4.50677672337234  3.45625360716072 -0.87942759825983
 1  4.31135121132113  0.48957629652965 -0.13374259165917
 1 -1.26024578277828  4.04040548724872 -1.76236450835083
 1 -1.53875671407141  4.49924708200820 -0.12601456125613
 1 -2.75720520862086  4.72842525802580 -1.20308860256026
 1 -2.22237111751175  0.56533315881588 -0.21276600660066
 1  2.22154119621962  1.47974196339634 -0.38138515361536
 1  2.29199772747275 -2.46997339973997  0.92413079157916
 1  1.06483155445545 -2.17013630473047 -0.22374365946595
 1  2.53051580098010 -2.81640942814281 -1.01242548554856
 1  0.18622450735073  2.30647048674867 -0.39911690319032
 1 -0.29191208720872 -0.55426559635964 -0.21708236323632

