%nproc=4
%Mem=4GB
# td=(NStates=1) CAM-B3LYP/6-31G(d,p) 

TD

0 1
 8 -14.32217809300930 -1.89339772147215  0.60043029832983
 8  14.79285112191219  1.17817540414041  0.12310290619062
 6 -11.80306316591659  0.08574464936494  1.26470129012901
 6 -11.01790875337534  0.35390816181618 -0.02332862006201
 6 -12.22856833743374 -1.37683216761676  1.49087692899290
 6 -12.92203559705971 -1.93977504230423  0.36324047494749
 6 -11.67229251815182 -0.45772325062506 -1.18963445334533
 6  11.17795112571257  0.91670331283128  1.18922920262026
 6 -10.92270374357436  0.49652139093909  2.49210626132613
 6 -12.98463462586259  1.03643929082908  1.24941601840184
 6  12.54399157965797  1.56252567906791  0.81904929112911
 6 -12.45166615251525 -1.44860272807281 -0.98694146284628
 6  13.53591521242124  0.53836150875087  0.41991931083108
 6  10.70373984828483 -0.06541595179518  0.15423900900090
 6 -9.49505826972697 -0.17829067726773  0.10483049064906
 6  13.05336331393139 -0.14162138153815 -0.85948153445345
 6  11.61148423722372 -0.51146619191919 -0.77426248504850
 6  10.24301118671867  2.09355866786679  1.32023473687369
 6  11.24718555105511  0.15532470787079  2.55283584488449
 6 -11.18269276677668 -0.06176453495350 -2.58062032023202
 6 -8.52486858715872  0.75922090449045 -0.13634725722572
 6  9.25842077137714 -0.54763253905391  0.18513859765977
 6  11.22370231573157 -1.21912487928793 -2.02563216791679
 6 -7.03308463136314  0.49403664546455 -0.04030611991199
 6  8.80966742314232 -1.75047484498450 -0.09758489948995
 6 -6.73448486998700 -0.95907466436644  0.29987287588759
 6  7.43583207070707 -2.15846871887189 -0.12122318461846
 6 -6.18403817981798  1.46086966146615 -0.30324218081808
 6  7.17493068726873 -3.63577729992999  0.03747396559656
 6  6.38333560256026 -1.28275856455646 -0.34695703810381
 6 -4.74715868956896  1.41220475967597 -0.40035094849485
 6  5.03125397129713 -1.50331817471747 -0.38638641884188
 6 -3.99985135753575  2.51115414161416 -0.67760894989499
 6 -2.63964440254025  2.58476643424342 -0.80910365816582
 6  4.06708067356736 -0.50531103720372 -0.36772628902890
 6  2.62307935653565 -0.76173064456446 -0.25544049664967
 6 -1.97021557175718  3.93112769536954 -1.13979312671267
 6 -1.77839492499250  1.44576732113211 -0.66121213761376
 6  1.74922346734674  0.30242180368037 -0.42196075797580
 6  2.03582690379038 -2.13317610491049 -0.02328996109611
 6 -0.43712597149715  1.38141946324632 -0.67654101390139
 6  0.40883571437144  0.21530319811981 -0.53561682248225
 1 -11.01658840034003  1.48155994129413 -0.10769261446145
 1 -12.95810928402840 -1.44330434413441  2.37247514221422
 1 -11.30816848644865 -2.04363355835584  1.68019130173017
 1 -12.92299593319332 -3.01985109240924  0.35445030713071
 1 -9.88385378667867  0.23966564216422  2.51170979487949
 1 -10.82298246484648  1.56764984198420  2.35817053895390
 1 -11.58738633093309  0.14538795779578  3.46380055785579
 1 -13.54812601440144  0.70127612991299  0.34519098939894
 1 -13.63395916651665  0.70272187958796  1.93765776777678
 1 -12.58073675907591  2.09928355015502  1.21746222952295
 1  12.54231159785979  2.35725067456746 -0.03996615341534
 1  12.97276170327033  2.24356839573957  1.79697729892989
 1 -13.05064854345435 -2.13024982148215 -1.88791298199820
 1  13.84586417121712 -0.33808355415542  1.13826416231623
 1 -9.21553391909191 -1.29963482248225  0.42268982898290
 1  13.64782992709271 -1.07248028732873 -1.25232038803880
 1  13.28872529002900  0.64545312321232 -1.46730665446545
 1  9.23358005560556  1.49449950175017  1.69289453685369
 1  9.88196005760576  2.59831243364336  0.40509742524252
 1  10.46137981128113  2.59754472617262  2.20638678967897
 1  11.80711355265527 -0.89770701930193  2.59159558095810
 1  10.20722569316932 -0.03563610461046  2.90400352845285
 1  11.72168306740674  0.72693048984899  3.46541148414841
 1 -10.06028852685269 -0.04622471177118 -2.85000239593959
 1 -11.44512356865687  0.98483448194819 -2.65774283958396
 1 -11.56670451555155 -0.47141589288929 -3.30678843644364
 1 -14.69999327262726 -2.04233318591859 -0.25668387218722
 1  8.71849091709171  0.28806903210321  0.30791343754376
 1 -8.66146131503150  1.81074272707271 -0.22558787918792
 1  11.64895062956296 -2.28895039103910 -2.16617946944694
 1  10.17692055845585 -1.16710281198120 -2.36023195719572
 1  11.75841513521352 -0.69186227632763 -2.95397134523452
 1  15.13259243954395  1.73427152695269  0.86390435933593
 1  9.42935271157116 -2.77383046474647 -0.34279072157216
 1 -5.70046450745075 -1.09315646634664  0.14129152595260
 1 -6.74804370247025 -1.14636660986099  1.43759601200120
 1 -7.47508374357436 -1.82075052325232 -0.25656387118712
 1 -6.68565085158516  2.44307310241024 -0.60355355705570
 1  6.43189673867387 -3.81959538213821  0.90399009470947
 1  6.86117346254625 -4.02879806760676 -1.18884847604761
 1  8.16101599899990 -4.29430561516152  0.23273024032403
 1  6.64716314321432 -0.32594983438344 -0.43702582448245
 1 -4.18249048064806  0.34857452265227 -0.01653771137114
 1  4.74259786328633 -2.55525477847785 -0.18282594339434
 1 -4.64412045774577  3.47792577437744 -0.75874553005301
 1  4.38682875907591  0.62379971887189 -0.58929814721472
 1 -1.28062782098210  3.82849429612961 -2.03603187508751
 1 -1.33934677307731  4.17883504080408 -0.07212917271727
 1 -2.73335282338234  4.77519993549355 -1.27164545824582
 1 -2.26323520392039  0.58464509000900 -0.64207893789379
 1  2.21426046814681  1.34244823402340 -0.37021403650365
 1  2.91248977667767 -2.65772217461746  0.61712009050905
 1  0.89959503080308 -2.23166245734573  0.43046176107611
 1  2.18667141654165 -2.89333712091209 -0.95234947794779
 1  0.16729261416142  2.56469630933093 -0.90194718621862
 1 -0.17343023902390 -0.70452062186219 -0.31250190519052

