%nproc=4
%Mem=4GB
# td=(NStates=1) CAM-B3LYP/6-31G(d,p) 

TD

0 1
 8 -13.96267214241424 -2.00918930063006  0.49598985428543
 8  14.70761259805981  0.97407499409941  0.01595219111911
 6 -11.77087994759476  0.04862093699370  1.22438725872587
 6 -11.01856881938194  0.36914968596860 -0.05477176437644
 6 -12.00027550815082 -1.40123460786079  1.40794863616362
 6 -12.65687908140814 -2.18910997579758  0.29794394529453
 6 -11.58001329022902 -0.45113259155916 -1.24726021592159
 6  11.15487881848185  1.00218186068607  1.07450773047305
 6 -11.02557403060306  0.67789952875288  2.50813786448645
 6 -13.08207436983698  0.86347199409941  1.05994707150715
 6  12.46981416191619  1.63423284978498  0.71955934213421
 6 -12.36952793869387 -1.50639850765076 -1.12412518121812
 6  13.35705732663266  0.46599427202720  0.33444076297630
 6  10.64595406970697  0.04745533533353 -0.06615303020302
 6 -9.55406417031703 -0.05085793399340  0.00052005960596
 6  12.93004098169817 -0.17897511691169 -0.99658524482448
 6  11.48670175897590 -0.44714976027603 -0.97644270307031
 6  10.07606449204921  2.12426173817382  1.14909762316232
 6  11.00361119361936  0.27335651105110  2.36123668496850
 6 -11.39410390789079  0.33743538503850 -2.50370262846285
 6 -8.51286738703871  0.76240122252225 -0.19487310981098
 6  9.23482841214121 -0.36091386718672  0.07618770257026
 6  11.16953689918992 -1.40757372417242 -2.13496310101010
 6 -7.11909323222322  0.49247648944894 -0.22661475077508
 6  8.84174063046305 -1.66070586808681 -0.05965110611061
 6 -6.73871529302930 -0.89103786068607  0.12777566616662
 6  7.51956044354435 -2.08838171017102 -0.00322138443844
 6 -6.19072884888489  1.59632320682068 -0.35086694329433
 6  7.21041423562356 -3.59430315251525  0.26332655085509
 6  6.40106737573757 -1.27437772647265 -0.15071741414141
 6 -4.76217019071907  1.44483802300230 -0.43400431383138
 6  5.05080592649265 -1.56638448134814 -0.13090087028703
 6 -3.98585995839584  2.55736876307631 -0.50179136813681
 6 -2.53138357645765  2.65175313291329 -0.54840758855886
 6  3.99080304580458 -0.69601010711071 -0.22251176757676
 6  2.68377542614261 -0.90767523902390 -0.15703065566557
 6 -1.76068461866187  3.84590917351735 -0.93814296169617
 6 -1.74922200770077  1.45382812721272 -0.41246726312631
 6  1.77955650065007  0.14156571807181 -0.22962152405241
 6  2.09047236833683 -2.34196698399840  0.18020038793879
 6 -0.35411767066707  1.46421774307431 -0.40405376517652
 6  0.40167499829983  0.18990065786579 -0.29633289408941
 1 -11.03224996649665  1.30422220752075 -0.05778762396240
 1 -12.57374084718472 -1.70405041874188  2.29067696239624
 1 -11.12997066666667 -1.82713190819082  1.56279956255626
 1 -12.46460009360936 -3.25546465376538  0.25318018011801
 1 -9.95652105340534  0.50827250285029  2.46900552445245
 1 -11.17369753635364  1.78327140414041  2.50365508740874
 1 -11.57804539683968  0.44805822482248  3.31923610141014
 1 -13.64228543034303  0.38106410871087  0.20737720802080
 1 -13.80975674627463  0.62001360876088  1.91382538453845
 1 -13.17933661906191  1.92615623742374  0.86566705000500
 1  12.72806017271727  2.46285123462346  0.02222006520652
 1  12.85041946904690  2.01318535743574  1.77070467166717
 1 -12.86502998159816 -1.89850664716472 -2.02375656635664
 1  13.47690727552755 -0.23659340514051  1.01771210711071
 1 -9.36317868356836 -1.14872973197320  0.11373893389339
 1  13.60316546064606 -0.95825886518652 -1.09393454945495
 1  13.10185660316032  0.60289886778678 -1.74210413421342
 1  9.12599929752975  1.80048009980998  1.65669091649165
 1  9.75669753135313  2.59780238263826  0.11227814331433
 1  10.58918259155915  2.95631060276028  1.64826097709771
 1  11.67318015931593 -0.52785003360336  2.56557297869787
 1  9.92465743634363 -0.04530707170717  2.47529065716572
 1  10.97348824792479  1.01709950675068  3.05683062606261
 1 -10.24450694869487  0.27210712141214 -2.71550894659466
 1 -11.64442349864986  1.54562056055606 -2.33845091039104
 1 -12.05331317641764  0.08534978367837 -3.41987974557456
 1 -14.32867614091409 -2.35775472807281 -0.33288149194920
 1  8.36630569856986  0.22187241244124  0.14966761296130
 1 -8.84580974987499  1.86200785358536 -0.27383270367037
 1  11.76651238573857 -2.33923541954195 -1.94510736223622
 1  10.05521838823882 -1.88700480218022 -2.15423135713571
 1  11.71894118781878 -0.93438652875288 -3.22794874297430
 1  15.24856403670367  1.04339243904390  0.89208717761776
 1  9.66485626192619 -2.41314439613961 -0.23140958345835
 1 -5.74872933393339 -1.11248839953995  0.13991138793879
 1 -7.16895579367937 -1.23696566976698  1.14556680908091
 1 -7.26403263846385 -1.77654610281028 -0.40423863866387
 1 -6.42000428692869  2.60044883998400 -0.16738994069407
 1  6.95232878187819 -3.74192761536154  1.21202089778978
 1  6.57098444364436 -4.22826801460146 -0.38819841104110
 1  8.30780067746775 -4.05072125672567  0.26091305860586
 1  6.75187361426143 -0.20407764716472 -0.18917103900390
 1 -4.30440267186719  0.51823148834883 -0.68386444404440
 1  4.90951455495550 -2.84516376937694 -0.39263692449245
 1 -4.78775482118212  3.43741172297230 -0.42241189668967
 1  4.45890596679668  0.28207554645465 -0.37108632603260
 1 -1.50833059125913  3.83419486618662 -1.96509478137814
 1 -1.23146598499850  4.21918907620762 -0.05700766056606
 1 -2.53319280738074  4.76592900840084 -1.11372966666667
 1 -2.06762564296430  0.33651027652765 -0.18949367936794
 1  2.17216625872587  1.17784177337734 -0.40233724882488
 1  2.68717724542454 -2.75276167856786  1.11013939243924
 1  1.13380845214521 -2.37264655575558  0.41150986588659
 1  2.40405315471547 -3.00290807800780 -0.64547879087909
 1  0.15292117701770  2.63908374807481 -0.40871786328633
 1 -0.21222411841184 -0.65753592339234 -0.05613626862686

