%nproc=4
%Mem=4GB
# td=(NStates=1) CAM-B3LYP/6-31G(d,p) 

TD

0 1
 8 -14.12100797599760 -1.89626800850085  0.59111936723672
 8  14.76994883168317  0.95841342794279  0.14388498439844
 6 -11.74287714731473  0.06111218611861  1.16944176417642
 6 -10.99730669316932  0.27013978497850 -0.19352563976398
 6 -11.91577705830583 -1.46317080148015  1.36251409270927
 6 -12.71023441694170 -2.14218528332833  0.28204235513551
 6 -11.58835412431243 -0.49563704200420 -1.27894338423842
 6  11.08342167276728  0.90754239673967  1.06839711941194
 6 -10.94490596379638  0.69848158695870  2.35247229792979
 6 -13.13341950435044  0.73663931083108  1.14768584538454
 6  12.48167534803480  1.43977340384038  0.72055944214421
 6 -12.30342132803280 -1.51102897069707 -1.04299706840684
 6  13.54651627252725  0.34885255785579  0.27375469436944
 6  10.64223369766977  0.05898648844884 -0.12687910281028
 6 -9.53331209510951 -0.07852070027003 -0.06679667206721
 6  12.96724470207021 -0.24023124252425 -0.97749333563356
 6  11.49813290209021 -0.53782882818282 -0.99041410021002
 6  10.18840572617262  2.14810412241224  1.16119883328333
 6  11.12053288578858  0.32766194159416  2.43753431473147
 6 -11.27125162266227  0.00161180268027 -2.66315857405741
 6 -8.43095919621962  0.80366534893489 -0.15953957645765
 6  9.31912684198420 -0.49468724452445  0.05585566936694
 6  10.96808675417542 -1.33267623442344 -2.22915251995200
 6 -7.06997832073207  0.51138838063806 -0.06287837713771
 6  8.73250970737074 -1.66123592109211 -0.18911405240524
 6 -6.71586300780078 -0.91863061996200  0.16187907650765
 6  7.39456794429443 -1.98977184918492  0.03133207090709
 6 -6.17453722972297  1.50879445394539 -0.19455131173117
 6  7.05420861506151 -3.55007873007301  0.38762898109811
 6  6.37759502850285 -1.13671396009601 -0.16889923232323
 6 -4.79992396609661  1.54417795699570 -0.30112102550255
 6  5.07237808370837 -1.54759260216022 -0.04831261146115
 6 -3.95928730113011  2.66508953515352 -0.53170435943594
 6 -2.57816825492549  2.63726168376838 -0.62978572637264
 6  4.04338830433043 -0.62434294039404 -0.33503301970197
 6  2.58494554315432 -0.83282775427543 -0.27399235183518
 6 -1.89834838503850  3.99991457405741 -0.69238838623862
 6 -1.76125321082108  1.44535728012801 -0.38918493489349
 6  1.74178272327233  0.23762532403240 -0.28344690659066
 6  2.14676799789979 -2.19603239053905  0.12259462736274
 6 -0.34483674257426  1.36460778207821 -0.51192455225523
 6  0.33429826062606  0.17217888568857 -0.25756901770177
 1 -11.02278902040204  1.47594938023802 -0.32476432163216
 1 -12.42460593369337 -1.49443945764576  2.43978187288729
 1 -10.79637730733073 -1.88259745474547  1.38820210281028
 1 -12.51096473007301 -3.23260236753675  0.28331319341934
 1 -9.96730213151315  0.17626930253025  2.44007263116312
 1 -10.73982414901490  1.68882195919592  2.32938766066607
 1 -11.49219681198120  0.54740815981598  3.46337051485149
 1 -13.53328453025303  0.47570357265727  0.18201467176718
 1 -13.98475424602460  0.30850245764576  1.91856585858586
 1 -13.17321600700070  1.92607622942294  1.24715519881988
 1  12.42863022972297  2.27885283478348  0.00800864406441
 1  12.83898832593259  2.09316335523552  1.70246784798480
 1 -12.80833431203120 -2.00785758225823 -1.78129231993199
 1  13.61074065886589 -0.32378212401240  1.14100443634363
 1 -9.45916828252825 -1.17819267826783 -0.00650309030903
 1  13.57146229032903 -1.20033307260726 -1.21269642564256
 1  13.29497591509151  0.47804638253825 -1.94159408320832
 1  9.21860855845584  2.05581563336334  1.86053130053005
 1  9.71129299089909  2.58794139653965  0.10859777527753
 1  10.72734640794079  3.11563653535354  1.50537668866887
 1  11.69022186348635 -0.62178942754275  2.50970739213921
 1  10.05599056965696 -0.12879542054205  2.73866699479948
 1  11.30537143624362  1.10017781458146  3.06342128512851
 1 -10.16618911691169  0.24908481918192 -2.91541893759376
 1 -11.73303235953595  1.06257225572557 -2.82705977127713
 1 -11.56040388548855 -0.74160291159116 -3.41314907250725
 1 -14.57507078037804 -2.02662161476148 -0.32907111091109
 1  8.59102817081708  0.39858008320832  0.48117076327633
 1 -8.41523669256926  1.92241389418942 -0.14339966036604
 1  11.27876361086109 -2.26812830883088 -2.13837668916892
 1  10.02565543194319 -1.24867096879688 -2.24297023102310
 1  11.57946724042404 -1.23498658875888 -3.27793374147415
 1  14.99078825912591  1.55659375917592  0.79875784468447
 1  9.46431620792079 -2.47545062676268 -0.46551299379938
 1 -5.76696115711571 -0.78141529222922  0.50197759455946
 1 -7.46395529362936 -1.28955092829283  1.00857310971097
 1 -6.76194242944294 -1.45236368456846 -0.79361757655766
 1 -6.66048833533353  2.55739453455346 -0.64704790649065
 1  6.57633118211821 -3.68285170777078  1.47760745644564
 1  6.20400774597460 -3.93443863166317 -0.42391198239824
 1  8.03538343574357 -4.11226741134113  0.45245221252125
 1  6.49134756165617 -0.17862510191019 -0.43941606350635
 1 -4.26123835543554  0.62391205640564  0.07107104950495
 1  4.93774737823782 -2.66463571657166  0.27463980318032
 1 -4.37167321302130  3.61711969376938 -0.81834148964896
 1  4.27518759495950  0.37636497539754 -0.90501971937194
 1 -1.50553031123112  4.27352879957996 -1.82330060196020
 1 -1.05511835023502  4.10597775507551 -0.01642360216022
 1 -2.55062455055506  4.81103351885189 -0.65899419311931
 1 -2.27939682008201  0.57993461896190 -0.11205593559356
 1  2.21435047714772  1.25995998519852 -0.52062907800780
 1  2.28511703940394 -2.35511191359136  1.17841622012201
 1  1.12009708100810 -2.31436072717272 -0.11088237333733
 1  2.72843559295930 -2.89442722992299 -0.37534177717772
 1  0.13242912781278  2.18162800250025 -0.75776276777678
 1 -0.00787368336834 -0.67402757255726  0.16527587258726

