%nproc=4
%Mem=4GB
# td=(NStates=1) CAM-B3LYP/6-31G(d,p) 

TD

0 1
 8 -14.08010388558856 -2.06573495519552  0.48951920722072
 8  14.77446928372837  1.12086967356736  0.12602319821982
 6 -11.76468932853285  0.14509058395840  1.34261908190819
 6 -11.00938790129013  0.39768253925393 -0.04230051725172
 6 -11.99829531013101 -1.43078756315632  1.50093793509351
 6 -12.75070846434643 -2.05957702250225  0.26916106700670
 6 -11.64473976287629 -0.37173465176518 -1.13101859175918
 6  11.07838116871687  1.05221686418642  1.06322660236024
 6 -10.88546001920192  0.64306604540454  2.56523357405741
 6 -13.18965512791279  0.88265391229123  1.34635571237124
 6  12.49329651015102  1.58497792429243  0.78203558975898
 6 -12.40098108400840 -1.44083195099510 -1.06760952965297
 6  13.46173779467947  0.57511518411841  0.44526184508451
 6  10.73633310761076 -0.00301971217122  0.04943852895290
 6 -9.48744750865086 -0.02152500070007  0.01448145574557
 6  13.03975195279528 -0.24077129652965 -0.79130471677168
 6  11.57744083288329 -0.58543358865887 -0.82165722452245
 6  10.09324621022102  2.26231554355436  1.14291700510051
 6  11.05085591809181  0.31717089248925  2.46609717101710
 6 -11.40037453495350  0.22767440894089 -2.53373563176318
 6 -8.57936403670367  0.85579056145615 -0.19033265576558
 6  9.36244117341734 -0.44511228702870  0.10846092989299
 6  11.21027097259726 -1.44349731653165 -2.06737634233423
 6 -7.15170649354936  0.51791903370337 -0.10103219251925
 6  8.79446590299030 -1.70913071057106 -0.10732587358736
 6 -6.71235265676568 -0.94683344024402  0.05263815241524
 6  7.38951743924392 -2.11173404540454 -0.11050211251125
 6 -6.19698947494749  1.52791636613661 -0.22656451305131
 6  7.13385657985799 -3.60524424662466  0.19025924412441
 6  6.36904417341734 -1.27528781748175 -0.30508285068507
 6 -4.75039901360136  1.42255579477948 -0.44385529892989
 6  5.05575642154215 -1.64372221512151 -0.15606338653865
 6 -3.99892126452645  2.51239426562656 -0.69834102310231
 6 -2.54653509160916  2.60742870047005 -0.65878862666267
 6  4.04130809630963 -0.64865537163716 -0.44915443184318
 6  2.60857790639064 -0.93984845634563 -0.25091004360436
 6 -1.90319887008701  3.94395897849785 -0.87704685208521
 6 -1.78882596809681  1.41114385878588 -0.52332834923492
 6  1.79353789878988  0.10316187768777 -0.44554311621162
 6  2.12354567566757 -2.36590937823782 -0.07952558465847
 6 -0.32586484538454  1.41744306560656 -0.55358871867187
 6  0.38912374317432  0.23797546534653 -0.46488974977498
 1 -11.26294303580358  1.43305509080908 -0.30871271647165
 1 -12.58135160826082 -1.59406942064206  2.30518841354135
 1 -11.14993266286629 -1.88842803780378  1.59563284588459
 1 -12.51137477107711 -3.12345145244524  0.17794265636564
 1 -9.73516891819182  0.01487316291629  2.54882350625063
 1 -10.75526569316932  1.72321539853985  2.41393611551155
 1 -11.45319291159116  0.47611103010301  3.59546372417242
 1 -13.36691789358936  0.91372737503750  0.21907837813781
 1 -13.73622939353936  0.43238484588459  2.00489449144915
 1 -13.17167585298530  1.96980060186019  1.63610409370937
 1  12.34807217391739  2.35126007550755  0.03372121532153
 1  12.80777520462046  2.09303334223422  1.76865446664666
 1 -12.61537501610161 -1.91805860236024 -1.98803299399940
 1  13.54451403620362  0.03021327552755  1.40656099199920
 1 -9.22760512621262 -1.03547840684068  0.19383694369437
 1  13.73239838393839 -1.03994703400340 -0.87499265526553
 1  13.19127554505451  0.46857543544354 -1.68157808160816
 1  9.25720241784178  2.00576062786279  1.67523277067707
 1  9.83790565216522  2.61548415081508  0.25664257975798
 1  10.53155682898290  2.95757072877288  1.64760091109111
 1  11.90897373867387 -0.41601885048505  2.70327674907491
 1  10.09707467806781 -0.05415795679568  2.53190631873187
 1  11.12131303040304  0.97876567336734  3.35759070207021
 1 -10.25680817881788  0.26925683638364 -2.75150254595460
 1 -11.76072512881288  1.16002200070007 -2.82969003430343
 1 -11.78039588468847 -0.55888463976398 -3.26326408400840
 1 -14.50909418271827 -2.47734668726873 -0.24734293809381
 1  8.63881294929493  0.32792301750175  0.32349499569957
 1 -8.73394856375638  2.03484513731373 -0.43431875227523
 1  11.37595332983298 -2.41668316431643 -1.71805465696570
 1  10.17250011641164 -1.36857295899590 -2.22319825382538
 1  12.10777007070707 -1.19945303540354 -2.65052100020002
 1  15.03464264456446  1.75909400920092  0.94151212011201
 1  9.51493126942694 -2.53782686438644 -0.45349179167917
 1 -5.65116957795780 -1.14684183488349  0.12393979077908
 1 -7.06427532563256 -1.39108108130813  0.99474172657266
 1 -7.17442367756776 -1.69850829902990 -0.70171838663866
 1 -6.70137242374237  2.48653744884488 -0.26497969966997
 1  6.55333888288829 -3.58424184678468  1.11783147884789
 1  6.45679302450245 -4.10364555235524 -0.55509510071007
 1  8.04265416281628 -4.23301948654866  0.15757272457246
 1  6.62640106700670 -0.27700493989399 -0.60891301320132
 1 -4.41421365296530  0.25752541774177 -0.36215227282728
 1  4.66879048254825 -2.63857311031103  0.21753409260926
 1 -4.50565661136114  3.49230721252125 -0.90806046154615
 1  4.19693977017702  0.30782812171217 -0.75344456185619
 1 -0.90376013421342  4.01226267296730 -1.58255652755276
 1 -1.57203004140414  4.37645480278028  0.19151719191919
 1 -2.78120760886089  4.53548596409641 -1.35382367606761
 1 -2.16761564196420  0.29824645014501 -0.58187291729173
 1  2.28826786888689  1.09372336153615 -0.29521653675368
 1  2.41282981068107 -2.70416681908191  0.94072245074507
 1  1.01021609290929 -2.49255854695470 -0.10983226832683
 1  2.61800454985499 -3.17473526072607 -0.72099634263426
 1  0.19313519841984  2.21748158785879 -0.84774176567657
 1 -0.01759465546555 -0.66682685248525 -0.13690434543454

