%nproc=4
%Mem=4GB
# td=(NStates=1) CAM-B3LYP/6-31G(d,p) 

TD

0 1
 8 -14.02108798399840 -2.15204358605861  0.60108036333633
 8  14.74209604640464  0.96203378997900  0.23809440534053
 6 -11.77768062766277 -0.01155508060806  1.41939675967597
 6 -11.00332729522952  0.38304107510751  0.00471418421842
 6 -11.82942842344234 -1.59953443784378  1.49687752905291
 6 -12.65862925642564 -2.05367643244324  0.32886703760376
 6 -11.63709899879988 -0.28464594289429 -1.17978346824682
 6  11.07729105970597  0.99274091659166  1.13373365306531
 6 -10.82702417561756  0.51524326312631  2.54818186888689
 6 -13.05079124152415  0.72725837273727  1.49576065286529
 6  12.53964114461446  1.52639206570657  0.84494188038804
 6 -12.40282126802680 -1.41688955675568 -1.02947571627163
 6  13.49608122902290  0.41477915051505  0.53734105300530
 6  10.63687316161616 -0.06850626082608  0.03393697879788
 6 -9.56827559145915  0.00867801960196 -0.00273026542654
 6  12.99302728032803 -0.18773599299930 -0.79656524282428
 6  11.48829191799180 -0.49187423272327 -0.86544160296030
 6  10.20299718531853  2.22758207020702  1.09965267866787
 6  11.00111094359436  0.26080525592559  2.46025658695870
 6 -11.47942243974397  0.48905054655466 -2.50708296649665
 6 -8.56699279957996  0.84749973237324 -0.27572119461946
 6  9.27568249754975 -0.41810958675868 -0.05566548274827
 6  11.30962090759076 -1.41591455825583 -2.01617122182218
 6 -7.08909023192319  0.42994023582358 -0.19937202650265
 6  8.78123457985799 -1.74319411691169 -0.16908204920492
 6 -6.67328875037504 -0.96548530543054  0.06187907650765
 6  7.48593708120812 -2.04585745774577 -0.02261332363236
 6 -6.26773654965497  1.47118069256926 -0.46927878447845
 6  7.24474766896690 -3.54838856105611  0.30614083228323
 6  6.42395966496650 -1.22726301500150 -0.24350669306931
 6 -4.84557853155316  1.50198373757376 -0.49752066546655
 6  4.97605845174517 -1.53679152205221 -0.15375315551555
 6 -4.01733310571057  2.61644467066707 -0.80339152815282
 6 -2.57402784088409  2.58267622522252 -0.73640638843884
 6  3.94595856135614 -0.68594910101010 -0.38475799219922
 6  2.57569461806181 -0.81947641914191 -0.25276022862286
 6 -1.95686423662366  3.82057664026403 -1.14859400680068
 6 -1.74055114061406  1.49333207760776 -0.51437745414541
 6  1.74112265726573  0.30136169766977 -0.37583614551455
 6  2.05815913701370 -2.23015580288029 -0.05579321142114
 6 -0.42145440434043  1.45546686798680 -0.56076943674367
 6  0.38163299409941  0.33820548834883 -0.34765802660266
 1 -11.12920966246624  1.57583936923692 -0.28792063726373
 1 -12.23468694179418 -1.87256727042704  2.51583947864787
 1 -10.87753542314231 -2.04201339633963  1.45502878547855
 1 -12.26496012961296 -3.14241334863486  0.01925678777878
 1 -9.91699710101010 -0.01997032143214  2.56395501940194
 1 -10.73290345694569  1.76796987398740  2.50799552145215
 1 -11.23783137543754  0.40478389738974  3.50519469726973
 1 -13.80039124092409  0.62609861216122  0.56444291459146
 1 -13.54571034163416  0.35069667706771  2.36248025002500
 1 -12.95920460586058  1.85655927772777  1.45462594589459
 1  12.79553692039204  2.06199114861486 -0.05883804060406
 1  12.73475790289029  2.15466950585059  1.77139474067407
 1 -12.88974245284528 -1.83409020552055 -1.97570176087609
 1  13.41800138493849 -0.37144689048905  1.11851218711871
 1 -9.61621398709871 -0.97254211321132 -0.21423386338634
 1  13.67217236133613 -1.04002704200420 -0.98639379537954
 1  13.36762317981798  0.41039961786179 -1.56357628142814
 1  9.36586328392839  2.03122317411741  1.57854310171017
 1  9.96691855345535  2.44826742914291  0.05347226272627
 1  10.58124179747975  3.00087505920592  1.63410956195620
 1  11.62987582888289 -0.68438568716872  2.52226864826483
 1  9.92527749834983 -0.28536107710771  2.57787091519152
 1  11.04434533363336  0.85599339613961  3.47914285728573
 1 -10.54649714771477  0.60937084778478 -2.86859425512551
 1 -11.89029808610861  1.62049804830483 -2.29571663696370
 1 -12.13659150425042 -0.14287303860386 -3.23742149974997
 1 -14.56959023232323 -2.72371132373237 -0.08077628142814
 1  8.40326939493949  0.17032725792579  0.36380902710271
 1 -8.80044521342134  1.92012366516652 -0.37865318571857
 1  11.65142087658766 -2.35149664566457 -1.75428828032803
 1  10.18015088148815 -1.46008210991099 -2.23775970997100
 1  11.51238053175318 -1.07808089818982 -2.88022397049705
 1  14.91276045634563  1.43795189498950  1.09643761266127
 1  9.50117989428943 -2.43081616331633 -0.34491093359336
 1 -5.55715017601760 -1.14104125482548  0.36085348214821
 1 -7.15570446854685 -1.08456042924292  0.96302855525553
 1 -6.98081431663166 -1.73299174737474 -0.70346856165616
 1 -6.64156644314432  2.44324311941194 -0.60852405410541
 1  6.67053060206020 -3.93137656025603  1.16074577027703
 1  6.52459980518052 -3.88331351915192 -0.59623921512151
 1  8.29610950835083 -4.20434661926193  0.38713568086809
 1  6.71842026892689 -0.31982922232223 -0.54294641654165
 1 -4.11288351995200  0.56695636083608 -0.07239329692969
 1  4.67069067256726 -2.55756500950095  0.17433977317732
 1 -4.55648169386939  3.62306028782878 -0.94262391789179
 1  4.30739081528153  0.34643198209821 -0.79297851525153
 1 -1.25221497969797  3.52677412411241 -2.10761903380338
 1 -1.19376221462146  4.28566572387239 -0.31958391819182
 1 -2.48703819191919  4.74599701520152 -1.40843913761376
 1 -2.22440132053205  0.40865749124912 -0.42090682068207
 1  2.16199524162416  1.33095708490849 -0.69734674977498
 1  2.52683121082108 -2.97159356175618  0.75311368986899
 1  1.01645671697170 -2.09386867796780  0.05633434833483
 1  2.12441519091909 -2.85196298349835 -1.16376061906191
 1  0.16177206210621  2.40713055275528 -0.79396638813881
 1 -0.18352124812481 -0.60267043684368 -0.31136179117912

