%nproc=4
%Mem=4GB
# td=(NStates=1) CAM-B3LYP/6-31G(d,p) 

TD

0 1
 8 -14.04169004420442 -2.06811519321932  0.55670592589259
 8  14.80452228902890  0.80929851645165  0.25807640354035
 6 -11.69797265686569  0.07688376327633  1.27003182318232
 6 -10.97077403990399  0.34690746174617 -0.07942422962296
 6 -11.91647712831283 -1.50759524392439  1.43596143744374
 6 -12.67583097659766 -2.12187325212521  0.23118726962696
 6 -11.57117240614061 -0.43170064836484 -1.20917640754075
 6  10.99936326692669  0.98849049154915  1.04389466916692
 6 -10.81848332153215  0.57916965576558  2.49031608230823
 6 -13.07291345374538  0.76312195909591  1.33498457525753
 6  12.51190837133713  1.50922034853485  0.82243963016302
 6 -12.29902088798880 -1.56479434723472 -0.96495926462646
 6  13.42741436233623  0.41057873047305  0.51541886078608
 6  10.59833930823082 -0.15135454565457 -0.01082749764976
 6 -9.52187095099510 -0.02957580578058 -0.06349634203420
 6  13.00438841644164 -0.15293251265127 -0.86717230353035
 6  11.50736382518252 -0.51550659595960 -0.92056711551155
 6  10.10637752335234  2.22107141914191  1.03245595899590
 6  10.94937577007701  0.37463663906391  2.42530309160916
 6 -11.27434193169317  0.05571721322132 -2.58763102130213
 6 -8.50284638493850  0.81410639303930 -0.23875749824982
 6  9.25083001230123 -0.42267004280428  0.01782186598660
 6  11.09257920342034 -1.40777374417442 -2.08551815651565
 6 -7.08362968586859  0.46988423022302 -0.16512860216022
 6  8.71409786618662 -1.68523832133213 -0.16417155815582
 6 -6.64199562106211 -0.83167192409241  0.31895478407841
 6  7.42020050755075 -2.10372324432443 -0.15105616791679
 6 -6.18930870687069  1.49734330883088 -0.40150200680068
 6  7.16114930913091 -3.62202592479248  0.11182140034003
 6  6.33534080308031 -1.28342863156316 -0.17604994739474
 6 -4.79373334703470  1.51807534673467 -0.36663757715772
 6  4.95401624752475 -1.52801064396440 -0.16554433463346
 6 -3.99428080048005  2.67366039223922 -0.66175736473647
 6 -2.59004944304430  2.75451340894089 -0.67876062386239
 6  3.94871883738374 -0.60569107520752 -0.21952146854685
 6  2.55060210881088 -0.85800027152715 -0.14798975157516
 6 -1.86392494269427  3.96176075867587 -1.01147029442944
 6 -1.77391447694769  1.64160690509051 -0.49665568196820
 6  1.73336188118812  0.25429699119912 -0.29002756465647
 6  2.02780610171017 -2.21994478177818 -0.07080471257126
 6 -0.36858911781178  1.59683100440044 -0.47224058385839
 6  0.34282911371137  0.31826349414942 -0.39563282408241
 1 -10.94973171467147  1.48630041534153 -0.20838268346835
 1 -12.35815928902890 -1.61508152185219  2.54330222492249
 1 -10.92247991759176 -2.11023021802180  1.57074035663566
 1 -12.38781241484148 -3.17265637293729  0.56754161626163
 1 -10.01682708400840 -0.09713803820382  2.78085670957096
 1 -10.45975614221422  1.60575365236524  2.43849857175718
 1 -11.38616620892089  0.16440985998600  3.38236241404140
 1 -13.37656885868587  0.49965596789679  0.43957042734273
 1 -13.62365813641364  0.60727233463346  2.29515351735174
 1 -12.86271495689569  1.93047666946695  1.13829431273127
 1  12.21787915461546  2.23530848034803  0.06016385958596
 1  12.66362078917892  2.01402544144414  1.79605720692069
 1 -12.70878435703570 -2.03606040254025 -1.76395058575858
 1  13.62430201500150 -0.27702744854485  1.19037937383738
 1 -9.01787415311531 -1.10943580258026  0.01828938893889
 1  13.70899604370437 -0.95782882218222 -1.11314647064706
 1  13.23935035253525  0.61475005290529 -1.66604652845285
 1  9.15681237883788  1.96758681048105  1.42344759215922
 1  10.17027888948895  2.68264086648665 -0.05550863536354
 1  10.40909458275828  3.00048502020202  1.63370952195220
 1  11.57264010531053 -0.41337858645865  2.46556297769777
 1  9.94182915351535 -0.10701324232423  2.47309043714371
 1  10.95641654075408  0.95225302210221  3.39344428742874
 1 -10.05102760076008 -0.04931502080208 -2.62945034073407
 1 -11.35694475077508  1.23770976947695 -2.53254031933193
 1 -12.01127897299730 -0.37136588788879 -3.35293305090509
 1 -14.34778805210521 -2.71316026862686 -0.34359256305630
 1  8.55013408140814  0.31259148434843  0.30313295949595
 1 -8.65244041294130  1.90622227502750 -0.63050837123712
 1  11.25533126762676 -2.55984748074807 -1.83782663416342
 1  10.02676554295430 -1.16990309200920 -2.40357629162916
 1  11.71224051775178 -1.28058114821482 -2.91605755385539
 1  15.33928310861086  1.17151525132513  1.16867483638364
 1  9.32533230953096 -2.63718680038004 -0.22480892339234
 1 -5.45231969296930 -0.90678782948295  0.32308970577058
 1 -6.88884778287829 -0.99223119631963  1.34238649104911
 1 -6.78219445464546 -1.61194964316432 -0.30081829662966
 1 -6.68307059355936  2.41426022112211 -0.79319252095210
 1  6.78738228722872 -3.67714113671367  1.06730642634263
 1  6.42560990619062 -3.90318550635064 -0.70965055625563
 1  7.98210810821082 -4.49838602320232  0.01494846214621
 1  6.59720814771477 -0.32859009840984 -0.34896701860186
 1 -4.24458669026903  0.70445011021102 -0.03350940854085
 1  4.73411701520152 -2.54084333733373 -0.08555621642164
 1 -4.43609965566557  3.44051203300330 -0.92236189168917
 1  4.32358243444344  0.42883022192219 -0.58680789818982
 1 -1.26103586178618  3.94539598629863 -1.75710398229823
 1 -1.35737857625763  4.30169732703270 -0.16168812861286
 1 -2.51009049714972  4.78997141264126 -1.25434372807281
 1 -2.17648652905291  0.56450307580758 -0.36767149714972
 1  2.23398244034404  1.40065405460546 -0.32114913001300
 1  2.66559508720872 -2.67277367976798  0.78594697319732
 1  0.94308938023802 -2.26876616771677  0.48599731463146
 1  2.08399114851485 -2.75962374957496 -1.13141738473847
 1  0.39632551745175  2.48064790449045 -0.65853284478448
 1 -0.21108400440044 -0.75242541234123 -0.16200685568557

