%nproc=4
%Mem=4GB
# td=(NStates=1) CAM-B3LYP/6-31G(d,p) 

TD

0 1
 8 -14.20242611781178 -1.80329871157116  0.75093534883488
 8  14.77691952875288  0.99451703830383  0.30915151105111
 6 -11.63330619021902  0.05815189008901  1.33761858185819
 6 -10.87002396489649  0.26181895289529 -0.04997128432843
 6 -11.98265374597460 -1.45642012641264  1.43474131543154
 6 -12.82187558105811 -2.05277634243424  0.33323747464746
 6 -11.71061635053505 -0.36150362866287 -1.25019050895090
 6  10.99674300490049  1.03137477997800  0.99466974667467
 6 -10.87515898909891  0.46933867266727  2.55190224092409
 6 -12.91665782818282  0.79253490039004  1.19576065286529
 6  12.46088326882688  1.52187161366137  0.77772515871587
 6 -12.57705869176918 -1.42340020782078 -1.03797656635664
 6  13.43722534343434  0.45522319491949  0.41321864076408
 6  10.61902137643764 -0.01073048324832 -0.05206162106211
 6 -9.52562132603260 -0.18904175237524 -0.11234122652265
 6  13.03704168176818 -0.24257147654765 -0.79358494479448
 6  11.62871596039604 -0.60855590089009 -0.87332239103910
 6  10.06438332393239  2.25256456845685  0.86582929632963
 6  10.87407824032403  0.42835201060106  2.38920948224823
 6 -11.40526502400240  0.21546318781878 -2.70972323052305
 6 -8.37134323462346  0.70337531993199 -0.23554717721772
 6  9.25593052235224 -0.37487526332633 -0.14424434063406
 6  11.25652559805981 -1.61244421122112 -1.86069567426743
 6 -7.04898622152215  0.35457269906991 -0.30744283358336
 6  8.79508596499650 -1.66199599709971 -0.19688482948295
 6 -6.44059548104810 -1.04055281218122 -0.07938504990499
 6  7.43316180368037 -2.11275414741474 -0.05814687698770
 6 -6.16255603160316  1.44736831133113 -0.37537939453945
 6  7.28079127332733 -3.62152587478748  0.10300051825183
 6  6.34351162016202 -1.26593688238824 -0.24569691209121
 6 -4.86242021572157  1.39750328952895 -0.37210812421242
 6  5.08990983688369 -1.64630247314732 -0.18845662586259
 6 -4.01923329572957  2.60646367256726 -0.48008919791979
 6 -2.62310274837484  2.70008796639664 -0.64098684648465
 6  4.05448941444144 -0.63101360746075 -0.30716023242324
 6  2.62794984358436 -0.75009948144814 -0.21298625122512
 6 -2.00369892009201  3.97987256985699 -0.73362250965097
 6 -1.80176726222622  1.54279702410241 -0.48668468486849
 6  1.78851739673967  0.28326988848885 -0.19297785968597
 6  2.07777109820982 -2.11438422572257  0.07800016791679
 6 -0.37085934483448  1.49112043334333 -0.46016937673767
 6  0.36992182298230  0.36043771157116 -0.31072433323332
 1 -10.92088883038304  1.36465825112511 -0.30400224542454
 1 -12.26894036713671 -1.77460747444744  2.59907780248025
 1 -10.91739940954095 -1.97395659065907  1.33198648124812
 1 -12.50293392699270 -3.09044815211521  0.21515637773777
 1 -10.10503590489049 -0.17898622302230  2.72422104600460
 1 -10.64767493409341  1.56185926292629  2.59190391229123
 1 -11.39336692899290  0.24240765976598  3.44129830763076
 1 -13.53866506830683  0.74508051035104  0.27776424672467
 1 -13.53261903250325  0.38965057245725  2.07081108310831
 1 -12.97813649904990  1.95433905570557  1.22769325262526
 1  12.38784615131513  2.25478042754275 -0.09920207700770
 1  12.67246167326733  2.16071010991099  1.77086468766877
 1 -13.10686416501650 -1.58393519001900 -1.94044823552355
 1  13.41593117791779 -0.33355310111011  1.12820315621562
 1 -9.43817618331833 -1.32084694369437  0.09925748574858
 1  13.64681982608261 -1.25934897419742 -1.14191934793479
 1  13.15212162966297  0.58350692859286 -1.57178710251025
 1  9.09569626722672  1.85750580238024  1.30515576297630
 1  9.95333719531953  2.62810541294129 -0.16572965746575
 1  10.57789146244624  2.98564353605361  1.50061621262126
 1  11.45778862016202 -0.43689093769377  2.65538195959596
 1  9.77193216381638  0.00555801480148  2.51835496359636
 1  11.13469436853685  1.13123091989199  3.14664960796080
 1 -10.30384288228823  0.14833474417442 -3.02415981168117
 1 -11.58358741504150  1.42671867036704 -2.66568363366337
 1 -11.83909175427543 -0.29444819611961 -3.53375113271327
 1 -14.94083735703570 -1.93115206780678  0.14580637683768
 1  8.46689575757576  0.46676690189019  0.04328697489749
 1 -8.68790395929593  1.73509516231623 -0.31473679407941
 1  11.25430116461646 -2.74756625262526 -1.20755360686069
 1  10.34625749214922 -1.51911801350135 -2.45498143214321
 1  11.99203849754976 -1.91572466256626 -2.76516246434643
 1  14.94194337463746  1.62496059585959  1.13791176007601
 1  9.52419219551955 -2.44053713541354 -0.38986542904290
 1 -5.17351181218122 -0.95434258495850 -0.15499810301030
 1 -6.80990988908891 -1.39386135933593  0.73955620802080
 1 -6.96513274847485 -1.80185863406341 -0.76040425522552
 1 -6.56816910341034  2.55898469356936 -0.45614881658166
 1  6.75278882788279 -3.92900632323232  0.96525622132213
 1  6.66045339053905 -4.08918410621062 -0.78545813701370
 1  8.23004290169017 -4.14205038963896  0.29795676297630
 1  6.78874730163016 -0.33608084748475 -0.05939806170617
 1 -4.32311454305430  0.42796246144615 -0.44703076067607
 1  4.75877948144814 -2.62795204820482 -0.21905956675668
 1 -4.70032607830783  3.51102908470847 -0.52121177667767
 1  4.37505758195820  0.39704704360436 -0.36843606100610
 1 -1.28053781198120  3.99359080578058 -1.75899417131713
 1 -1.55430826922692  4.35828298559856  0.14286232643264
 1 -2.82545203330333  4.58543095859586 -0.81677997169717
 1 -2.19524840524052  0.58056468196820  0.02057732773277
 1  2.26008505060506  1.34757874707471 -0.32606962206221
 1  2.36273480118012 -2.31757816021602  1.17883626212621
 1  1.11108617991799 -2.31080037113711  0.03696241114111
 1  2.46348909830983 -3.06637442464246 -0.40534477747775
 1  0.13287917281728  2.56175601530153 -0.78022501400140
 1 -0.19069196519652 -0.56061623142314 -0.32082273727373

