%nproc=4
%Mem=4GB
# td=(NStates=1) CAM-B3LYP/6-31G(d,p) 

TD

0 1
 8 -14.13205908110811 -2.02437081878188  0.29215947124712
 8  14.85924776157616  0.65139272587259  0.04583517941794
 6 -11.70206306590659 -0.09116304140414  1.25242006200620
 6 -10.96586354885489  0.30082285328533 -0.06634292149215
 6 -11.93990947154716 -1.57783226762676  1.32776061736174
 6 -12.67648104160416 -2.11903296809681  0.12142629352935
 6 -11.59994528342834 -0.41835931423142 -1.22627811771177
 6  11.16705003560356  0.99193083558356  0.93257353705371
 6 -10.92160363356336  0.41204294309431  2.49272632333233
 6 -13.04634079647965  0.63628927582758  1.08957003380338
 6  12.46155333583358  1.51189061556156  0.51733912011201
 6 -12.31388237413741 -1.55951381918192 -1.13696646534653
 6  13.45563718461846  0.31872954555456  0.29617693659366
 6  10.65338481278128 -0.06651606180618 -0.05465188008801
 6 -9.51053981788179 -0.03561640984098  0.07126713431343
 6  12.97382536013601 -0.42493971337134 -1.01819740604060
 6  11.45389847864787 -0.63892893819382 -0.96960201900190
 6  10.06397328292829  2.16810612261226  0.86303901730173
 6  11.11868270077008  0.48270744614461  2.43683424472447
 6 -11.28523302080208  0.35869751125112 -2.56579883808381
 6 -8.47361346164617  0.77649263166317 -0.12773639613961
 6  9.20650557985799 -0.37585536133613  0.10788087188719
 6  10.96333627912791 -1.51065403220322 -2.14024362906291
 6 -7.08562988588859  0.43878111991199 -0.16320841014101
 6  8.72936939333933 -1.63172296979698 -0.23008814981498
 6 -6.68788020952095 -0.95729448634864  0.02117500610061
 6  7.38708719621962 -2.11680455245525 -0.06872793509351
 6 -6.22170194619462  1.52662623712371 -0.35798765536554
 6  7.18001119531953 -3.57941166336634  0.33519373757376
 6  6.37339460846085 -1.24361465016502 -0.21121346374637
 6 -4.80980495419542  1.51105464466447 -0.32514342774277
 6  5.06994784068407 -1.44377222012201  0.01770399019902
 6 -3.94668604100410  2.54345737193719 -0.49809099809981
 6 -2.55772621072107  2.67893585118512 -0.48644139193919
 6  4.05201916741674 -0.51947245334533 -0.11213072947295
 6  2.66276332493249 -0.61079555105511  0.08980402780278
 6 -1.89195774597460  3.98274285688569 -0.78690783818382
 6 -1.79599668516852  1.49178192259226 -0.47106312271227
 6  1.81053959895990  0.45897745924592 -0.22536109800980
 6  2.01129445054505 -1.94301708900890  0.59590195809581
 6 -0.32663492239224  1.54518583988399 -0.40167352715272
 6  0.44467929872987  0.48269993779378 -0.15543880468047
 1 -11.08035477697770  1.37070885618562 -0.43578542374237
 1 -12.73345681878188 -1.65396541024102  2.12382027672767
 1 -10.96874454405441 -1.92052124712471  1.58627190979098
 1 -12.55374900850085 -3.29493860116012  0.26430129222922
 1 -10.09017441874187 -0.16073439783978  2.66856548044804
 1 -10.63634380098010  1.42579565656566  2.41780650255025
 1 -11.53007059935994  0.27185060406041  3.47630180798080
 1 -13.76478768056806  0.28757475977598  0.28034450475048
 1 -13.67380315091509  0.33752535993599  2.03307730973097
 1 -12.78007669306931  1.66986060786079  1.05109559285929
 1  12.45551291799180  1.99575452495250 -0.51263342014201
 1  12.78392281938194  2.20419445834583  1.22473007420742
 1 -12.63939741834183 -1.92508930543054 -2.02349654035404
 1  13.13303288808881 -0.39120886668667  1.19740007590759
 1 -9.28724108980898 -1.07384224322432  0.34822238223822
 1  13.35753089718972 -1.49709274857486 -1.03193834983498
 1  13.25720213771377  0.16313489138914 -1.91197112091209
 1  8.99537623522352  1.71366141794179  1.16159140654065
 1  10.06822868446845  2.59575217761776 -0.19312239673967
 1  10.44289796309631  3.01233620532053  1.52967911891189
 1  11.78271111241124 -0.41327857645765  2.61837825922592
 1  10.05957092769277  0.20154761376138  2.69277240534053
 1  11.38739963906391  1.52188998579858  2.95529047204720
 1 -10.13860635863586  0.28324823552355 -2.73915131083108
 1 -11.65985504180418  1.43008900740074 -2.65319238453845
 1 -11.74794263936394 -0.08574732603260 -3.36610436803680
 1 -14.57004027732773 -2.05911486408641 -0.61328953275328
 1  8.50311937993799  0.38480870607061  0.47624027022702
 1 -8.76349151805181  1.86195784858486 -0.27960328072807
 1  11.21431716621662 -2.47657915391539 -2.09048189968997
 1  9.97200006640664 -1.26580268196820 -2.19672560656066
 1  11.45755504920492 -1.00858394849485 -3.16883283138314
 1  14.97912709300930  1.30577867766777  0.83985195409541
 1  9.32858263456346 -2.40224330603060 -0.38320476297630
 1 -5.48118257925793 -1.39721687238724 -0.29406200940094
 1 -6.84784368246825 -1.29332130533053  1.05454770717072
 1 -7.41783801900190 -1.48342679087909 -0.64540275507551
 1 -6.42387467396740  2.58038683378338 -0.64451765346535
 1  6.89219276827683 -3.59443286588659  1.45617531323132
 1  6.54860220542054 -3.83353854165417 -0.43815340654065
 1  8.22296219361936 -4.12678886348635  0.23482044934493
 1  6.67367579447945 -0.12676991639164 -0.20947306920692
 1 -4.22772500410041  0.64522418761876 -0.03056911451145
 1  4.69649325282528 -2.45414466746675  0.19314165336534
 1 -4.54071011671167  3.37796577837784 -0.83537319281928
 1  4.29512958915892  0.46853419231923 -0.56607582498250
 1 -1.41666142434243  4.30213165986599 -1.76075434733473
 1 -0.89824266266627  4.22965012231223 -0.09925188498850
 1 -2.68924841294129  4.85633804930493 -0.57851614531453
 1 -2.33334221462146  0.56425305080508 -0.48319304930493
 1  2.11134017611761  1.51384537373737 -0.49926694179418
 1  2.23425195289529 -2.22340874327433  1.66135451395140
 1  0.96711178247825 -1.72271156225623  0.62830154505451
 1  2.45845859525953 -2.76323411061106  0.09609536653665
 1  0.24864074897490  2.42954279397940 -0.80787777927793
 1 -0.06388928492849 -0.59581975177518  0.10298964396440

