%nproc=4
%Mem=4GB
# td=(NStates=1) CAM-B3LYP/6-31G(d,p) 

TD

0 1
 8 -14.17654352955295 -1.96913529522952  0.65864611991199
 8  14.69635147194719  0.91080866746675  0.13810440634063
 6 -11.61116397599760  0.02745882078208  1.28306312631263
 6 -10.89897686018602  0.27134990599060 -0.02500878807881
 6 -11.98603408400840 -1.51315579998000  1.46400424172417
 6 -12.76525991949195 -2.13289435423542  0.37478162906291
 6 -11.65921121002100 -0.44424190249025 -1.07866335623562
 6  11.12336566716672  0.80898254075408  1.14509478917892
 6 -10.80224169736974  0.44171591039104  2.53053010371037
 6 -12.87593375577558  0.74607025392539  1.38557963476348
 6  12.50679786028603  1.44903432993299  0.86643402960296
 6 -12.41634262016202 -1.50317818561856 -1.04228699739974
 6  13.50882250315031  0.47018469106911  0.48349566846685
 6  10.69716919121912 -0.11985139533953  0.13872745784578
 6 -9.51340010391039 -0.18573142134213 -0.02783277567757
 6  12.95646362396240 -0.17969518891889 -0.96370195649565
 6  11.49165225402540 -0.51093613891389 -0.86468152695270
 6  10.21033791939194  2.13094240624062  1.25123783718372
 6  11.17130796329633  0.15000417581758  2.43804436573657
 6 -11.34519901740174  0.16800844234423 -2.45319757795780
 6 -8.49492559285929  0.68307328972897 -0.19559318181818
 6  9.33677860716072 -0.43677145294529  0.03805388918892
 6  11.13895384088409 -1.35435840264026 -2.17651725642564
 6 -7.01073239613961  0.46652389418942 -0.27283937323732
 6  8.77495395179518 -1.68406820432043 -0.07023216421642
 6 -6.56244766626663 -0.90781953885389 -0.11726883828383
 6  7.29549803730373 -2.09273214521452 -0.12748381068107
 6 -6.23111288728873  1.58592216671667 -0.50231208780878
 6  6.94207740194019 -3.52069579177918  0.02449266746675
 6  6.30827809680968 -1.07706799549955 -0.06942928532853
 6 -4.72462643634363  1.53126666586659 -0.58440935433543
 6  5.00692153805381 -1.39916775967597 -0.10771855205521
 6 -3.98465983838384  2.64266729292929 -0.69548073707371
 6 -2.54868530663066  2.73272122972297 -0.90238298609861
 6  3.95923988948895 -0.49385989208921 -0.17091660806081
 6  2.57582463106311 -0.78019249074907 -0.12921787438744
 6 -1.87509605980598  4.05303988658866 -1.03624277167717
 6 -1.74742182768277  1.56988973337334 -0.73839985638564
 6  1.64373291829183  0.29450101160116 -0.19983854575458
 6  2.03511683278328 -2.09557234453445  0.33115548344834
 6 -0.34439669856986  1.50544186548655 -0.66165952575258
 6  0.22027685848585  0.39946161396140 -0.38081134193419
 1 -10.87729447094709  1.39654143944394 -0.21658350355035
 1 -12.26318979207921 -1.73178319201920  2.55902379707971
 1 -11.00967863746375 -2.03433262826283  1.34525780838084
 1 -12.61597523112311 -3.32274138143814  0.40369523162316
 1 -9.99908530983098 -0.29896822122212  2.60571919581958
 1 -10.25059522612261  1.45458853585359  2.44403912581258
 1 -11.50575816811681  0.34948836783678  3.19012319011901
 1 -13.45409661146115  0.39545554785479  0.40174664496450
 1 -13.60934670527053  0.47212882028203  2.38956295829583
 1 -12.72240092549255  1.76886050785079  1.26179666296630
 1  12.62477984468447  2.12813776327633  0.12962080528053
 1  12.95801022812281  1.87216125502550  1.80340794199420
 1 -13.04734821342134 -1.89167596409641 -1.81406559725973
 1  13.69501908670867 -0.48408815461546  1.09948028392839
 1 -9.53728609430943 -1.25731059005901  0.11767932793279
 1  13.73934907900790 -1.08820185948595 -1.30878603460346
 1  13.10965738323832  0.68289686758676 -1.69238916271627
 1  9.13988068566857  1.80135018681868  1.32107735513551
 1  10.15655751735174  2.59494209660966  0.19933684918492
 1  10.39212288558856  2.74578955065507  2.06699285028503
 1  11.63180602190219 -0.85068231683168  2.58121454285429
 1  10.05266023662366 -0.10833337433743  2.69534266236624
 1  11.45532643174317  0.94926272307231  3.14770971397140
 1 -10.35862836083608  0.15768567926793 -2.86023341904190
 1 -11.79391844814482  1.14965096359636 -2.39455652095210
 1 -11.97247509260926 -0.46800555185519 -3.24213197079708
 1 -14.77232050535054 -2.43044199679968 -0.02799100290029
 1  8.70336940494049  0.27273749894989  0.04634728092809
 1 -8.82706787568757  1.77089874267427 -0.34465978637864
 1  11.30237597209721 -2.49333082908291 -1.94955780728073
 1  10.05280814721472 -1.13240934263426 -2.55069100310031
 1  12.11026031973197 -1.32415550565056 -2.97297324542454
 1  15.10398957925793  1.11286938673867  1.06622459135914
 1  9.39070884718472 -2.42158524022402 -0.22672911541154
 1 -5.61699616061606 -1.04588173887389 -0.14283688688869
 1 -6.85858475657566 -1.33408538173817  0.85271752415242
 1 -7.02380861606161 -1.75583403160316 -0.66645486028603
 1 -6.69369165566557  2.54744353945395 -0.74463766546655
 1  6.58661221022102 -4.01305472807281  0.99628932463246
 1  6.24994233943394 -3.75367055485549 -0.82699229042904
 1  7.98009790719072 -4.06802298689869 -0.24593762646265
 1  6.51037946484648 -0.08915615501550 -0.42435455735573
 1 -4.15488772037204  0.59020868606861 -0.29098515611561
 1  4.59579318281828 -2.40817007000700  0.23702604180418
 1 -4.57035308100810  3.59049703150315 -0.79212886838684
 1  4.22568264446445  0.55900323922392 -0.41432064946495
 1 -1.13649340754075  3.80068151485149 -1.80953922582258
 1 -1.20460329872987  4.36697385468547 -0.21333329312931
 1 -2.46522601070107  4.91297371287129 -1.27610590429043
 1 -2.33227210761076  0.60557718321832 -0.47067179717972
 1  2.37379642174217  1.10520450965096 -0.43477049214921
 1  2.49910843854385 -2.50013641604160  1.34630300880088
 1  0.95845091639164 -2.32915220632063  0.32692140704070
 1  2.53362611201120 -2.91830961816182 -0.33040728372837
 1  0.25100098499850  2.38384822452245 -0.92210920242024
 1 -0.29908280428043 -0.47414758455846 -0.37211786678668

