%nproc=4
%Mem=4GB
# td=(NStates=1) CAM-B3LYP/6-31G(d,p) 

TD

0 1
 8 -13.97163303850385 -2.16070445214521  0.87001725702570
 8  14.69327116391639  0.91228881548155  0.52510310621062
 6 -11.69753261286129  0.16897297219722  1.26349116911691
 6 -10.96450341284129  0.31309408040804 -0.05996228342834
 6 -11.80238571917192 -1.29977446184618  1.62389023032303
 6 -12.44402779627963 -2.20596166096610  0.54196834773477
 6 -11.53665895479548 -0.55486296459646 -1.16062155205521
 6  10.90314364496450  0.96825846834683  1.19265954565457
 6 -10.82892436563656  0.85479721852185  2.39204625532553
 6 -12.98034419681968  0.92677832473247  1.10500157695770
 6  12.28714589508951  1.53318274477448  1.07244463066307
 6 -12.25543652955296 -1.68569643744374 -0.87836060476048
 6  13.36679830073007  0.45241291389139  0.62373969286929
 6  10.54641411571157  0.03865445524552  0.03703728882888
 6 -9.42589135303530 -0.02657550575057  0.14372438003800
 6  12.92524050165016 -0.19392661206121 -0.64667025332533
 6  11.43040612941294 -0.54421946724672 -0.83091815061506
 6  9.93142002760276  2.17379669166917  1.34802751615162
 6  10.77706853935394  0.12222139753975  2.50579114041404
 6 -11.34502900040004 -0.09532789128913 -2.57946020422042
 6 -8.41930803110311  0.83072805520552 -0.13958758125813
 6  9.13533846314632 -0.33489126492649 -0.07004692089209
 6  11.21937188268827 -1.29935290209021 -2.10970057475748
 6 -6.97501882478248  0.61159840164016 -0.00162225152515
 6  8.79988644504451 -1.72551234873487 -0.26117125812581
 6 -6.48462988448845 -0.78431718861886  0.18708159675968
 6  7.36650513801380 -2.14999787178718 -0.32479354165417
 6 -6.19023879987999  1.64210778527853 -0.30106196279628
 6  7.16309950415041 -3.65772949514951 -0.24959474127413
 6  6.24395166416642 -1.28714900360036 -0.46196853925393
 6 -4.72542651635163  1.62689622882288 -0.46349726312631
 6  5.00391123702370 -1.66602444534453 -0.41911969216922
 6 -3.91313268566857  2.67907093329333 -0.70795198419842
 6 -2.53307374547455  2.64566252385239 -0.72741548934893
 6  3.92384635013501 -0.67842834893489 -0.57164668106811
 6  2.53870091869187 -0.89920439193919 -0.35207015961596
 6 -1.86830538073807  4.02160674327433 -1.13189233663366
 6 -1.81744883038304  1.46546929132913 -0.62342835923592
 6  1.74439298429843  0.23010457195720 -0.51151971387139
 6  2.09744306540654 -2.30383317061706 -0.02726035813581
 6 -0.38641089999000  1.46152747404740 -0.58141150095010
 6  0.34499933073307  0.26926859465947 -0.43231649244924
 1 -11.10070681218122  1.39194097939794 -0.50743258845885
 1 -12.42330580368037 -1.44769478317832  2.54423231793179
 1 -10.78770644024402 -1.80250944594460  1.71008429102910
 1 -11.94045767936794 -3.46643575087509  0.55345020712071
 1 -9.99114451575158  0.09265094069407  2.80990961486149
 1 -10.58782894949495  1.90671374837484  2.12024674657466
 1 -11.41225881818182  0.91966538553855  3.31791596939694
 1 -13.45447664946495  0.45458146044604  0.19914638493849
 1 -13.79613538413841  0.83157476487649  1.89912391439144
 1 -12.93527221262126  1.97655127692769  0.83481396469647
 1  12.55211257795780  2.36701165066507  0.18991683488349
 1  12.73267769486949  1.85085912481248  2.11451905310531
 1 -12.66543002160216 -2.35466226272627 -1.74516870757076
 1  13.24030361516152 -0.32083182898290  1.43674401030103
 1 -9.18880124582458 -0.99996485548555  0.74703226322632
 1  13.54784992909291 -1.24259729902990 -0.79299445544554
 1  13.26442285978598  0.48298687658766 -1.61908183198320
 1  8.78883558115812  2.02098215001500  1.69763501090109
 1  9.85736759835984  2.91880448284828  0.54573148864887
 1  10.38520219351935  2.83416838853885  2.06375252625263
 1  11.63092593389339 -0.60857810641064  2.39560598199820
 1  9.90099507010701 -0.49844238523852  2.55770889898990
 1  10.58346924602460  0.97119491629163  3.38888383138314
 1 -10.33892639063906 -0.07496758605861 -3.01128852455246
 1 -11.88201725802580  0.80811681018102 -2.90294736003600
 1 -11.71888973407341 -0.88698745004500 -3.26477423502350
 1 -14.47798107140714 -2.96192514511451  0.17093889008901
 1  8.19733880188019  0.39605983118312 -0.03291064486449
 1 -8.75529069796980  1.79765141794179 -0.48528384878488
 1  11.80048578307831 -2.26858835483548 -1.98826167766777
 1  10.09732259865987 -1.40658676037604 -2.33745967996800
 1  11.87304659835984 -0.73955704580458 -2.89970591869187
 1  14.91809098939894  1.45253335313531  1.43540150905091
 1  9.52338211451145 -2.33448653035304 -0.38238468096810
 1 -5.41244570557056 -0.90335748644864  0.11665906270627
 1 -6.73489238733873 -1.22047402060206  1.06466871927193
 1 -7.15277151235123 -1.41954040224022 -0.66190440524052
 1 -6.75295758225823  2.70060885598560 -0.60938414011401
 1  7.10814436343634 -4.03252667526753  0.72600229592959
 1  6.32852019721972 -3.96905209300930 -0.84292388358836
 1  7.96948684608461 -4.13655984058406 -0.44406743944394
 1  6.47260568746875 -0.12656989638964 -0.58105022692269
 1 -4.26209844144414  0.84291395659566 -0.12540859845985
 1  4.67019062256226 -2.72945219821982 -0.42396005680568
 1 -4.39318536423642  3.60267824962496 -1.00629028452845
 1  4.23455353155316  0.43540087898790 -0.61360057745775
 1 -1.37050680888089  4.09780122682268 -2.16257452935293
 1 -1.16005884428443  4.40747790509051 -0.51670363016302
 1 -2.53032252035203  4.68681109660966 -1.06643493719372
 1 -2.32156103650365  0.69024565006501 -0.20800553055306
 1  2.30494953705371  1.24583857305731 -0.78263527862786
 1  2.30094862256226 -2.53299970237024  0.94776315481548
 1  0.95298036933693 -2.44266355745575 -0.25467675277528
 1  2.78296104550455 -3.02332011921192 -0.73788803180318
 1  0.20839672457246  2.34474431413141 -0.87621461296130
 1 -0.05715861186119 -0.75281545134513 -0.07278793379338

