%nproc=4
%Mem=4GB
# td=(NStates=1) CAM-B3LYP/6-31G(d,p) 

TD

0 1
 8 -14.18226410161016 -1.99838822052205  0.59955021032103
 8  14.79415125192519  1.02529011561156  0.32312290819082
 6 -11.71642450205021  0.01073714861486  1.36682150215022
 6 -10.93990095259526  0.41153392439244  0.11752546534653
 6 -11.98455393599360 -1.48547303170317  1.50100794209421
 6 -12.81383477697770 -2.11936300110011  0.36029017991799
 6 -11.71278656755675 -0.32006948524853 -1.06469195909591
 6  11.03927725832583  0.98017966046605  1.08652893259326
 6 -10.85614708790879  0.34580631943194  2.58300535123512
 6 -13.01296745914591  0.75155080198020  1.52175325212521
 6  12.41641882238224  1.48883831033103  0.94589197539754
 6 -12.32218320422042 -1.39778764656466 -0.92490525922592
 6  13.47918953985399  0.47684535713571  0.54024134303430
 6  10.64724419871987 -0.03505291549155  0.09236282138214
 6 -9.48105686958696  0.02699985178518  0.15244525212521
 6  12.96705468306831 -0.08461568096810 -0.78751433773377
 6  11.52709579837984 -0.47411245654565 -0.88957401620162
 6  10.06740362596260  2.19202851485149  1.15962867626763
 6  10.91358219071907  0.28794797019702  2.51860242154215
 6 -11.42452695019502  0.23094473597360 -2.48358061626163
 6 -8.44144024432443  0.87350233263326 -0.27216083858386
 6  9.29553448274828 -0.44668244404440  0.07106719051905
 6  11.14918486398640 -1.17991095789579 -2.10586019071907
 6 -7.04039536243624  0.56945418721872 -0.39126121542154
 6  8.88614507090709 -1.71241103860386 -0.18775391639164
 6 -6.63344476597660 -0.74518327522752 -0.00132724412441
 6  7.47282577007701 -2.22822569456946 -0.02534359665967
 6 -6.20610038603860  1.60712428692869 -0.57788964556456
 6  7.24634782898290 -3.72496621882188  0.07872809100910
 6  6.36531380038004 -1.31502179087909 -0.19606194859486
 6 -4.80417439113911  1.54541808100810 -0.53472438583858
 6  4.99718056395639 -1.56937478037804 -0.18503628382838
 6 -3.97396876927693  2.52669569576958 -0.83955514451445
 6 -2.51310174827483  2.62149010661066 -0.79641238903890
 6  4.04174814031403 -0.63443394949495 -0.32240175657566
 6  2.62791984058406 -0.95105957745775 -0.30207516011601
 6 -1.89720827102710  3.92278686128613 -1.21727087448745
 6 -1.73468055355536  1.47730047444744 -0.57043305970597
 6  1.79223776877688  0.17927948944894 -0.46856541844184
 6  2.00357367846785 -2.34134692199220 -0.06497412951295
 6 -0.42585484438444  1.41397271857186 -0.67601096089609
 6  0.35940077087709  0.28370003780378 -0.41564482528253
 1 -11.09138588008801  1.49052083738374  0.07498565336534
 1 -12.52837631073107 -1.71099111281128  2.49221711641164
 1 -10.96684435403540 -1.89898909390939  1.52038532113211
 1 -12.50694432803280 -3.17130623792379  0.31015587768777
 1 -9.97453285458546 -0.40922924732473  3.06899552345235
 1 -10.41321148774878  1.38047112411241  2.79460418231823
 1 -11.59130672297230  0.44987840684068  3.39819399719972
 1 -13.46673787558756  0.46155215751575  0.43778024832483
 1 -13.70316608720872  0.20484209160916  2.28836283828383
 1 -12.69710839623962  1.84962858465847  1.67131761506151
 1  12.47865523222322  2.28758370787079  0.24963280648065
 1  12.83454788188819  1.73088712761276  2.07365496669667
 1 -12.81419489808981 -2.00133693019302 -1.78185237593759
 1  13.69480906570657 -0.27758750455045  1.34707504340434
 1 -9.34249661536153 -0.94813967296730  0.54878243824382
 1  13.56789193329333 -1.03651669096910 -0.97810296629663
 1  13.26748316581658  0.55060363826383 -1.60307023082308
 1  9.03368006560656  2.07319737153715  1.49207445484548
 1  9.92802466406641  2.56851945434543  0.20278719421942
 1  10.44575824912491  3.13755872757276  1.71519767076708
 1  11.44873771507151 -0.52983023162316  2.47153357475748
 1  9.87023199379938  0.14368182718272  2.81186431453145
 1  11.23970486958696  0.99324712151215  3.19711465446545
 1 -10.29338183618362  0.31994190489049 -2.76461385708571
 1 -11.85483453975398  1.09217521602160 -2.60370743604360
 1 -11.80375822092209 -0.47538628992899 -3.18372613021302
 1 -14.68637191049105 -2.24129308190819 -0.24080228402840
 1  8.80369943794379  0.29512973817382  0.66724937113711
 1 -8.76940210911091  1.93131478427843 -0.69696501690169
 1  11.45419115361536 -2.29431092709271 -2.19660251175118
 1  10.08106097249725 -1.31190729242924 -2.22445837983798
 1  11.51502079577958 -0.80290338043804 -2.88430437853785
 1  15.08037721802180  1.49100720052005  1.13063103200320
 1  9.63887366366637 -2.57022010371037 -0.36153259575958
 1 -5.44149861086109 -0.79707685838584 -0.30147275047505
 1 -6.79941883998400 -0.88912088528853  1.12393464586459
 1 -7.23425966116612 -1.56813526172617 -0.25576379117912
 1 -6.60031231773177  2.65781457655766 -0.57435063676368
 1  7.11272482148215 -3.92650607320732  1.21206090179018
 1  6.45304264946495 -4.17292248004800 -0.59956954815482
 1  8.17437733513351 -4.18343452805281 -0.33430646334634
 1  6.86689511641164 -0.18722596199620 -0.21018314021402
 1 -4.50876310791079  0.53314297949795 -0.07186324392439
 1  4.78505210871087 -2.74889414241424 -0.05595325612561
 1 -4.30933697939794  3.66883486528653 -0.95378503400340
 1  4.39205928212821  0.33777111601160 -0.42163138053805
 1 -1.43372313051305  3.86382782948295 -2.14905317721772
 1 -1.07760059845985  4.27515467276728 -0.69412137193719
 1 -2.51827131523152  4.46388880438044 -1.65592388608861
 1 -2.32249112951295  0.54359098459846 -0.40355508550855
 1  2.36530557265727  1.09404339353935 -0.49890690579058
 1  2.35566409410941 -2.60245664806481  0.95469384788479
 1  0.95726079737974 -2.50337962906291 -0.19102038713871
 1  2.43903665306531 -3.04598238543854 -0.90612485548555
 1  0.01355724062406  2.43602344204420 -0.70807779927993
 1 -0.11261415741574 -0.65631580138014 -0.33125378037804

