%nproc=4
%Mem=4GB
# td=(NStates=1) CAM-B3LYP/6-31G(d,p) 

TD

0 1
 8 -14.13569944514451 -1.92222060376038  0.67713796909691
 8  14.69383121992199  1.11610919751975  0.37062765866587
 6 -11.65564842444244  0.00796687158716  1.43214803480348
 6 -10.93840080258026  0.33748651965197  0.06339005180518
 6 -11.90176565716572 -1.51087557195720  1.41615945724572
 6 -12.72790618411841 -2.09257032183218  0.33821797269727
 6 -11.61753704260426 -0.31397887618762 -1.10640613051305
 6  10.91171450205020  1.02341398389839  1.11140141984198
 6 -10.77643911711171  0.43941568036804  2.63276032673267
 6 -12.90991715411541  0.77874352125213  1.50537161396140
 6  12.39947712821282  1.59029845634563  0.82535992219222
 6 -12.43236422232223 -1.37004487228723 -0.93611638033803
 6  13.38669028992899  0.52074974757476  0.50112743164316
 6  10.60398987328733 -0.13722313251325  0.13693727882788
 6 -9.48684744864486 -0.05810865906591 -0.01794178657866
 6  13.01073905150515 -0.15216243564356 -0.76596218251825
 6  11.54069715851585 -0.53913895919592 -0.74734979377938
 6  9.99147603320332  2.17995730773077  1.02919563296330
 6  10.96214704720472  0.42820199559956  2.50764132543254
 6 -11.38075257275728  0.38240988248825 -2.45931819001900
 6 -8.49270537083708  0.77830281268127 -0.17769139163916
 6  9.13365829512951 -0.49841761756176  0.08026811061106
 6  11.24402434793479 -1.53240620742074 -1.96272587728773
 6 -7.02188351125113  0.48090533233323 -0.28760084938494
 6  8.75838229462946 -1.76355615311531 -0.11089623062306
 6 -6.65643706520652 -0.95273403030303 -0.11197830923092
 6  7.43064155165517 -2.22408528052805 -0.14490555285529
 6 -6.09438921492149  1.50055362986299 -0.39275113171317
 6  7.03118631283128 -3.63626734893489  0.06529674787479
 6  6.47822509150915 -1.30533082178218 -0.26682902530253
 6 -4.71909588328833  1.39405294449445 -0.47517843124312
 6  5.01249209510951 -1.61425926882688 -0.09904768496850
 6 -3.97676904930493  2.53902692889289 -0.77481867086709
 6 -2.57433787188719  2.57632559015902 -0.86804955275528
 6  4.00589455495550 -0.62198270437044 -0.38364788118812
 6  2.60461751035103 -0.79092356385639 -0.41492644524452
 6 -1.90433898409841  3.93464804740474 -1.07384653205321
 6 -1.74184126962696  1.54868761316132 -0.57533354975498
 6  1.81237978297830  0.22329389088909 -0.59832839473947
 6  2.04099742084208 -2.17001978927893 -0.03797142924292
 6 -0.24105636453645  1.49516083738374 -0.67211057085709
 6  0.38266309710971  0.30346201400140 -0.46736999779978
 1 -10.74250099159916  1.51411319661966 -0.17741958715872
 1 -12.12328580168017 -2.02448246194619  2.40236813151315
 1 -10.88719638923892 -2.12886208120812  1.38160144274427
 1 -12.58298193179318 -3.21488059535954  0.10737559965997
 1 -9.71091649294930 -0.03600192459246  2.37149577347735
 1 -10.67223739033903  1.55205828282828  2.77576229812981
 1 -11.13739133143314  0.12553597259726  3.68920309810981
 1 -13.25844704650465  0.61203720602060  0.38745521582158
 1 -13.59435520612061  0.46630823822382  2.33928793079308
 1 -12.89818850425042  1.78062168396840  1.60100058335834
 1  12.35130249694969  2.20493544304430 -0.03272542934293
 1  12.80282470957096  2.05147918681868  1.65011261246125
 1 -12.82065554415442 -1.70286708320832 -2.02699689038904
 1  13.53522310711071 -0.35540528632863  1.37873820972097
 1 -9.30035240094009 -1.17749260826083 -0.28158059805981
 1  13.47940308440844 -1.13657669696970 -0.88721387738774
 1  13.23431984948495  0.71085966386639 -1.51939186298630
 1  8.98613531113111  1.88600865266527  1.43524877227723
 1  9.88859072067207  2.78662126452645  0.08891580708071
 1  10.25517919121912  3.04756972867287  1.88042419341934
 1  11.79885272657266 -0.21287853645364  2.37527394879488
 1  10.02778774937494 -0.20120266126613  2.66198932703270
 1  11.06947784688469  1.09640743754375  3.34885982898290
 1 -10.31528402640264  0.69549946064606 -2.44265166086609
 1 -12.13629268556856  1.10346634513451 -2.74889195449545
 1 -11.51770961606161 -0.53626237753775 -3.25525328292829
 1 -14.70935420872087 -2.23235218781878  0.06271806800680
 1  8.51424049204920  0.33744396959696  0.08202084828483
 1 -8.73108827772777  1.76831848464846  0.12835751535153
 1  11.47999373387339 -2.47381887788779 -1.78402125362536
 1  10.17937080348035 -1.67946404810481 -2.17570350435043
 1  11.73411270497050 -1.10981407150715 -2.83089903800380
 1  14.68034721502150  1.77929602940294  1.24919288818882
 1  9.58303808010801 -2.53058614031403 -0.21320776327633
 1 -5.48777323832383 -1.19920707140714  0.07470486728673
 1 -7.13857275537554 -1.44467644084408  0.81207345974598
 1 -7.04808104330433 -1.65689413761376 -0.99827804260426
 1 -6.43915620212021  2.67020581568157 -0.36576977867787
 1  6.55173872287229 -3.96971039363936  1.11729142484249
 1  6.22690003520352 -3.74520970877088 -0.69313890509051
 1  8.02630252765277 -4.16518270287029 -0.28896192889289
 1  6.64155258215822 -0.30825806520652 -0.45302742464246
 1 -4.23822605420542  0.33358302350235 -0.31312737033703
 1  4.88556215971597 -2.63194244724472  0.13870620982098
 1 -4.41632767846785  3.65013299509951 -0.55337499299930
 1  4.34463453965397  0.41189852875288 -0.61429064646465
 1 -1.29682944114411  3.65344679137914 -2.03358163006301
 1 -1.22998583698370  4.04809196649665 -0.30378233803380
 1 -2.52628211631163  4.85973838933893 -0.99151744544454
 1 -2.26447532793279  0.59398602410241 -0.30307503750375
 1  2.34597363946395  1.30554454365437 -0.71114812991299
 1  2.46627515521552 -2.44458086048605  0.97333571207121
 1  0.88095316661666 -2.35483477457746 -0.17268855395540
 1  2.31472422182218 -2.76538432563256 -1.02604684768477
 1  0.17925381028103  2.23977381708171 -1.08594558605860
 1 -0.14008690469047 -0.58840901070107 -0.12603325832583

