%nproc=4
%Mem=4GB
# td=(NStates=1) CAM-B3LYP/6-31G(d,p) 

TD

0 1
 8 -14.21637751295130 -1.97264564626463  0.23521377667767
 8  14.82903474027403  0.85791337793779  0.08768936483648
 6 -11.79496235583558  0.06395247014701  1.22117693769377
 6 -11.02889985248525  0.32361513251325 -0.06874316151615
 6 -12.04281976257626 -1.43031751615162  1.29814765606561
 6 -12.83600699419942 -2.13549461426143  0.03055720662066
 6 -11.56740202910291 -0.39715719401940 -1.30926641654165
 6  11.09816314691469  1.14933657615762  0.84511479117912
 6 -11.15409688288829  0.46508824762476  2.52360941164116
 6 -13.16133229562956  0.79462510941094  1.10620169696970
 6  12.50653783428343  1.54052347884788  0.63740112631263
 6 -12.34964595049505 -1.47992586038604 -1.25705847454746
 6  13.52137375827583  0.44218189078908  0.23449076797680
 6  10.68939841414142 -0.02530194039404 -0.16681309620962
 6 -9.49093785768577 -0.04504735293529  0.03205321292129
 6  13.03083106070607 -0.29280650005000 -0.95507109340934
 6  11.51512460126013 -0.53352839813981 -1.02217727652765
 6  10.06050293589359  2.29898921092109  0.91987470087009
 6  11.00665149764976  0.40566974237424  2.26258681998200
 6 -11.14871936943694  0.24706634813481 -2.64620687888789
 6 -8.55410151045105  0.88293327572757 -0.04241786428643
 6  9.27279220852085 -0.36752452825283 -0.06548646484648
 6  11.13981392689269 -1.60435340214021 -2.10653025772577
 6 -7.14778610151015  0.53626086788679 -0.03170525982598
 6  8.87052350875087 -1.68130792829283 -0.18876401740174
 6 -6.83475489698970 -0.91653040994099  0.36240912951295
 6  7.49794828232823 -2.06303917591759 -0.12495355765577
 6 -6.21308108410841  1.50609418391839 -0.35849770637064
 6  7.19254244844484 -3.51959568176818  0.33532375057506
 6  6.42658992799280 -1.20851113981398 -0.17699004140414
 6 -4.78098207190719  1.36937047624762 -0.32870378377838
 6  5.08946979287929 -1.56341418431843 -0.02632041224122
 6 -3.87336870927093  2.46476950315032 -0.53382457145715
 6 -2.49326976507651  2.62000995859586 -0.46282903070307
 6  4.04001796729673 -0.66341684778478 -0.32104162056206
 6  2.57397444604460 -0.81158563006301  0.00422546994699
 6 -1.75475402560256  3.88165274787479 -0.67665681308131
 6 -1.76097318281828  1.51361410581058 -0.20001601800180
 6  1.72041058605861  0.26958852035204 -0.25990455235524
 6  2.14967828892889 -2.13369615691569  0.55241760966097
 6 -0.41388364726473  1.39761108240824 -0.32387574737474
 6  0.41628645944594  0.27123879167917 -0.15248850965097
 1 -10.97496423792379  1.43751553685369 -0.05452729792979
 1 -12.37671114421442 -1.76180619431943  2.34334222892289
 1 -10.92420008960896 -1.79934912991299  1.32247553015301
 1 -12.47133076667667 -3.15335444274427  0.19045390749075
 1 -10.12509791109111  0.09162083768377  2.40226885078508
 1 -11.19803997059706  1.59935301230123  2.42834755665567
 1 -11.61677927022702  0.07544096309631  3.34917909570957
 1 -13.70099130093009  0.55478148044805  0.33274974527453
 1 -13.65185095569557  0.32927453485348  2.09997399939994
 1 -13.00540922632263  1.96724034583458  1.39727021032103
 1  12.52692005870587  2.20045499499950 -0.17940009680968
 1  12.88336276337634  2.14613865276528  1.53516111731173
 1 -12.63932741134113 -1.81148794529453 -2.28676286698670
 1  13.44462404720472 -0.18646839263926  1.20635097099710
 1 -9.37646001170117 -1.17376223522352  0.15801336133613
 1  13.55671081518152 -1.21793483278328 -0.75600075607561
 1  13.36829324682468  0.37531610951095 -1.77638756255626
 1  9.04395109270927  1.87618767056706  1.28774402180218
 1  10.12586444804480  2.67923052545255 -0.18174125862586
 1  10.48288196149615  3.00256522822282  1.57425357635764
 1  11.69943278457846 -0.44641188978898  2.38539496089609
 1  10.19457442804280 -0.21711425242524  2.43958708680868
 1  11.42354325342534  1.08117591439144  3.05875081808181
 1 -10.03880637863787  0.29361927262726 -2.78267566326633
 1 -11.75071412771277  1.40331633013301 -2.96879394469447
 1 -11.35934377947795 -0.40625937723772 -3.50275803340334
 1 -14.72447572087209 -1.91537048964897 -0.55579378317832
 1  8.58583765176517  0.69889011421142 -0.03533088688869
 1 -8.71553672257226  2.06629828262826 -0.05517083748375
 1  11.48028376287629 -2.47918941494149 -1.82775562706271
 1  10.16073894029403 -1.40561666336634 -2.42041797579758
 1  11.75554484818482 -1.47481057115712 -3.02927887598760
 1  15.15310449074908  1.23511161096110  0.74037200610061
 1  9.63312308860886 -2.50355343704370 -0.14165060756076
 1 -5.61995645664566 -1.08300545124512  0.50214761156116
 1 -7.20238913701370 -1.17054902810281  1.33492574497450
 1 -7.23227946314631 -1.69854830303030 -0.42490070487049
 1 -6.54856714321432  2.50400919601960 -0.62167536923692
 1  7.33830737973797 -3.51916533913391  1.64276397209721
 1  6.17415476067607 -3.86516170397040 -0.08888848004800
 1  8.02557245464546 -4.18562474707471  0.02270923822382
 1  6.60838926582658 -0.20090733013301 -0.45091721362136
 1 -4.42568480008001  0.48760842604260  0.17307124952495
 1  4.80657426092609 -2.68928818181818  0.18441078027803
 1 -4.54898094379438  3.27114509630963 -0.94786444194419
 1  4.05777585378538  0.45393273217322 -0.98490770817082
 1 -1.00326008420842  3.78066951365137 -1.49170744264426
 1 -1.12411524992499  4.21627878517852  0.12168020822082
 1 -2.64328381648165  4.60306272177218 -1.12381067476748
 1 -2.26652553295330  0.29064569006901  0.12640791079108
 1  2.20309935203520  1.04917890709071 -0.74828184328433
 1  2.44840336803680 -2.05883228562856  1.59764814331433
 1  1.17434250555056 -2.26396568766877  0.62441115601560
 1  2.49646239563956 -3.09682746994699 -0.13828807180718
 1  0.11586747164716  2.34962480218022 -0.56223321482148
 1 -0.24411730773077 -0.56671684148415  0.25985533053305

