%nproc=4
%Mem=4GB
# td=(NStates=1) CAM-B3LYP/6-31G(d,p) 

TD

0 1
 8 -14.14471034623462 -1.99502788448845  0.48796905220522
 8  14.81202303910391  0.69193678027803  0.34122471837184
 6 -11.77062992259226  0.08673474837484  1.34588940894089
 6 -11.01197816031603  0.36519929092909 -0.03796008320832
 6 -12.02355783638364 -1.40186467086709  1.40715855715572
 6 -12.68306169966997 -2.05220628542854  0.30157430833083
 6 -11.63036832573257 -0.30146762506251 -1.29475496539654
 6  11.09108243884388  1.02131377387739  1.08175845554555
 6 -10.99333080628063  0.64212595139514  2.49261631233123
 6 -13.06675283768377  0.74859050595060  1.28310938773877
 6  12.53865104560456  1.55358478497850  0.83647103330333
 6 -12.30891187708771 -1.38178604640464 -1.05527829652965
 6  13.41218283918392  0.41443911651165  0.39373669256926
 6  10.64931440574057 -0.03559296949695 -0.00631704660466
 6 -9.64549331323132  0.02441959375938  0.17904791239124
 6  13.02445042264226 -0.16804402380238 -0.89515510181018
 6  11.54941803060306 -0.45240028532853 -0.94066912571257
 6  10.20119700530053  2.22567187918792  0.96380909430943
 6  11.02872370487049  0.56035521092109  2.50911147244724
 6 -11.48926342384238  0.17923956545655 -2.65933819201920
 6 -8.59186528682868  0.84757974037404  0.02479885738574
 6  9.27905283458346 -0.50026780258026  0.16889697349735
 6  11.26884683018302 -1.36220918771877 -2.13768337303730
 6 -7.16658798169817  0.44555179697970 -0.08203029232923
 6  8.88426488288829 -1.72108190569057 -0.05807094809481
 6 -6.73936535803580 -0.90567932483248  0.22501539013901
 6  7.51208969646965 -2.24741761376138 -0.12359342164216
 6 -6.19283905990599  1.38003157765777 -0.39275113171317
 6  7.21948514271427 -3.58738246044604  0.12841305950595
 6  6.52797006600660 -1.23700398909891 -0.23425576797680
 6 -4.79057303100310  1.33589712891289 -0.43609452285229
 6  5.08623946984698 -1.55468331123112 -0.21997977817782
 6 -4.06066743914391  2.47101012721272 -0.66715790479048
 6 -2.65230566866687  2.51478943654365 -0.66805955375538
 6  4.15514948044804 -0.59522002810281 -0.43718323472347
 6  2.65935298389839 -0.79117358885889 -0.31319627222722
 6 -1.98516706690669  3.85161974457446 -0.97636678407841
 6 -1.84580166566657  1.42804554895490 -0.39831584798480
 6  1.86003454845485  0.34432599409941 -0.44626318821882
 6  2.16292961406141 -2.23219600690069 -0.04841247334733
 6 -0.42786504540454  1.48969029032903 -0.37824118391839
 6  0.39196402720272  0.31802347014701 -0.36607986878688
 1 -11.01987872937294  1.45352713801380 -0.36722856805681
 1 -12.58985245834583 -1.82055206890689  2.31877977267727
 1 -10.95214288388839 -1.88745794079408  1.31543482608261
 1 -12.68310194379438 -2.98872798009801  0.30093495559556
 1 -10.12254765606561 -0.08055638003800  2.70320894479448
 1 -10.88363853045304  1.75078815581558  2.57238196009601
 1 -11.45141273357336  0.39907332633263  3.35100927872787
 1 -13.74466566836684  0.39091509380938  0.39437590789079
 1 -13.68990476107611  0.52836444384438  2.16127012901290
 1 -13.05899458485849  1.86657027882788  0.94616509980998
 1  12.30155752245225  2.49435438493849 -0.04237639443944
 1  12.80891531863186  2.02342638153815  1.74575217641764
 1 -12.55059853845385 -1.92308910541054 -1.78557274797480
 1  13.33863344814482 -0.39895964176418  1.24223455935594
 1 -9.37099946564656 -1.08769362836284  0.14725228522852
 1  13.66055119921992 -1.06494953425342 -1.13359851585159
 1  13.34063048054806  0.61601017891789 -1.60622054585459
 1  9.37895459305931  2.23236328812881  1.48245349274928
 1  9.97209907150715  2.41849445184518 -0.25851893639364
 1  10.54215788908891  3.33063803550355  1.26683283428343
 1  11.96959980128013 -0.16277352595260  2.70092651405140
 1  10.11978694929493 -0.02280482148215  2.54621774987499
 1  10.93871477057706  1.58239603640364  3.25894083708371
 1 -10.32445494349435  0.37774768546855 -2.85745314101410
 1 -11.87504656095610  1.20480647914791 -2.96915398069807
 1 -11.73717156225623 -0.60388914021402 -3.42596035363536
 1 -14.66374964826483 -2.48342729532953 -0.19635783958396
 1  8.43082215021502  0.24613483868387  0.48279092529253
 1 -8.86132130103010  1.82051370417042 -0.21371669206921
 1  11.46411214571457 -2.35358685468547 -2.02363521502150
 1  10.14883775017502 -1.47334343604360 -2.38398433243324
 1  11.46240553425343 -1.05754884498450 -3.28545449354935
 1  15.03849302960296  1.13993209300930  1.35374334323432
 1  9.68091786808681 -2.69158223992399 -0.09633607610761
 1 -5.59407386838684 -1.10753790449045  0.18591598839884
 1 -7.18250714881488 -1.31335330853085  1.00638289068907
 1 -7.13631986718672 -1.61560000820082 -0.76462467726773
 1 -6.55288757525753  2.45099389448945 -0.44795799749975
 1  6.89851340034003 -3.79867328992899  1.23950364606461
 1  6.47442478767877 -4.13378856665667 -0.64267385858586
 1  8.11938183558356 -4.34023020762076 -0.00329336203620
 1  6.89516794369437 -0.24500173957396 -0.10690281218122
 1 -4.22885511711171  0.41997166236624 -0.02469852745275
 1  4.67484108760876 -2.69607886088609 -0.19821748254825
 1 -4.73182922862286  3.30131811361136 -0.83028268376838
 1  4.37260733693369  0.52106944584458 -0.57742696009601
 1 -1.15331508970897  3.82635408210821 -1.65833410531053
 1 -1.61629446784678  4.37564472177218  0.02785082528253
 1 -2.79086857495750  4.35714813031303 -1.32869116281628
 1 -2.40704958535854  0.46065269076908 -0.11578630863086
 1  2.21836087818782  1.38435242444244 -0.45230224532453
 1  2.49463799149915 -2.33444984738474  0.99743812231223
 1  0.92079715101510 -2.03490278137814 -0.05809709480948
 1  2.56876962636264 -2.94279206640664 -0.59662390539054
 1 -0.00100421552155  2.42700253995400 -0.37783477497750
 1 -0.21075397139714 -0.60439060886089 -0.37362801780178

