%nproc=4
%Mem=4GB
# td=(NStates=1) CAM-B3LYP/6-31G(d,p) 

TD

0 1
 8 -14.21188706390639 -1.78857723942394  0.51438169346935
 8  14.80928276507651  0.86524411101110  0.44986558245825
 6 -11.76678953855386 -0.02640656575658  1.39313413341334
 6 -10.95798276077608  0.29971274227423  0.07111082388239
 6 -12.12804828542854 -1.45793027742774  1.44548238953895
 6 -12.84902829632963 -2.02524358915892  0.24499865076508
 6 -11.61228651755176 -0.34474195249525 -1.14264975487549
 6  11.01932526312631  0.99530117261726  1.10712099179918
 6 -10.95654712791279  0.46388812761276  2.64583163386339
 6 -13.02870903330333  0.89851549844985  1.34763584038404
 6  12.56715389588959  1.56443587008701  0.94039142534253
 6 -12.35264625052505 -1.47042491029103 -1.00409317801780
 6  13.38645026592659  0.41699937253725  0.48136545544554
 6  10.65038451275128 -0.02550196039604 -0.02634904980498
 6 -9.52209097299730 -0.04819766796680  0.08085809340934
 6  12.98650662826283 -0.12401962136214 -0.86152173847385
 6  11.52181527032703 -0.46086113141314 -0.84776983578358
 6  10.10528741434143  2.33658297029703  0.89486219961996
 6  10.77846867936794  0.44493366876688  2.41285184648465
 6 -11.20134463196320  0.27511915341534 -2.53923618181818
 6 -8.52769887018702  0.73979896229623 -0.11870549304931
 6  9.23648857815782 -0.48988676447645  0.12896298009801
 6  11.29544949044904 -1.35999896669667 -2.02875247994800
 6 -7.14557588048805  0.42227946974697 -0.13888597789779
 6  8.84667112351235 -1.73293309080908 -0.12966810781078
 6 -6.69672109360936 -0.97237599449945  0.16280916951695
 6  7.47464595209521 -2.18435130713071 -0.06071713401340
 6 -6.15949572557256  1.44303787828783 -0.34060591719172
 6  7.21549474367437 -3.60246396859686  0.29101932013201
 6  6.45225249424943 -1.27018730743074 -0.34701704410441
 6 -4.79377335103510  1.43102664186419 -0.30606151955196
 6  5.04623546944694 -1.50031787468747 -0.25134291449145
 6 -3.97506887928793  2.48827185338534 -0.57589877887789
 6 -2.55616605470547  2.53148110571057 -0.82604535233523
 6  4.06533049854986 -0.56674718081808 -0.41837135353535
 6  2.66115316391639 -0.77049152065207 -0.33928888148815
 6 -1.81637018721872  3.75786036863686 -1.05595474287429
 6 -1.70813789928993  1.43261600600060 -0.56935295169517
 6  1.76158470347035  0.28904046554655 -0.49210777267727
 6  2.10311363246325 -2.20291307860786 -0.23754138623862
 6 -0.41630388928893  1.36676799809981 -0.72630599039904
 6  0.35404023482348  0.27997966576658 -0.46622988378838
 1 -10.83398013951395  1.60174195949595  0.05343349814982
 1 -12.73386685978598 -1.81960197389739  2.37876577127713
 1 -11.02038970857086 -1.90061925692569  1.62610589318932
 1 -12.53515714931493 -3.17280638793879  0.29517437953795
 1 -9.90274567586759 -0.01600992539254  2.68478710261026
 1 -10.96146631323132  1.63696677367737  2.48838356025603
 1 -11.47253484578458  0.44441786078608  3.62200637843784
 1 -13.58917011881188  0.67026302860286  0.44203067336734
 1 -13.64110988158816  0.48220982838284  2.17928193019302
 1 -12.40576926232623  1.93693731553155  1.52991347464746
 1  12.49710707740774  2.20777572707271  0.17631547474747
 1  12.63028745584558  2.17501154005401  1.90513811501150
 1 -12.99273275187519 -1.80546734323432 -1.85892008270827
 1  13.10995057985799 -0.46142588838884  1.29327966386639
 1 -9.09062142784278 -1.12243710271027  0.17071463146315
 1  13.66005114921492 -0.98610164946495 -1.27194235023502
 1  13.38119453695370  0.74056263416342 -1.42813273707371
 1  9.11425812341234  2.16863691549155  1.24817006440644
 1  10.14983684528453  2.72705530793079 -0.08798188268827
 1  10.57034070737074  3.25929090079008  1.63080923192319
 1  11.37279012031203 -0.57639488808881  2.57798421982198
 1  9.71788675927593  0.31870932993299  2.67181030913091
 1  11.27971887098710  1.28045584238424  3.22992793579358
 1 -10.26605910391039  0.10985089578958 -2.76819421512151
 1 -11.47736679297930  1.46002200070007 -2.60869793509351
 1 -11.93227107220722 -0.17964671597160 -3.14709246684668
 1 -14.71074434773477 -2.12471142374237 -0.34787299109911
 1  8.51741080908091  0.40358058325833  0.04989763596360
 1 -8.64982015091509  1.85678733153315 -0.21111643204320
 1  11.58668440294029 -2.44279577557756 -2.07795064656466
 1  10.22262512891289 -1.55798189988999 -2.16839277327733
 1  11.74988428212821 -0.78896198629863 -2.98785473357336
 1  15.12360154045404  0.97229532933293  1.30929889878988
 1  9.56823659996000 -2.57343042474247 -0.12505894839484
 1 -5.67437189818982 -1.31257840854085  0.47019441624163
 1 -7.21988088618862 -1.26357833103310  0.97790004240424
 1 -7.00434666986699 -1.57908635683568 -0.74804301910191
 1 -6.77064935143514  2.32048084318432 -0.46017921962196
 1  6.93869741874187 -3.77934135673567  1.42609230493049
 1  6.22028937413741 -4.05061024882488 -0.40701029222922
 1  8.18067796519652 -4.39914609920992  0.08391535883588
 1  7.10207863476348 -0.46189342874287 -0.66493861576158
 1 -4.36771900350035  0.23383304850485 -0.06560261786179
 1  4.83686729022902 -2.43401265426543 -0.21196885768577
 1 -4.43031907760776  3.60649863166317 -0.73980363586359
 1  4.43493356955696  0.50333767266727 -0.61422063946395
 1 -1.26366612481248  3.72784423112311 -2.04284255615562
 1 -0.95366820522052  4.32829998729873 -0.49587154695470
 1 -2.58190767886789  4.64915733123312 -1.11933022672267
 1 -2.37783666406641  0.51733835933593 -0.46023075307531
 1  1.97528657075708  1.39264325352535 -0.69791680678068
 1  2.33991251895190 -2.56272267466747  0.75567394589459
 1  1.14055912721272 -2.20468976007601 -0.26734801990199
 1  2.53356610601060 -2.83456124332433 -1.02793703670367
 1  0.14806069096910  2.39347918761876 -0.64916190769077
 1  0.00805790979098 -0.82835300510051 -0.29680033503350

