%nproc=4
%Mem=4GB
# td=(NStates=1) CAM-B3LYP/6-31G(d,p) 

TD

0 1
 8 -14.16219209440944 -2.01158954065407  0.52154240954095
 8  14.82895473227323  0.86448403500350  0.06775737163716
 6 -11.89467232683268  0.22276835173517  1.25455027502750
 6 -11.08849581208121  0.37593036403640 -0.10728701590159
 6 -12.07318279887989 -1.30868535293529  1.55828366966697
 6 -12.67009040254025 -1.98734979977998  0.32098624952495
 6 -11.57666295519552 -0.40364784308431 -1.18926441634163
 6  11.15517884848485  0.89754139663966  1.17593787348735
 6 -11.15016648984898  0.90848258705871  2.46332338303830
 6 -13.31687785018502  0.82777842474247  1.02361343814381
 6  12.58181536203620  1.51354078057806  0.85390277647765
 6 -12.36056704260426 -1.52006987478748 -0.94181695039504
 6  13.62151377227723  0.42540021262126  0.37902522142214
 6  10.68068754305431 -0.01262067226723  0.05850943604360
 6 -9.68726749064906  0.06255340714071  0.04228423602360
 6  13.02220019761976 -0.04745196459646 -0.92789837613761
 6  11.54295738453845 -0.24156920222022 -1.02574763356336
 6  10.22285917151715  2.15650496249625  1.36085879927993
 6  11.23873470597060  0.11610078547855  2.51515207650765
 6 -11.20783528102810 -0.03529188768877 -2.53051530973097
 6 -8.56100220052005  0.80799578197820 -0.27140076257626
 6  9.29084401370137 -0.45578335413541  0.08094817861786
 6  11.07990793629363 -0.97086005280528 -2.31030063476348
 6 -7.11117244014401  0.52296953875388 -0.14575666496650
 6  8.89485594199420 -1.68421821932193 -0.26898203920392
 6 -6.67994941644164 -0.87223598049805  0.36821971057106
 6  7.52007049454945 -2.12994586658666 -0.14529559185919
 6 -6.21315109110911  1.48036161066107 -0.34093595019502
 6  7.27503069726973 -3.62688641084108 -0.03437321912191
 6  6.37270453945395 -1.18638892759276  0.04520217781778
 6 -4.78693266696670  1.40740427962796 -0.39545045844584
 6  5.02986383228323 -1.55005284818482 -0.15619339953995
 6 -4.06701807420742  2.46403943014301 -0.71462265126513
 6 -2.64448488658866  2.39589754735474 -0.77121986978698
 6  4.13855782128213 -0.62457296339634 -0.11652116851685
 6  2.63335038363836 -0.82703717521752 -0.22352730533053
 6 -2.01299985018502  3.74937952055206 -1.07718686608661
 6 -1.77484456995700  1.20224296869687 -0.44619063546355
 6  1.72247079207921  0.20434199569957 -0.26735529742974
 6  2.21090441154115 -2.22803559085909  0.07337970587059
 6 -0.40637289618962  1.25079640094009 -0.49408276807681
 6  0.33766859765977  0.14151581938194 -0.24616787758776
 1 -11.11782852435243  1.41083286858686 -0.45556740194019
 1 -12.61920539363936 -1.30204021772177  2.38742663736374
 1 -11.22424009360936 -1.74069326432643  2.01419470207021
 1 -12.41780541414141 -3.17199630693069  0.51621648374837
 1 -10.02355775707571  0.52480415601560  2.46044466836684
 1 -11.17869803640364  1.85128820582058  2.20823554545454
 1 -11.76628422072207  0.67858127712771  3.37691186898690
 1 -13.78889009080908  0.42227823012301  0.20866733703370
 1 -13.92600837143714  0.67389899729973  1.80028403040304
 1 -13.19647833323332  2.00896451825182  0.76329681298130
 1  12.39940730743074  2.31461641114111  0.02654049724972
 1  12.87058148524852  1.92537657655766  1.78642624382438
 1 -12.56926040464047 -2.02820961746175 -1.82185637633763
 1  13.61520110491049 -0.43659340514051  0.98066840274027
 1 -9.60533289898990 -0.92585744474447  0.29599715971597
 1  13.75717086118612 -0.91655469476948 -1.12631778777878
 1  13.09846626412641  0.79677825572557 -1.73561348514851
 1  9.17120381798180  1.81027107890789  1.76425167256726
 1  10.04123598519852  2.76252885528553  0.45259217471747
 1  10.71290496379638  2.80613558525853  2.22189834083408
 1  11.91009385068507 -0.90737798639864  2.45191161256126
 1  10.28017298789879 -0.14250679167917  2.88984211231123
 1  11.67814871397140  0.84046184298430  3.41547649064907
 1 -10.17767026502650 -0.02834292359236 -2.67079447514752
 1 -11.44719377567757  1.13706970547055 -2.83876094139414
 1 -11.81283912901290 -0.58250700200020 -3.46442420002000
 1 -14.35315858915892 -2.01447039963996 -0.62269047284728
 1  8.58028709670967  0.31539176437644  0.62338498469847
 1 -8.72786795569557  1.96138779157916 -0.59507482788279
 1  11.32087782228223 -1.88377987398740 -2.16645949744974
 1  10.00534340074007 -0.66299240094009 -2.67551348534853
 1  11.60484977867787 -0.54307739783978 -3.20738668676868
 1  15.40632981328133  1.54021212101210  0.64119208810881
 1  9.59476925322532 -2.50091317301730 -0.37808425092509
 1 -5.47393185418542 -0.92214936563656  0.01277867466747
 1 -6.93810270837084 -1.22307428062806  1.58867111951195
 1 -7.35587182238224 -1.67458590679068 -0.28538675347535
 1 -6.70531281778178  2.39062785788579 -0.54905810751075
 1  6.82246579557956 -3.92598602120212  0.86069576527653
 1  6.79382672787279 -3.96762194999500 -0.77073666486649
 1  8.43299319671967 -4.02973915851585 -0.20710374307431
 1  6.59998842574257 -0.22955019441944 -0.19805192709271
 1 -4.40645287688769  0.40796046124612 -0.30432649024903
 1  4.70311391489149 -2.54754400740074 -0.19300696149615
 1 -4.54728077377738  3.50684866666667 -0.97103675917592
 1  4.55867594379438  0.39406674557456 -0.20884010141014
 1 -1.31982174037404  3.72766421312131 -1.72160043194319
 1 -1.15290812921292  3.99002615991599 -0.17606956675668
 1 -2.80530001810181  4.50940335583558 -1.10164845854585
 1 -2.60065894629463  0.30099672517252 -0.27267199719972
 1  2.19902894499450  1.19580356955696 -0.38832584768477
 1  2.19598812651265 -2.54982138453845  1.19246762526253
 1  1.25066013731373 -2.39994928602860 -0.58753003810381
 1  2.91878462786279 -3.07573536073607 -0.36178042104210
 1  0.15440132503250  2.11189102880288 -0.51005799729973
 1 -0.15805870187019 -0.86655682548255 -0.02631328632863

