%nproc=4
%Mem=4GB
# td=(NStates=1) CAM-B3LYP/6-31G(d,p) 

TD

0 1
 8 -14.13423929912991 -2.11449983168317  0.51500175547555
 8  14.84295613241324  0.89719730633063  0.08509910581058
 6 -11.85435829542954  0.10139621452145  1.21920674067407
 6 -11.02273923642364  0.30575334633463 -0.03887017421742
 6 -12.01907738833883 -1.34262874727473  1.44933277457746
 6 -12.62540593409341 -2.17144820962096  0.29374352525253
 6 -11.52548783768377 -0.50192767106711 -1.23517900780078
 6  11.10354368496850  0.91240288278828  1.03083336303630
 6 -11.10913238643864  0.69576131493149  2.34306135683568
 6 -13.34558072047205  0.75513116001600  0.98763984078408
 6  12.56539371987199  1.33619304580458  0.76323370957096
 6 -12.27292827872787 -1.56634450225022 -1.10540330903090
 6  13.59626124702470  0.33353102570257  0.43146046494649
 6  10.69605908020802 -0.04682409260926 -0.02955937083708
 6 -9.48627739163916 -0.09493234143414  0.07211721932193
 6  13.01680965856586 -0.25962318171817 -0.93458904520452
 6  11.55122821162116 -0.51094613991399 -0.98439349814981
 6  10.28167505310531  2.17351666366637  0.94161687508751
 6  11.01365219771977  0.28153732913291  2.37463802510251
 6 -11.28391288878888  0.13544518601860 -2.62718497669767
 6 -8.46876297659766  0.79353433583358 -0.01897552005201
 6  9.25753068236824 -0.45338311411141  0.04654473827383
 6  11.19273921942194 -1.26815978277828 -2.30352995769577
 6 -7.03122444534453  0.36985422722272 -0.05371746104610
 6  8.76346280268027 -1.72255205270527 -0.08228336933693
 6 -6.72206362786279 -1.04700345724572  0.15057794639464
 6  7.41343983148315 -2.13246611861186 -0.01657271957196
 6 -6.18271804780478  1.47599117361736 -0.21996385298530
 6  7.05620881508151 -3.61914563676368  0.11824204240424
 6  6.36898416741674 -1.23880416911691 -0.04596693909391
 6 -4.78883285698570  1.51076461566157 -0.25738665206521
 6  4.96128697459746 -1.48927677057706  0.05432765256526
 6 -3.99134050645065  2.61028405460546 -0.54235542454245
 6 -2.58062850095009  2.64878283588359 -0.69665241304130
 6  4.02746671217122 -0.58646915301530 -0.15762527892789
 6  2.61291834043404 -0.70925539703970 -0.13688864146415
 6 -1.98099664986499  3.98141272387239 -0.94709385678568
 6 -1.80411749724972  1.60896364076408 -0.41683770017002
 6  1.75644418941894  0.42471403290329 -0.28741730363036
 6  2.05986930803080 -2.02636542384238  0.21556392429243
 6 -0.38678093699370  1.52108342964296 -0.49759311911191
 6  0.36669149995000  0.37618928672867 -0.31076433723372
 1 -11.04694143564356  1.38009979527953 -0.21167301250125
 1 -12.63006647974797 -1.61656166986699  2.32154004870487
 1 -11.06134380398040 -1.84166336133613  1.46674995759576
 1 -12.34933856745675 -3.29134824212421  0.51174603670367
 1 -10.17671307260726  0.14049572517252  2.41304992889289
 1 -10.79923008960896  1.81029410641064  2.09619434133413
 1 -11.56973456575658  0.84385780478048  3.42113629142914
 1 -13.96981818361836  0.16518252055206  0.11159763006301
 1 -13.78903467406741  0.43845545294530  1.85462946494649
 1 -13.17008569396940  1.89102272407241  0.73532401570157
 1  12.55763313001300  2.25428037753775  0.01824966816682
 1  12.72899732683268  1.82260629952995  1.77565516671667
 1 -12.59525300390039 -2.15799259575958 -1.98725291599160
 1  13.58778836363637 -0.50765051085109  1.07467780368037
 1 -9.24755712141214 -1.17309216821682 -0.07126956695670
 1  13.60647579167917 -1.34164720402040 -1.28994415041504
 1  13.24903132063206  0.37138571647165 -1.86151607540754
 1  9.25755245284529  2.07266731853185  1.34127937533753
 1  10.30830269186919  2.60494309670967 -0.12880596509651
 1  10.76198987228723  2.92332730443044  1.71680783178318
 1  11.69874271557156 -0.57316456505651  2.61054747614761
 1  10.02354732533253 -0.28090063106311  2.48678180628063
 1  11.14597549664966  1.06392418921892  3.31274621762176
 1 -10.12949544754476  0.09024893559356 -2.76458385408541
 1 -11.71715077137714  1.14564056255626 -2.57496456175618
 1 -11.47843568866887 -0.46078482978298 -3.35992374997500
 1 -14.36147942124212 -1.99584853745375 -0.57989619341934
 1  8.71550061806180  0.54890511571157  0.36048869506951
 1 -8.72412758165817  1.97795944874487 -0.14272959335934
 1  11.61405714021402 -2.26176767276728 -2.33549640114011
 1  10.09141200760076 -1.43682978467847 -2.38365429942994
 1  11.51335062876288 -0.78179126922692 -3.23167911601160
 1  15.04920410071007  1.10510861066107  1.03018098699870
 1  9.64407418371837 -2.27193027472747 -0.47697413991399
 1 -5.57393185418542 -1.28764591529153  0.30164756155616
 1 -6.95842474057406 -1.56109808300830  1.15608786118612
 1 -7.18478471367137 -1.66703515171517 -0.56108432323232
 1 -6.83830611711171  2.31987078217822 -0.21815501720172
 1  6.52732628162816 -3.99240266286629  1.07382707840784
 1  6.57038438363836 -4.03544873267327 -0.69703929512951
 1  7.88373827122712 -4.32941912651265 -0.03835686838684
 1  6.68314674157416 -0.18416565596560 -0.36995911781178
 1 -4.45558779037904  0.65623528872887  0.00855479787979
 1  4.56758036153615 -2.57262651565157  0.00899323852385
 1 -4.45816186188619  3.42606058785879 -0.98205786128613
 1  4.31920199639964  0.49629696859686 -0.58832805020502
 1 -1.28666842504250  4.08789023572357 -1.67482575447545
 1 -1.40737357575758  4.09397655495550  0.10075811601160
 1 -2.68472796089609  4.86017843334333 -1.13234152785278
 1 -2.11145002540254  0.55163178867887 -0.13787851785178
 1  2.34082312441244  1.36602059125913 -0.63810082518252
 1  2.34367289498950 -2.20440684308431  1.39363774227423
 1  1.04710978227823 -1.93853314441444  0.26901561646165
 1  2.63190593999400 -2.71708949614961 -0.56805104810481
 1  0.37928381328133  2.46667650735074 -0.71765875737574
 1  0.01591869586959 -0.60394056385639 -0.02841349634963

