%nproc=4
%Mem=4GB
# td=(NStates=1) CAM-B3LYP/6-31G(d,p) 

TD

0 1
 8 -14.27160303550355 -1.79485786748675  0.67563781908191
 8  14.86567840464046  0.70727831443144  0.47333792969297
 6 -11.73089594919492  0.05412148704870  1.40343516351635
 6 -11.02437940044004  0.31489426042604  0.03174688748875
 6 -12.03077855845584 -1.43911839623962  1.50613845514551
 6 -12.86329972347235 -2.04385545034503  0.43136728762876
 6 -11.74991027992799 -0.44243172147215 -1.13358884878488
 6  11.12304563516352  1.10817245974597  1.07345762546255
 6 -10.78572004520452  0.53024476327633  2.52816986768677
 6 -13.07072323472347  0.80225587248725  1.47381845864586
 6  12.60256743724372  1.53080250675068  0.86687407360736
 6 -12.51511249714972 -1.48001586938694 -0.95039780848085
 6  13.54096571747175  0.41783945654565  0.60172749164916
 6  10.74394386868687  0.00149073887389  0.05150873597360
 6 -9.56092485638564 -0.02427527572757 -0.07561755415542
 6  13.09360733833383 -0.18819603900390 -0.72264785108511
 6  11.62964605340534 -0.59406445174517 -0.76788184698470
 6  10.19897678327833  2.32758207020702  0.89611232463246
 6  10.85471630413041  0.54070324572457  2.52197275857586
 6 -11.35057955545555  0.17196883838384 -2.52992525072507
 6 -8.51581768206821  0.80446542894289 -0.20725434793479
 6  9.30237516681668 -0.29244702050205  0.07928801260126
 6  11.28008795429543 -1.46702966976698 -1.93646325102510
 6 -7.05781710461046  0.42070931273127 -0.30002209150915
 6  8.83499995639564 -1.58153795129513 -0.09752489348935
 6 -6.71035245674567 -0.97262601950195 -0.04301141254125
 6  7.48468695619562 -2.12406527852785 -0.17816887918792
 6 -6.16810658665867  1.34837841234123 -0.50570242684268
 6  7.32782597679768 -3.62075579777978 -0.02038181998200
 6  6.40725799479948 -1.27711800050005 -0.35779812221222
 6 -4.70395436913691  1.30127366656666 -0.50997191059106
 6  5.00729157505751 -1.60893873677368 -0.25644342454245
 6 -4.00347171957196  2.50946397259726 -0.60632182118212
 6 -2.53844428252825  2.56464442204220 -0.53853660146015
 6  3.99084304980498 -0.67690819691969 -0.48656817321732
 6  2.69529657825783 -0.81005547704770 -0.43653860646065
 6 -2.00284883508351  4.07722230483048 -0.82482162956296
 6 -1.79956704220422  1.49031177557756 -0.45825184158416
 6  1.74004254925493  0.25872743424342 -0.64528309020902
 6  1.97038035913591 -2.17120990829083 -0.12181981408141
 6 -0.43775603450345  1.42590391169117 -0.66803016281628
 6  0.36333116391639  0.21737340514051 -0.58032129292929
 1 -11.22070881238124  1.31327311261126 -0.08369021422142
 1 -12.66039951305130 -1.53933394709471  2.50058795349535
 1 -11.13897156675668 -1.99276847184718  1.76436971957196
 1 -12.50653428702870 -3.09770887818782  0.35647050915091
 1 -9.74043944524453 -0.00898922332233  2.43242186608661
 1 -10.78708887548755  1.71055413241324  2.63401812371237
 1 -11.23317090939094  0.07901132013201  3.53514769256926
 1 -13.67974917671767  0.80690669296930  0.56821329162916
 1 -13.71591736233623  0.57800940834083  2.16667066906691
 1 -12.84598328372837  1.95146876867687  1.64801528482848
 1  12.49335670237024  2.41768671817182  0.11527937113711
 1  12.68917334443444  2.09918395729573  1.74610221142114
 1 -13.22040551915192 -2.09835663216322 -1.59350354105411
 1  13.59141872667267 -0.27444719051905  1.44021435733573
 1 -9.39130149584958 -1.08866372537254  0.25381294129413
 1  13.89801494559456 -1.01598463776378 -1.04478963496350
 1  13.18391480898090  0.64143272117212 -1.51202112591259
 1  9.05867256485648  2.22941299309931  0.96052129952995
 1  10.34424628622862  3.00688329072907  0.04451136663666
 1  10.44074774807481  3.02220719241924  1.80922707370737
 1  11.30033287458746 -0.42743999259926  2.66739316071607
 1  9.80023499409941  0.42657011601160  2.65361848994899
 1  11.17225812491249  1.21564936173617  3.34130907390739
 1 -10.30155265326533  0.39115902660266 -2.49170656635664
 1 -11.93787284358436  1.29873587208721 -2.82664973027303
 1 -11.64815266036604 -0.66894564586459 -3.41903966156616
 1 -14.77839111241124 -1.92382133473347 -0.07622582638264
 1  8.46011507950795  0.43833405860586  0.54133677987799
 1 -8.77889305820582  1.86955860866087 -0.31712703310331
 1  11.52087782228223 -2.44300579657966 -1.72089494099410
 1  10.17243010941094 -1.51847794949495 -2.30929686368637
 1  11.86818611231123 -1.01632472257226 -2.85172112021202
 1  15.36432561286129  1.01376947674767  1.45447341624162
 1  9.67398717501750 -2.31103418511851 -0.22699914241424
 1 -5.57663212421242 -1.21445859655966 -0.04383698689869
 1 -7.12436133423342 -1.14675664886489  0.90957320972097
 1 -7.23962019721972 -1.70371882008201 -0.74834304910491
 1 -6.47215950245025  2.33766256135614 -0.69008220992099
 1  6.89951350035003 -4.03015643824382  0.92388208390839
 1  6.77853519871987 -4.07720290809081 -0.81267085828583
 1  8.33353325072507 -4.13624980958096 -0.02160519321932
 1  6.54725315221522 -0.14913215261526 -0.59716183808381
 1 -4.20794302590259  0.25082474767477 -0.25577163476348
 1  4.61789539303930 -2.52686193919392  0.09285162436244
 1 -4.68387443314331  3.46824480628063 -0.88939859535954
 1  4.24146422262226  0.30466780568057 -0.65699491689169
 1 -1.54941469966997  4.06947839453945 -1.96926519841984
 1 -1.03606644504450  4.17255441274127 -0.14989694949495
 1 -2.85361484958496  4.75314773027303 -0.69380767446745
 1 -2.25849472987299  0.59614624012401 -0.14992972297230
 1  2.14109315141514  1.32506649584959 -0.67477449254925
 1  1.58813734143414 -2.38647504990499  1.13595197369737
 1  0.81590666196620 -2.30504979607961 -0.78746003110311
 1  2.78121087048705 -3.15108289548955 -0.37404164716472
 1  0.02209809470947  2.11084092379238 -1.15951294279428
 1 -0.09677257325733 -0.72399256905691 -0.49887054205421

