%nproc=4
%Mem=4GB
# td=(NStates=1) CAM-B3LYP/6-31G(d,p) 

TD

0 1
 8 -14.08931480668067 -2.08413679537954  0.54448470377038
 8  14.88770060686068  0.73264085068507  0.24240483638364
 6 -11.84899775937594  0.16770284518452  1.31102592259226
 6 -11.02379934243424  0.29295206620662 -0.05733202040204
 6 -11.94199968056806 -1.36318080248025  1.58334617591759
 6 -12.62574596809681 -2.16627769256926  0.40897504840484
 6 -11.57888317721772 -0.47020449874988 -1.12786827672767
 6  11.12307563816382  1.02571421392139  1.10838111781178
 6 -11.07992946614661  0.74595633443344  2.44599164986499
 6 -13.17839400180018  0.80856650355035  1.13895497229723
 6  12.68059524002400  1.25789521602160  1.00723811001100
 6 -12.14358534443444 -1.68114598239824 -0.91231400010001
 6  13.62996461736174  0.20217789038904  0.49720703960396
 6  10.63905337963796 -0.01804121432143  0.04386797189719
 6 -9.57750651455146 -0.06399924812481  0.08938894649465
 6  13.02606058365837 -0.19914713411341 -0.91917750405040
 6  11.54360744954495 -0.48369341464146 -0.92867792659266
 6  10.26941382698270  2.24566387838784  1.21881459485949
 6  11.00026085858586  0.22466164156416  2.52303286458646
 6 -11.20942544004400 -0.18660701920192 -2.60350260846085
 6 -8.52381848214822  0.80665564796480  0.00436681418142
 6  9.20781571087109 -0.38240601640164  0.03914399819982
 6  11.13944388988899 -1.37829079587959 -2.01569117381738
 6 -6.97974929782978  0.53259050085009 -0.07867995729573
 6  8.75474193059306 -1.63342313981398 -0.00371551255126
 6 -6.64176559805981 -0.93523228012801  0.23316620522052
 6  7.33232171967197 -2.08322119411941 -0.11587264956496
 6 -6.23343311931193  1.59205277977798 -0.30853270987099
 6  7.12941613581358 -3.43426714891489  0.07953817201720
 6  6.29718698769877 -1.15712600130013 -0.30883322572257
 6 -4.81546552025203  1.50070360956096 -0.46438735213521
 6  4.97327817371737 -1.46716455935594 -0.17026480668067
 6 -4.01653302570257  2.59456248244824 -0.48440962996300
 6 -2.70428086618662  2.61797975557556 -0.72789553735374
 6  4.02224619011901 -0.53359386548655 -0.33360287668767
 6  2.57840488908891 -0.74496896839684 -0.40205515811581
 6 -2.10735928612861  4.03778836143614 -0.96763591099110
 6 -1.83887097259726  1.48890163456346 -0.70045606200620
 6  1.74744328932893  0.31605316681668 -0.53114167606761
 6  2.05208852995300 -2.12332511981198 -0.27063469556956
 6 -0.42865512441244  1.48580990229023 -0.76041940174017
 6  0.34297912871287  0.32151381918192 -0.51626488728873
 1 -10.96040278177818  1.44754653995400 -0.21865371057106
 1 -12.71351482458246 -1.71394140784078  2.41896979167917
 1 -11.06769443904390 -1.88327752275228  1.81633491609161
 1 -12.43306694029403 -3.26351545884588  0.35513037513751
 1 -9.90832623392339  0.30908258385839  2.67421604550455
 1 -10.87802796939694  1.77822089908991  2.64626934883488
 1 -11.70119771207121  0.38834225322532  3.31241541934193
 1 -13.63762496429643  0.47217321962196  0.25610208050805
 1 -13.74777054765477  0.61611321872187  2.01954595659566
 1 -13.01757044244424  2.02213583538354  1.17100758405841
 1  12.74592195889589  2.18722367186719  0.39752759595960
 1  12.91811623872387  1.61316535543554  2.21574917611761
 1 -12.55278875747575 -2.26787358385839 -1.78820301100110
 1  13.60531011581158 -0.76366611241124  0.99163949984999
 1 -9.25000736643664 -1.18097295629563  0.30316787678768
 1  13.79470461456146 -0.98072111141114 -1.31512666866687
 1  13.18747516501650  0.74416299419942 -1.59541946574657
 1  9.16299299689969  2.06618667046705  1.50637588498850
 1  10.26257811941194  2.76914951735173  0.22253916941694
 1  10.79478315161516  3.03786875857586  1.95217136813681
 1  11.92391523282328 -0.60925817441744  2.40148657005701
 1  10.09756472707271 -0.34635717671767  2.47950107820782
 1  11.34145504460446  1.02081987878788  3.31990693369337
 1 -10.14376687468747 -0.30768085738574 -2.74646204190419
 1 -11.27090614691469  1.05628162666267 -2.84899196449645
 1 -11.76254409950995 -0.69249800110011 -3.37586534413441
 1 -14.42515578887889 -2.54016296889689 -0.24369257305731
 1  8.66608567656766  0.43180340554055  0.25023766996700
 1 -8.82416758565857  1.79638129092909 -0.20298561896190
 1  11.61797753225323 -2.47664916091609 -2.03103595509551
 1  10.08868173457346 -1.35065116681668 -2.15191112511251
 1  11.70661995569557 -0.93657674777478 -2.81788773687369
 1  15.20496967726773  1.05150325012501  1.14232220112011
 1  9.34701447774778 -2.32782586428643  0.04671822932293
 1 -5.53910837183718 -1.11989914061406  0.24030142694269
 1 -7.00513941204120 -1.03964593779378  1.11567381978198
 1 -7.11412764796480 -1.49581803000300 -0.34722293709371
 1 -6.68330061656166  2.57039583468347 -0.50377357905791
 1  7.03810735973597 -3.56293971657166  1.14302399809981
 1  6.09819716491649 -3.85014020182018 -0.45223481468147
 1  8.05850574797480 -4.02824900950095 -0.23280631333133
 1  6.61505993289329 -0.19628686808681 -0.42165428732873
 1 -4.31996422802280  0.42640230543054 -0.45598165576558
 1  4.79790339383938 -2.54579383238324  0.12737507670767
 1 -4.37510355605561  3.81016899869987 -0.44087374287429
 1  4.33780385658566  0.43906124502450 -0.78550776817682
 1 -1.46150590879088  3.99318076477648 -1.89491776367637
 1 -1.17409024742474  4.11133829112911 -0.27243920372037
 1 -2.81361084918492  4.81340375587559 -0.97907620132013
 1 -2.28419730013001  0.50970759625963 -0.50440517051705
 1  2.21902094419442  1.14651864106411 -0.75894290939094
 1  2.95214374207421 -2.89727613001300  0.41110948944894
 1  0.91644671597160 -2.00038933003300  0.22053076797680
 1  1.81047379677968 -2.72832061926193 -1.42506674967497
 1  0.11611749664966  2.54227406710671 -0.80419741124112
 1 -0.38281117711771 -0.51568173797380 -0.20086074107411

