%nproc=4
%Mem=4GB
# td=(NStates=1) CAM-B3LYP/6-31G(d,p) 

TD

0 1
 8 -14.22277815301530 -1.92433081478148  0.42279253455346
 8  14.84905674247425  0.77026461306131  0.33818441434143
 6 -11.80915377497750  0.14769084398440  1.29345416541654
 6 -10.99449641214122  0.31220399139914 -0.01623791099110
 6 -11.99768524912491 -1.37263174757476  1.42861070237024
 6 -12.81817521102110 -2.07732879767977  0.19415356625663
 6 -11.58088337723772 -0.29960743904390 -1.22209769966997
 6  11.19908323892389  1.06782842534253  1.04493477317732
 6 -11.07143861706171  0.55338707750775  2.48862591329133
 6 -13.21038720112011  0.90797644454445  1.27432850965096
 6  12.56796397689769  1.62237166366637  0.79554694089409
 6 -12.37711869776978 -1.43755162296230 -1.08449121782178
 6  13.45249687058706  0.46558423102310  0.45190250915092
 6  10.73585305960596 -0.02906231643164  0.09800338543854
 6 -9.53593235713571  0.01987913971397  0.14414442204220
 6  13.08464644224422 -0.23913113251325 -0.84430001630163
 6  11.61580466926693 -0.56060110541054 -0.77604266306631
 6  10.20671755735574  2.28198751075108  0.98337105050505
 6  11.15243607610761  0.36173534893489  2.37155771707171
 6 -11.19826432393239  0.12140378187819 -2.54910716891689
 6 -8.48667476777678  0.90641562396240 -0.04304792729273
 6  9.33082801210121 -0.39900767656766  0.05545562936294
 6  11.12035198069807 -1.42128509530953 -1.99188879357936
 6 -7.10848217111711  0.48025526732673  0.12396030673067
 6  8.75914237063706 -1.61328112561256  0.06784164316432
 6 -6.74648607010701 -0.98895765266527  0.26783967256726
 6  7.45329381688169 -2.03657652965297 -0.01309237153715
 6 -6.17581735773577  1.42982655715572 -0.06141799839984
 6  7.21078427262726 -3.53158688088809  0.17721793999400
 6  6.47103437243724 -1.10781106980698 -0.28707104950495
 6 -4.80331430513051  1.28542208140814 -0.19015992939294
 6  5.05485633153315 -1.46194403730373 -0.28841662186219
 6 -4.03271464386439  2.42860588678868 -0.43008419741974
 6 -2.62002244034403  2.54540249784979 -0.58722146994699
 6  4.05167913341334 -0.61327183328333 -0.58852836923692
 6  2.61890893949395 -0.87359183068307 -0.53043799639964
 6 -2.03595214541454  3.83251783438344 -0.93971311871187
 6 -1.84259134463446  1.29215195959596 -0.54786080248025
 6  1.71901044604460  0.21406296779678 -0.72980154205421
 6  2.20485380648065 -2.19653244054405 -0.06495412751275
 6 -0.46346860576058  1.35751707300730 -0.73651701150115
 6  0.28884371517152  0.19120078787879 -0.75912917371737
 1 -10.95219196069607  1.50105189048905 -0.17158900410041
 1 -12.41702517561756 -1.85200521422142  2.35739363406341
 1 -10.94225189478948 -1.63117231223122  1.56179946254625
 1 -12.34114774837484 -2.99946905420542  0.30409527162716
 1 -9.95685108640864  0.18818049364937  2.32982160606061
 1 -11.16197636423643  1.80432350935094  2.42360708260826
 1 -11.58997658995900  0.30106352535254  3.54364854265427
 1 -13.82829403120312  0.58474447674767  0.38374484478448
 1 -13.83838960956096  0.91471307870787  2.18054205620562
 1 -13.08792747814781  1.87116073787379  1.16746723002300
 1  12.70919828652865  2.22450740024002 -0.15660781758176
 1  13.00255468256826  1.99065310421042  1.79367696889689
 1 -12.72574605320532 -2.10512730923092 -1.89107329802980
 1  13.28914849964997 -0.35572531833183  1.33907424332433
 1 -9.24876724242424 -1.07482234123412  0.11981954195420
 1  13.68357350145015 -1.11162420172017 -1.03373852985299
 1  13.33191960946095  0.44503308120812 -1.76323624742474
 1  9.15898259585959  2.04518457025703  1.29937518491849
 1  10.08711057265726  2.65246784918492  0.11522843834383
 1  10.32019569286929  3.12042701440144  1.63698984998500
 1  11.65666850815082 -0.45931317991799  2.52352877427743
 1  10.14785975657566  0.05341280028003  2.55894902300230
 1  11.51103200230023  1.17558535533553  3.18618356135614
 1 -10.22499499749975  0.16711662236224 -2.84358175387539
 1 -11.83622267856786  1.03476947544754 -2.90613767906791
 1 -11.88196604170417 -0.25635438673867 -3.30039779737974
 1 -14.67073034633463 -2.33628258085809 -0.31195939973997
 1  8.68597766576658  0.42022224742474  0.41345399159916
 1 -8.79793496239624  1.88668032083208 -0.28307362776278
 1  11.47852358685869 -2.51060255625563 -1.73129598109811
 1  10.10016288268827 -1.36518261996200 -2.41937787178718
 1  11.67346664036404 -1.18682177227723 -2.84641058915892
 1  15.30633981428143  0.92513061286129  1.15777374627463
 1  9.46418619491949 -2.52571565326533  0.12316587408741
 1 -5.78557301830183 -1.19674682538254  0.20705810261026
 1 -7.07323622172217 -1.18751072427243  1.17710996339634
 1 -7.23956019121912 -1.81383983218322 -0.47128534333433
 1 -6.63097538403840  2.31458025312531 -0.27632083378338
 1  6.40010355935594 -3.41017444004400  1.07997769346935
 1  6.95613295849585 -4.26660184798480 -0.69692928412841
 1  8.36653655105511 -3.90814699929993  0.56391335863586
 1  6.66811523842384 -0.09319655905591 -0.51223334523452
 1 -4.43846607820782  0.35094475967597  0.03229717211721
 1  4.98168177167717 -2.53412266526653  0.01903424262426
 1 -4.60453649934993  3.28077605940594 -0.30850050555055
 1  4.25172524872487  0.69778711761176 -0.60314953235324
 1 -1.16976673487349  3.74358580528053 -1.69426769866987
 1 -1.65865870427043  4.27814497179718 -0.04522648244824
 1 -2.67810729882988  4.64732714821482 -1.30991928562856
 1 -2.22645152555255  0.40384701020102 -0.34961969196920
 1  2.19044808690869  1.11742573177318 -0.95902291739174
 1  2.41668019571957 -2.27778418081808  1.04908328682868
 1  1.09323439473947 -2.45824511561156 -0.21442272737274
 1  3.06785953535354 -3.12204999219922 -0.47397164016402
 1  0.01850773567357  2.33713355305531 -0.81409840134013
 1 -0.08206110211021 -0.76212638243824 -0.54232488748875

