%nproc=4
%Mem=4GB
# td=(NStates=1) CAM-B3LYP/6-31G(d,p) 

TD

0 1
 8 -14.10862673787379 -1.93633201490149  0.44420467576758
 8  14.72483432023202  1.13126071267127 -0.01554095819582
 6 -11.88781164076408  0.11471754665467  1.25516033603360
 6 -11.02483944644464  0.42514528552855 -0.08378466566657
 6 -11.93721920252025 -1.39719420382038  1.47755559685969
 6 -12.67689108260826 -2.09282034683468  0.16726087698770
 6 -11.56274156305630 -0.39310678897890 -1.25771126102610
 6  11.06058938953895  0.95254689718972  1.04113439313931
 6 -11.00617209040904  0.66815855465547  2.35632268296830
 6 -13.13560972337234  0.91174682158216  1.21696277307731
 6  12.52200938143814  1.57529695619562  0.82366975317532
 6 -12.31240222612261 -1.56089395719572 -1.07340010871087
 6  13.52573419431943  0.53091076367637  0.25819313821382
 6  10.60147962226223 -0.00242965316532  0.01458504360436
 6 -9.58942770667067  0.11595874767477  0.01006101370137
 6  12.90867884548455 -0.05954317371737 -0.94816040234023
 6  11.53214630343034 -0.50569561486149 -0.91097615641564
 6  10.10618750435044  2.15206451845185  1.09074178757876
 6  11.13314414691469  0.33094226962696  2.48222878417842
 6 -11.39109360686069  0.23564520602060 -2.58474073227323
 6 -8.59106520682068  0.93315829822982 -0.15988961146115
 6  9.25790071937194 -0.50650842664266  0.08598868266827
 6  11.22218216371637 -1.32138510531053 -2.16952655735574
 6 -7.16174749764977  0.54337157895790 -0.14443653295330
 6  8.77383383978398 -1.69602940044004 -0.15811095209521
 6 -6.83732515401540 -0.87376613351335 -0.01482859425943
 6  7.45123361086109 -2.12879575157516 -0.07013807610761
 6 -6.19195897189719  1.54365794029403 -0.20794265086509
 6  7.22128532273227 -3.66320004220422 -0.04003378517852
 6  6.38036530553055 -1.33808409710971 -0.06677902030203
 6 -4.78326229992999  1.30203374257426 -0.30809172257226
 6  5.06615746164616 -1.54558240114011  0.08579079887989
 6 -3.94575594799480  2.50530355655566 -0.48071926092609
 6 -2.52681311941194  2.39964792239224 -0.62640538833883
 6  4.09945391089109 -0.58595910201020 -0.17382689908991
 6  2.69514656325633 -0.85521999349935 -0.04204915751575
 6 -1.96248479867987  3.78634321692169 -1.00952009940994
 6 -1.77646473197320  1.34027677207721 -0.53174919131913
 6  1.73826237123712  0.16829839133913 -0.23997255915592
 6  2.29039236033603 -2.29179196649665  0.28621098899890
 6 -0.35979823872387  1.28342966426643 -0.52699605940594
 6  0.39709454025403  0.07045871367137 -0.18154141494149
 1 -11.04268100960096  1.54193597889789 -0.28975082028203
 1 -12.61521499459946 -1.53976399009901  2.24962285698570
 1 -10.81852952255226 -1.94281347634764  1.53555683828383
 1 -12.26949058265827 -3.22298140544054  0.41700656275628
 1 -10.08183358465847  0.06957863346335  2.33884250815081
 1 -10.49056922352235  1.67472054905491  2.28367308920892
 1 -11.65557314961496  0.53660707970797  3.40888506630663
 1 -13.85949715151515  0.35644164646465  0.47268373867387
 1 -13.70545631623162  0.77284889228923  2.26583058505851
 1 -12.94265295069507  1.84041766356636  1.07137762106211
 1  12.51104847154715  2.36162111161116  0.08785662886289
 1  12.78084251135113  1.93806784568457  1.71194879607961
 1 -12.76027950655066 -2.03611040754075 -2.11614580528053
 1  13.92138172297230 -0.01323106890689  1.08763909980998
 1 -9.44059642534254 -1.00461532053205  0.18154571457146
 1  13.46564170827083 -0.89649268856886 -1.30263541954195
 1  12.98485490299030  0.69081765966597 -1.77701762556256
 1  9.18704540214021  1.89212926472647  1.14102935033503
 1  10.18775063666367  2.62778538093809  0.10372728822882
 1  10.49203287658766  2.82514748644865  1.77716386738674
 1  11.84883772507251 -0.49528677727773  2.52549897129713
 1  10.20125509610961 -0.14780732173217  2.73807693579358
 1  11.20828172727273  0.99601739853985  3.22193713671367
 1 -10.40639313731373  0.61988189888989 -2.57813520922092
 1 -11.82666172247225  1.05653165166517 -2.61428849414942
 1 -11.89370721582158 -0.24452320362036 -3.36239399699970
 1 -14.59396266956696 -2.51075002760276 -0.17602580638064
 1  8.45780484848485  0.22840306550655  0.50100274647465
 1 -8.68863403230323  2.15960761356136 -0.12227754815482
 1  11.56517225172517 -2.41091258725873 -2.09251210271027
 1  10.05686855325533 -1.38857495919592 -2.22625855985599
 1  11.83511280498050 -0.92838592869287 -3.11595754385438
 1  15.19016819711971  1.49840794059406  0.74614258315832
 1  9.46208598489849 -2.36302938463846 -0.34777121962196
 1 -5.69895435643564 -0.90818796949695  0.03658105490549
 1 -7.05930482858286 -1.33202517571757  0.99627187958796
 1 -6.99593582878288 -1.45091353955396 -0.90232844764476
 1 -6.55204749124913  2.73417221232123 -0.47040024172417
 1  6.30334388338834 -3.96485990859086  0.76124582028203
 1  6.72372971817182 -4.01725691349135 -1.22497208840884
 1  8.21724162156216 -4.19548573317332  0.25790275757576
 1  6.53475190209021 -0.26865410481048 -0.19003112501250
 1 -4.44394662626263  0.34982464766477 -0.47236329392939
 1  4.55310891439144 -2.50396964996500  0.27560990019002
 1 -4.61203724942494  3.42289027082708 -0.40309996549655
 1  4.55329540574057  0.35312265116512 -0.15240445784578
 1 -1.26276603480348  3.69644109080908 -1.88703697559756
 1 -1.24010684908491  4.04803196049605 -0.24372633243324
 1 -2.61674116221622  4.51129354485449 -1.43198149184918
 1 -2.37595647604760  0.43406003150315 -0.36510124012401
 1  2.29268831093109  1.15665965516552 -0.52286930203020
 1  3.16996552425243 -2.77547394979498  1.02409078757876
 1  1.29934500580058 -2.43659295039504  0.88514722962296
 1  2.27379012841284 -2.87717550475048 -0.71862610561056
 1  0.07185307020702  2.29053889358936 -0.86530352185219
 1 -0.13632652865287 -0.80364053385339 -0.11410206520652

