%nproc=4
%Mem=4GB
# td=(NStates=1) CAM-B3LYP/6-31G(d,p) 

TD

0 1
 8 -13.99836571177118 -2.21232961466147  0.53727398269827
 8  14.75522735953595  1.08016560316032  0.11147174307431
 6 -11.86718957855786  0.15120119501950  1.21100592059206
 6 -11.00352731523152  0.37275004600460 -0.05522180938094
 6 -11.94172965356536 -1.33754823922392  1.48499634093409
 6 -12.55149854335434 -2.21495256005601  0.30290444134413
 6 -11.47396268516852 -0.43824130243024 -1.26795228512851
 6  11.09999332993299  0.92022366486649  1.05480576027603
 6 -11.10210168336834  0.76739847864786  2.45911296199620
 6 -13.26453261566157  0.72868851575157  1.05740681748175
 6  12.49578675917592  1.59562898939894  0.74532191839184
 6 -12.18375936183618 -1.61622949074908 -1.04306707540754
 6  13.51696331723172  0.49639731233123  0.36773409230923
 6  10.58976845114512 -0.19572898309831  0.07999158425843
 6 -9.57387615151515 -0.01430427862786  0.15794580218022
 6  13.03565154275427 -0.23203042244224 -0.88677426372637
 6  11.59769285808581 -0.61099614491449 -0.85622068086809
 6  10.14500138573857  2.12880219221922  1.13437615101510
 6  11.11096192869287  0.29825900130013  2.47796835813581
 6 -11.13181767926793  0.08056969846985 -2.63798605680568
 6 -8.53249935023502  0.81519650205020 -0.10867448994899
 6  9.22819774907491 -0.52112988878888  0.16137622142214
 6  11.24634457995800 -1.41555452225223 -2.06229583428343
 6 -7.06578790169017  0.60530777257726 -0.07251934123412
 6  8.73562001840184 -1.70050984848485 -0.18565370637064
 6 -6.67226864836484 -0.74461321822182  0.31163405200520
 6  7.36788527602760 -2.06393926592659 -0.13026408870887
 6 -6.18620839683968  1.58939251375138 -0.32297415401540
 6  7.09999319351935 -3.58357207940794 -0.00143992579258
 6  6.34590185918592 -1.23593388208821 -0.34965730813081
 6 -4.77026099979998  1.56570010921092 -0.26739765316532
 6  4.99054990089009 -1.66080392329233 -0.15674345454545
 6 -3.99847121952195  2.60456348254825 -0.58843003200320
 6 -2.56328676677668  2.66913487108711 -0.64556730453045
 6  3.96233019851985 -0.70528103420342 -0.21143065946595
 6  2.65286233483348 -0.85794026552655 -0.22749770237024
 6 -1.97699624982498  3.99424400700070 -0.86974612201220
 6 -1.80249733523352  1.47045979037904 -0.46485250165016
 6  1.80168871387139  0.25306686818682 -0.40939950185019
 6  2.03586690779078 -2.24774756205621  0.07564993289329
 6 -0.48290054895490  1.52284360566057 -0.51580494029403
 6  0.37586241704170  0.29479114691469 -0.32887614841484
 1 -11.26730347184719  1.51910369566957 -0.39181102630263
 1 -12.43383685678568 -1.62080209390939  2.36019391409141
 1 -10.85095276487649 -1.72395159015902  1.72193547614761
 1 -12.10221385498550 -3.34041314861486  0.20418528062806
 1 -10.14274967626763  0.29209088468847  2.51444006790679
 1 -10.81116128272827  1.75238831583158  2.34642936483648
 1 -11.70683827612761  0.64127754675468  3.36199037683768
 1 -13.64079528132813  0.41028703100310 -0.01504503420342
 1 -13.77596336693670  0.57992960036004  1.94940894289429
 1 -13.05653433883388  1.88263188498850  1.01454193749375
 1  12.53936130283028  2.23669861936194 -0.19954211101110
 1  12.73741816891689  2.12932697159716  1.71123872507251
 1 -12.45531901050105 -2.23465026152615 -1.97141133183318
 1  13.68230781558156 -0.14840458625863  1.21768210411041
 1 -9.60838320402040 -1.07219207820782  0.47700526052605
 1  13.39170431453145 -1.10385342464246 -1.03036819281928
 1  13.38066448394840  0.30832941084108 -1.56169609340934
 1  9.12128882648265  1.79854990679068  1.36574182158216
 1  9.98208006960696  2.59259186158616  0.07587450295029
 1  10.44753842714271  3.00282525422542  1.54172032303230
 1  11.49107194849485 -0.66759400800080  2.51407782918292
 1  9.94390936153615  0.24691215021502  2.92195532363236
 1  11.64207510661066  0.98685648244825  3.17532247524752
 1 -10.24935743374338 -0.01827191649165 -2.80966836253625
 1 -11.62722177847785  1.16095209370937 -2.48925599089909
 1 -11.64117196229623 -0.51621037233723 -3.35067282488249
 1 -14.33399667296730 -2.62294124672467 -0.26689489328933
 1  8.56629569756976  0.19985021022102  0.48787143334333
 1 -8.68653382228223  1.77031868466847 -0.48060338073807
 1  11.45427116161616 -2.30813230923092 -1.80531338283828
 1  10.14580744714472 -1.39916601830183 -2.30932686668667
 1  11.73891318501850 -1.11510460056006 -3.04539048714871
 1  15.14795397569757  1.34038213801380  0.87099506840684
 1  9.21043081938194 -2.52492557425743 -0.42591903440344
 1 -5.48876333733373 -0.85738288898890  0.55788318511851
 1 -7.06831572967297 -1.14930690389039  1.31668392079208
 1 -7.06075231043104 -1.47074552275228 -0.40490870567057
 1 -6.47660994749475  2.55473426852685 -0.68981218291829
 1  6.61773532253225 -3.90699412201220  0.88380807650765
 1  6.62993033823382 -4.06955214301430 -0.90634022522252
 1  7.90577047444744 -4.19237542214221  0.00806777407741
 1  6.46627505440544 -0.11357859725973 -0.26286840874087
 1 -4.32667489908991  0.58438810401040 -0.21272733033303
 1  4.76251985548555 -2.69927918091809 -0.14096175697570
 1 -4.69619566526653  3.36896487828783 -1.10406006150615
 1  4.37013708990899  0.39198653755376 -0.42376159355936
 1 -1.28389814801480  3.98878032473247 -1.68225649754976
 1 -1.23984682308231  4.25369252655266 -0.05154711451145
 1 -2.57050653875388  4.76867928342834 -0.91905019871987
 1 -2.52213109350935  0.51152777827783 -0.62297702770277
 1  2.11267030913091  1.20566455565557 -0.94494150925093
 1  2.28066659435944 -2.88002440484048  1.03668204670467
 1  0.96212128342834 -2.16554584568457 -0.08105939103910
 1  2.43259600900090 -2.90995878307831 -0.75899014201420
 1 -0.07554166926693  2.39609944964496 -0.62032902440244
 1 -0.34074697069707 -0.62057222702270 -0.28355901090109

