%nproc=4
%Mem=4GB
# td=(NStates=1) CAM-B3LYP/6-31G(d,p) 

TD

0 1
 8 -14.25866174137414 -1.89230761246125  0.39066932223222
 8  14.83016485328533  0.79102668926893 -0.07124652875288
 6 -11.76955981558156  0.12435851075108  1.13367818781878
 6 -10.98624558705871  0.23441621262126 -0.18683497069707
 6 -12.08389386998700 -1.46868135253525  1.43261110241024
 6 -12.84275766926693 -2.09317038183818  0.23853800470047
 6 -11.65385067396740 -0.49933741204120 -1.31770726062606
 6  11.21391472207221  1.07812945544554  1.03099337903790
 6 -11.07030850405041  0.74638637743774  2.39288633933393
 6 -13.11701786418642  0.79821546844684  1.09004008080808
 6  12.64126130663066  1.45835526202620  0.73071045724572
 6 -12.48012899879988 -1.51738960676068 -1.11811458015802
 6  13.53765538643864  0.30996866946695  0.29833715261526
 6  10.73185265956596  0.09387997779778 -0.13456987188719
 6 -9.55826459035904 -0.07345019321932 -0.05024501690169
 6  12.98751672927293 -0.23576079547955 -1.08138372467247
 6  11.57398048684868 -0.56032107740774 -1.01442650145015
 6  10.37272415801580  2.30754006600660  1.00786349974998
 6  11.10022085458546  0.27296647204720  2.40141070237024
 6 -11.12919741724173  0.02445408690869 -2.72303456165617
 6 -8.45882198249825  0.68473345574557 -0.25805942844284
 6  9.29126405570557 -0.34720249604961 -0.07970788698870
 6  11.05377532303230 -1.37200016681668 -2.25415502020202
 6 -7.09432075497550  0.38536577837784 -0.12859494879488
 6  8.82642909930993 -1.61462125962596 -0.12182732373237
 6 -6.70195161666167 -1.03103186008601  0.03710659925993
 6  7.38383687118712 -2.09394226622662  0.04393333103310
 6 -6.19572934893489  1.55215879037904 -0.11866372297230
 6  7.21214440864086 -3.49244296649665  0.33384360256026
 6  6.32623989298930 -1.20249053775378 -0.12336467886789
 6 -4.70502447614762  1.43143668286829 -0.13174408780878
 6  5.07587843374337 -1.50727857075708  0.07948016781678
 6 -4.05552692509251  2.55356838303830 -0.41592278127813
 6 -2.56898733683368  2.70013797139714 -0.42052480028003
 6  3.94259822532253 -0.59485999209921 -0.16718623502350
 6  2.60606765536554 -0.82526699819982 -0.10368532113211
 6 -1.92880143034303  3.94075865846585 -0.76297544494449
 6 -1.84216130163016  1.48928167256726 -0.25647166356636
 6  1.72735128012801  0.25503706520652 -0.34314287618762
 6  2.15291861296130 -2.12872565986599  0.29773214111411
 6 -0.48041029992999  1.45788711001100 -0.30851421122112
 6  0.31375620642064  0.27805947374737 -0.05621888268827
 1 -11.04656139763976  1.23128491379138 -0.66232807800780
 1 -12.49980345344534 -1.54349436313631  2.30830872557256
 1 -11.05968363796380 -1.75657485248525  1.28224150675068
 1 -12.47948158175818 -3.13375248254825  0.37983284538454
 1 -10.09858525982598  0.34527620322032  2.48523714761476
 1 -11.14052421902190  1.76694977197720  2.30785550745075
 1 -11.75055264756476  0.70371379037904  3.30901507930793
 1 -13.71590279207921  0.37984398669867  0.14772124242424
 1 -13.66030180078008  0.69174078147815  2.04810881288129
 1 -13.02297098249825  1.85451907370737  0.90511099439944
 1  12.73438080478048  2.11260621012101 -0.08800095689569
 1  13.14746917401740  2.00359439833983  1.56639424062406
 1 -12.85044852345235 -2.16102289878988 -1.93932812351235
 1  13.42233181798180 -0.59943968976898  1.03416375227523
 1 -9.41634400010001 -1.13011787078708  0.42517007700770
 1  13.51729687378738 -1.07939097839784 -1.46875203120312
 1  13.46989340684068  0.48538711661166 -1.90526044984498
 1  9.50137683528353  1.93997404920492  1.50192543994399
 1  10.27726958855886  2.55566816921692  0.02264918041804
 1  10.94987866116612  3.02377734943494  1.65756190719072
 1  11.93925676697670 -0.58908615721572  2.48659508090809
 1  10.18380335093509 -0.09162170317032  2.70103323142314
 1  11.43555445454545  1.02231002780278  3.02585752875288
 1 -10.06329882788279 -0.13415350465046 -2.87438483418342
 1 -11.37235629192919  1.19020501900190 -2.99680674597460
 1 -11.69940778587859 -0.51901065236524 -3.70806856445645
 1 -14.70824409770977 -1.82824177677768 -0.53743194699470
 1  8.67457652565257  0.49256948214822  0.25699834603460
 1 -8.78180334923492  1.78926057885789 -0.46126144654465
 1  11.46560229472947 -2.52836433243324 -2.13982683418342
 1  10.02955582198220 -1.12750885258526 -2.43325925992599
 1  11.44139343304330 -0.86338942904290 -3.20186613471347
 1  15.21401058135813  1.24441254105410  0.74207217611761
 1  9.53151292759276 -2.40732381408141 -0.26684312681268
 1 -5.72517697869787 -1.32063921462146  0.16408380518052
 1 -7.04064296239624 -1.29407138033803  0.95088734113411
 1 -6.95553178837884 -1.91847029522952 -0.65647386218622
 1 -6.59306159265927  2.53939273437344 -0.44879808150815
 1  6.87405095409541 -3.82827625022502  1.33447314301430
 1  6.65242258745875 -4.10494568236824 -0.54295388658866
 1  8.23793369076908 -3.87690387498750  0.43425039233923
 1  6.70376880378038 -0.23474071347135 -0.54187630953095
 1 -4.04788702030203  0.59530919611961 -0.05958201580158
 1  4.75638924242424 -2.47691694469447  0.36318865806581
 1 -4.76508255395540  3.38033601540154 -0.25560521602160
 1  4.56884696089609  0.35324266316632 -0.61684090149015
 1 -1.46644640284028  3.75830727742774 -1.79956822872287
 1 -1.34248708710871  4.12218937623762  0.07706574677468
 1 -2.58963845194519  4.73717613311331 -0.78380667436744
 1 -2.37465634603460  0.49275590109011  0.10385565556556
 1  2.13716275837584  1.12194618381838 -0.82841985708571
 1  2.29868839653965 -2.31694809720972  1.29614799329933
 1  1.04804987628763 -2.51805109620962  0.20345906080608
 1  2.89116186558656 -2.97651543874387 -0.24996923992399
 1  0.08283416831683  2.42016185588559 -0.53827081858186
 1 -0.14675757175717 -0.58546871667167  0.04058340334033

