%nproc=4
%Mem=4GB
# td=(NStates=1) CAM-B3LYP/6-31G(d,p) 

TD

0 1
 8 -14.27062293749375 -1.87487586928693  0.67791804710471
 8  14.85304714151415  0.81119870647065  0.31935253115312
 6 -11.67573043264326 -0.05232915801580  1.32112693269327
 6 -10.95184214671467  0.31527429842984  0.10692440524052
 6 -12.06126160676068 -1.56573105750575  1.37103494479448
 6 -12.96160955445545 -2.07534859965997  0.26252040294029
 6 -11.68808409730973 -0.30291777007701 -1.15231072097210
 6  11.10515384598460  0.91718336083608  1.04085436513651
 6 -10.80877235043504  0.37108884768477  2.56287333803380
 6 -12.97819398179818  0.84583022992299  1.44480555735574
 6  12.57198437893789  1.38976840334033  0.96183356955696
 6 -12.56474746064607 -1.32452031983198 -1.02324509320932
 6  13.50657227812781  0.30265793839384  0.57554487338734
 6  10.72341181548155 -0.07209661986199  0.02639622472247
 6 -9.56639540344034 -0.05531838003800  0.02815282288229
 6  13.04610258785879 -0.30136735613561 -0.88035362166217
 6  11.53755684448445 -0.49523456875688 -0.89099415821582
 6  10.21906879247925  2.26092540454045  1.02937565096510
 6  10.87518835133513  0.38426760216022  2.47291785308531
 6 -11.33826832433243  0.23430507200720 -2.46137839603960
 6 -8.54302040234023  0.82210719311931 -0.19501312381238
 6  9.25752068136814 -0.37647542334233  0.03451353515352
 6  11.10226017151715 -1.30770373717372 -2.17148675337534
 6 -7.11217254015402  0.45071231303130 -0.22863495279528
 6  8.84669112551255 -1.65566536403640 -0.03274841584158
 6 -6.66639806130613 -0.99916867376738  0.12544543314331
 6  7.45857434493449 -2.03553642564256 -0.05871693399340
 6 -6.23477325332533  1.39903347784778 -0.36692854945495
 6  7.09276247044704 -3.50557427962796  0.22784300250025
 6  6.42464973397340 -1.11922221092109 -0.23424576697670
 6 -4.86198017171717  1.32217575677568 -0.41838275167517
 6  5.12667351325133 -1.43636147904790 -0.14057183738374
 6 -4.04254562696270  2.38728175437544 -0.80063125212521
 6 -2.54598503660366  2.54949290689069 -0.71967471527153
 6  4.08956292179218 -0.51968247434743 -0.25346486288629
 6  2.69456650525052 -0.73597806930693 -0.33512846544654
 6 -2.05297384758476  3.86873145574557 -1.11107025442544
 6 -1.70789787528753  1.43398614301430 -0.57413342974297
 6  1.87930647564756  0.39090065156516 -0.58947750965097
 6  2.17496081718172 -2.11888467576758 -0.04844247634763
 6 -0.33034529342934  1.44919624092409 -0.68713207300730
 6  0.48168299909991  0.38125979377938 -0.44466772757276
 1 -10.88997573907391  1.42282406770677 -0.03712555775577
 1 -12.45865933903390 -1.59394940864086  2.29190708540854
 1 -11.26679434903490 -2.23661285628563  1.27389067166717
 1 -12.62384601820182 -3.18024713201320 -0.05435057295729
 1 -10.05068046934694 -0.33170149454945  2.58036666056606
 1 -10.35327549414941  1.27907098409841  2.10623534543454
 1 -11.32601019331933  0.43160657965797  3.42746692449245
 1 -13.51072227402740  0.69984598689869  0.42910938123812
 1 -13.48179394999500  0.21978358575858  2.41368537053705
 1 -12.69813849924993  1.81594521632163  1.71437192049205
 1  12.58283565026503  2.34790974047405  0.22218006120612
 1  12.94968939603960  1.97634167306731  1.87927552875288
 1 -13.30181365996600 -1.66038283478348 -1.96573076377638
 1  13.56573615841584 -0.60494023982398  1.35483581948195
 1 -9.23182554825483 -1.25106996599660  0.01773933393339
 1  13.62606775087509 -1.26813985328533 -1.01721687768777
 1  13.53115953345335  0.33600217811781 -1.65953587738774
 1  9.30854755235524  2.27593764556456  1.63921916931693
 1  10.08315017661766  2.81989459185919  0.10248716421642
 1  10.91613528682868  2.96345131683168  1.80681683268327
 1  11.45708855015502 -0.51147839643964  2.55563198459846
 1  9.91709668026803  0.18676613561356  2.83018614671467
 1  11.24431533063306  1.08285608240824  3.05683062606261
 1 -10.29672217021702 -0.05092518181818 -2.84883227892789
 1 -11.60277933423342  1.33526952545255 -2.60675774107411
 1 -11.93564140924092 -0.31589034033403 -3.14631238883888
 1 -14.80121339463946 -1.90600955355536 -0.14111231503150
 1  8.66545561356136  0.51379160436044  0.23033567976798
 1 -8.79339450835084  1.91320297309731 -0.22637795819582
 1  11.31968770327033 -2.30684218021802 -2.10738358985899
 1  10.00283314971497 -1.29617571927193 -2.32477841184118
 1  11.48713800750075 -0.75885897599760 -3.09785573367337
 1  15.08109729002900  1.27110521032103  1.17830579947995
 1  9.67325710201020 -2.49528260996100 -0.00070651315132
 1 -5.77834229522952 -1.01137828852885  0.20522791959196
 1 -7.33262216031603 -1.31080305350535  1.23297554995500
 1 -7.20109634483448 -1.51189963816382 -0.66543475827583
 1 -6.82825511201120  2.33080187528753 -0.65900910261026
 1  7.01943549254925 -3.54471789438944  1.41692138783878
 1  6.02053939913991 -3.53325851365136 -0.44873446464646
 1  7.79464936233623 -4.24507069166917 -0.16711974467447
 1  6.79510793769377 -0.04287152655265 -0.26368849074907
 1 -4.54913714531453  0.36550621582158 -0.25844190179018
 1  4.86474007750775 -2.62222147514751  0.01772411161116
 1 -4.72967901360136  3.23777175897590 -1.09637929342934
 1  4.35681575777578  0.51225856475648 -0.14657387478748
 1 -1.52007176537654  3.81315276197620 -2.15000327222722
 1 -1.24561740014001  4.10204736203620 -0.23681564136414
 1 -2.91362085018502  4.50499291479148 -1.19672796649665
 1 -2.25280416081608  0.52294892039204 -0.55578030803080
 1  2.15773481558156  1.38523251245125 -0.79128614371437
 1  2.56601512921292 -2.32587899029903  0.95867424592459
 1  1.14783985528553 -2.23084237533753 -0.21220250535053
 1  2.46573932333233 -2.84707249444944 -0.78902314531453
 1  0.04304018891889  2.44306414611461 -0.88820581208121
 1 -0.03186608260826 -0.55302547234724 -0.27227788278828

