%nproc=4
%Mem=4GB
# td=(NStates=1) CAM-B3LYP/6-31G(d,p) 

TD

0 1
 8 -13.99744561976198 -2.06224460616062  0.52525278057806
 8  14.78788062486249  0.77937552415242  0.10189078497850
 6 -11.63936679627963 -0.06793071817182  1.34070889088909
 6 -10.96843380588059  0.24845761676168 -0.02619890709071
 6 -11.83604908550855 -1.49354383878388  1.31418926022602
 6 -12.64673806730673 -2.10109117391739  0.14866901780178
 6 -11.45481076997700 -0.42023950225023 -1.18674416431643
 6  11.02628595919592  0.93128477097710  1.02310258995900
 6 -10.87177865106511  0.36453819261926  2.55640269096910
 6 -13.02208837123712  0.64962060896090  1.41138221502150
 6  12.50189737023702  1.45792521902190  0.80228761496150
 6 -12.34143512941294 -1.53814168196820 -1.06585935463546
 6  13.44173579447945  0.30686835943594  0.31262858175818
 6  10.69054852915291 -0.07453686388639 -0.02629904480448
 6 -9.46380514441444 -0.01997484568457  0.01452145974597
 6  12.98416639423942 -0.26680389978998 -0.92724831113111
 6  11.57221030983098 -0.56750179547955 -1.00630568936894
 6  10.14416130173017  2.17465677767777  0.89278199159916
 6  10.80179101160116  0.24343351875188  2.39053961526153
 6 -11.19251374887489  0.09588122962296 -2.57836009420942
 6 -8.50702680298030  0.79559454185419 -0.19520314281428
 6  9.33108803810381 -0.53354112991299  0.07032711651165
 6  11.08479842534253 -1.44133710051005 -2.03110271497150
 6 -6.99738106100610  0.47495473727373 -0.13290537983798
 6  8.69270572697270 -1.73737353485349 -0.10296543754375
 6 -6.60167158865887 -0.96151490839084 -0.03985109650965
 6  7.29620810831083 -2.05969884188419 -0.05937700000000
 6 -6.25479525552555  1.58301187568757 -0.36737859445945
 6  6.97268046224622 -3.50732445464546  0.23588380658066
 6  6.35065233423342 -1.16645693439344 -0.06305864826483
 6 -4.80349432313231  1.48813235243524 -0.47455836923692
 6  4.92109295519552 -1.43739158205821  0.03856607640764
 6 -4.06925829822982  2.67392041824182 -0.65618680768077
 6 -2.60691112921292  2.80588854645465 -0.72746549434943
 6  3.96188015351535 -0.49856036213621 -0.04117363376338
 6  2.57334438303830 -0.69011348284828 -0.08264321692169
 6 -1.97070562076208  4.16423100570057 -1.08071721912191
 6 -1.79352643814381  1.56753949834984 -0.51724774117412
 6  1.82754129912991  0.46736829832983 -0.30557911981198
 6  1.95345866696670 -2.04664745204520  0.15358772667267
 6 -0.35449770867087  1.59757107840784 -0.49107246704670
 6  0.42364719551955  0.46417808560856 -0.33039630043004
 1 -10.97439418091809  1.12289407470747 -0.15190703590359
 1 -12.34881835493549 -1.95714572827283  2.28876677137714
 1 -10.92393006260626 -1.94064325932593  1.36745002760276
 1 -12.03269690329033 -3.09182829012901  0.25969083118312
 1 -9.81986738803880 -0.15657398179818  2.53695231913191
 1 -10.68045821242124  1.44539761676168  2.74953967586759
 1 -11.47755534783478 -0.03290987198720  3.54052823062306
 1 -13.77149835163516  0.34318032033203  0.56307277757776
 1 -13.66124189478948  0.40608221562156  2.31425542754275
 1 -13.13579226462646  1.89095271707171  1.48849933323332
 1  12.37534490119012  1.99198414791479 -0.06865902270227
 1  12.96179060616062  1.93183722262226  1.77968556975698
 1 -12.58885236383638 -2.08288508500850 -1.90654484518452
 1  13.53310289508951 -0.66621636743674  1.06664700060006
 1 -9.21656402210221 -1.13316817581758 -0.03380582058206
 1  13.66326147024703 -1.29170220952095 -1.09831498749875
 1  13.35082149964997  0.41710028792879 -1.80703062686269
 1  9.04811150875087  2.01260131193119  1.03819906730673
 1  10.42104396599660  2.61401400380038 -0.06179926442644
 1  10.64930860416042  2.71565653735374  1.68174432543254
 1  11.66017885918592 -0.51100834943494  2.66161258265827
 1  9.78655362596260 -0.21149369036904  2.57366049414941
 1  11.00080097919792  0.96018381518152  3.14092903590359
 1 -10.20113261126113  0.15843575427543 -2.60759815551555
 1 -11.70536959325933  1.01907790629063 -2.69975704100410
 1 -11.53845169026903 -0.58047679897990 -3.29455721332133
 1 -14.53857713101310 -2.50943989658966 -0.21939014281428
 1  8.53626269426943  0.31695192039204  0.25456810301030
 1 -8.70403557245725  1.96922857565757 -0.12024734513451
 1  11.59093482798280 -2.52883437943794 -2.02444529602960
 1  10.11172403880388 -1.42551865356536 -2.15413134713471
 1  11.72093138683868 -1.09218230833083 -2.89806575467547
 1  15.25284446474647  0.70484858465847  1.13937190609061
 1  9.36974675097510 -2.66682976467647 -0.27697413991399
 1 -5.59806426742674 -1.06027317801780 -0.15651825502550
 1 -6.97009590769077 -1.58987096029603  0.92808506090609
 1 -7.14067030223022 -1.61479992819282 -0.86467468226823
 1 -6.70042232873287  2.77620641574157 -0.39079228092809
 1  6.58517206620662 -3.69667308990899  1.24423411911191
 1  6.08449579477948 -4.11700688848885 -0.36149574077408
 1  7.91024092149215 -3.98460464506451  0.07948491579158
 1  6.51993041994199 -0.13883112251225 -0.14825694759476
 1 -4.24960719231923  0.59129879507951 -0.71950800840084
 1  4.76177978147815 -2.54119337233723  0.27754009320932
 1 -4.71960800650065  3.63462144394439 -0.55627528302830
 1  4.37886796299630  0.56731407030703 -0.32956217361736
 1 -1.46375613381338  4.34180562726273 -2.13222149404941
 1 -1.08040087848785  4.09519667696770 -0.37641960176018
 1 -2.73675316341634  4.96589900540054 -0.68192648634863
 1 -2.55777465786579  0.69815644114411 -0.23753848384838
 1  2.41713075517552  1.37551154035404 -0.64523153825383
 1  2.46415494319432 -2.47388379077908  0.99101748024802
 1  0.85823089438944 -1.88804809590959  0.46923563846385
 1  2.23247599699970 -3.02348013521352 -0.53260750375037
 1  0.16683256815682  2.48528836853685 -0.84610160166017
 1 -0.02396529252925 -0.40231040084008 -0.03088374337434

