%nproc=4
%Mem=4GB
# td=(NStates=1) CAM-B3LYP/6-31G(d,p) 

TD

0 1
 8 -14.09939581478148 -1.97379576127613  0.44627488278828
 8  14.76105794259426  0.99145673227323  0.24348494439444
 6 -11.71148400800080  0.12477855275528  1.40604542454245
 6 -10.98816577907791  0.38085085608561  0.14426813961396
 6 -11.98370385098510 -1.46986147054705  1.38025586688669
 6 -12.74409780328033 -2.09559062386239  0.24593874477448
 6 -11.59448473737374 -0.21977945624562 -1.04846033593359
 6  11.09124245484548  1.03656529902990  1.06867714741474
 6 -10.91521299449945  0.43777551635164  2.61381843254325
 6 -13.16254241664166  0.76760240714071  1.43230430723072
 6  12.43006018651865  1.60682010851085  0.77864525072507
 6 -12.33462444834483 -1.26919478727873 -0.99093186188619
 6  13.45244686558656  0.52599027162716  0.41129844874487
 6  10.71934140844084 -0.07749715991599  0.04297788288829
 6 -9.55411417531753  0.05242239403940  0.10686069366937
 6  13.05570354795479 -0.08792601200120 -0.80983656995700
 6  11.60077316611661 -0.57534257955796 -0.75341039983998
 6  10.00459734533453  2.15093440544054  1.16746946034603
 6  10.96049688218822  0.40690986638664  2.43509407070707
 6 -11.31638613611361  0.50748238973897 -2.40598285648565
 6 -8.56847294759476  0.84954993739374 -0.09942356485649
 6  9.29528445774577 -0.42223999979998  0.02300238403840
 6  11.30364030953095 -1.42373534033403 -1.98265787048705
 6 -7.15669699259926  0.46461370317032 -0.18863095239524
 6  8.80707716411641 -1.68976877437744 -0.12650779177918
 6 -6.77107852935293 -0.93408216511651  0.07027991659166
 6  7.44362284978498 -2.14698757075708 -0.01498256055606
 6 -6.16528630463046  1.35604917941794 -0.49323117971797
 6  7.17655084928493 -3.49297301950195  0.53834405260526
 6  6.35742301130113 -1.28155844454445 -0.37663000540054
 6 -4.83583755745575  1.36072961216122 -0.50653156655666
 6  4.94386523242324 -1.51589943284328 -0.24205198539854
 6 -3.93834520692069  2.46239926612661 -0.69221041004100
 6 -2.54883532163216  2.47820577817782 -0.71133388118812
 6  3.99596356185619 -0.69128963506351 -0.47053657005701
 6  2.66974402300230 -0.86989146064606 -0.45798075067507
 6 -1.82291084128413  3.88620320292029 -0.82346149354935
 6 -1.77170425592559  1.26127887228723 -0.64910092649265
 6  1.79103764876488  0.14267582908291 -0.66500506240624
 6  2.15360868196820 -2.14827761506151 -0.01928956105611
 6 -0.36331859075908  1.29885120642064 -0.67159051885189
 6  0.36142097289729  0.08339000680068 -0.59981324212421
 1 -11.05531227272727  1.58785057035704 -0.02832467766777
 1 -12.32741621472147 -1.63637365106511  2.38846674137414
 1 -10.98168583818382 -2.08109730473047  1.43256653925393
 1 -12.46234986858686 -3.26910601790179  0.12509737183718
 1 -9.91218661996200 -0.20685901030103  2.48216684058406
 1 -10.85196536313631  1.35515859285929  2.79520424232423
 1 -11.28733632593259 -0.07931451245125  3.59492367016702
 1 -13.83599480128013  0.39146514881488  0.70595706600660
 1 -13.49331510211021  0.41436304370437  2.56123012501250
 1 -12.97393607900790  1.80846446824682  1.09198968226823
 1  12.43355072177218  2.30784573407341 -0.01199335613561
 1  12.83690811791179  2.37889192809281  1.52490009120912
 1 -12.68585206380638 -1.64409120562056 -1.94043823452345
 1  13.40492007680768 -0.18164791059106  1.26324666056606
 1 -9.12324469016902 -1.10461532053205  0.06454401440144
 1  13.70601574567457 -1.05321836113611 -1.00661581758176
 1  13.19058547604761  0.48716729462946 -1.75078500230023
 1  9.01157785538554  1.88252830463046  1.55833108050805
 1  9.74410627222722  2.57423002540254  0.30411732723272
 1  10.49323299659966  2.95210018171817  1.84539069006901
 1  11.56815965726573 -0.49623687228723  2.72770919231923
 1  9.89114408500850  0.12041950095009  2.62873600170017
 1  11.20266116521652  1.21604940174017  3.23686862986299
 1 -10.22928542654265  0.56550646134613 -2.58431582728273
 1 -11.87374643094310  1.33553955245525 -2.67518458375838
 1 -11.56447429252925 -0.26475522682268 -3.15967372497250
 1 -14.61357463076308 -1.43424237683768 -0.54132233603360
 1  8.55622469046905  0.43682390759076  0.32329497569757
 1 -8.82141731063106  1.87460911371137 -0.09200452085208
 1  11.14403013751375 -2.50214171017102 -1.75332818431843
 1  10.17456032243224 -1.06875297699770 -2.47489342334233
 1  12.26092538623862 -1.07857094719472 -2.49589553765377
 1  14.89752893319332  1.69432753255325  0.96903487238724
 1  9.61337111341134 -2.37831091279128 -0.31738818131813
 1 -5.69193365436544 -1.04680183088309  0.24547194399440
 1 -7.25308420652065 -1.15710768396840  1.11307355975598
 1 -6.95226146134613 -1.63945239343934 -0.88872708750875
 1 -6.58283056955696  2.33848264336434 -0.44165736743674
 1  6.26562011101110 -3.48571199379938  1.30449014471447
 1  6.49134647984798 -3.96044123192319 -0.12674226542654
 1  8.22916281368137 -4.05404158875888  0.73987095439544
 1  6.48395682258226 -0.10391763116312 -0.79031115301530
 1 -4.18005023662366  0.45308497369737 -0.51194725232523
 1  4.70497410091009 -2.38224747774777  0.30776311551155
 1 -4.38416446214621  3.64405238703870 -0.89431908740874
 1  4.22235231143114  0.32716005490549 -1.02191140854085
 1 -1.02124188238824  3.95745719241924 -1.65304357625763
 1 -1.17109994839484  4.13894105140514  0.13197123732373
 1 -2.46180566866687  4.69015143064306 -1.06703499719972
 1 -2.10316919731973  0.30229685518552 -0.70570530053005
 1  2.27810685278528  0.93864785398540 -1.11738875397540
 1  1.90221874957496 -2.05240164256426  1.27176555505551
 1  1.22501757305731 -2.39409870097010 -0.62843412851285
 1  3.00213296269627 -3.09504729192919 -0.16728097109711
 1  0.26371225612561  2.23492333203320 -0.81543853535354
 1 -0.16483937993799 -0.87809797959796 -0.55833648864886

