%nproc=4
%Mem=4GB
# td=(NStates=1) CAM-B3LYP/6-31G(d,p) 

TD

0 1
 8 -13.92606848204820 -2.39489787148715  0.47834809010901
 8  14.85876771357136  0.71493908050805  0.20986158205821
 6 -11.65321818141814 -0.15897982308231  1.40446526652665
 6 -10.90068703120312  0.34977774877488  0.13753746654665
 6 -11.78010349094910 -1.74349883428343  1.34047188848885
 6 -12.59127252075208 -2.22535360016002  0.11773592449245
 6 -11.56243153205321 -0.34721219951995 -1.18020351025103
 6  11.12113544414441  0.99592123462346  1.04691497119712
 6 -10.94134560776078  0.31870360916092  2.68305535623562
 6 -13.01909807220722  0.56608225512551  1.47949902670267
 6  12.67151433193319  1.35278470497050  0.77876526272627
 6 -12.31434242014202 -1.48090595839584 -1.07074984368437
 6  13.50778239913991  0.26533420602060  0.32147946684668
 6  10.64272374667467  0.03941453125313 -0.04257067196720
 6 -9.53558232213221 -0.00788363656366  0.00556056365637
 6  13.04622259985999 -0.26214343374337 -0.90776636293629
 6  11.54156724552455 -0.64605965126513 -0.82576763556356
 6  10.37266415201520  2.26998631063106  0.88504121752175
 6  10.91139197169717  0.38082725812581  2.44401496279628
 6 -11.36255075257526  0.39897153865387 -2.50378263646365
 6 -8.58414451475148  0.97304228662866 -0.14819844234423
 6  9.25145007430743 -0.39712748854885  0.08935901970197
 6  11.12642258775877 -1.60668363516352 -1.93398300300030
 6 -7.13725504840484  0.68116535833583 -0.20859294859486
 6  8.72780923732373 -1.69682948044804  0.00843570257026
 6 -6.69916133763376 -0.74552330923092 -0.04109122052205
 6  7.36138462596260 -2.18778165016502  0.10189912761276
 6 -6.28819859585959  1.68025159965997 -0.48879073567357
 6  7.07519071327133 -3.57295101730173  0.24574479267927
 6  6.31408867786779 -1.28424871357136 -0.02944528692869
 6 -4.87929190289029  1.64323786298630 -0.47886880028003
 6  4.84545539143914 -1.55421326422642 -0.07594537473747
 6 -4.08626999939994  2.77661068726873 -0.67199838883888
 6 -2.70387082518252  2.74438239583958 -0.69744249204920
 6  3.93880784628463 -0.57533803990399 -0.29365888228823
 6  2.53123017161716 -0.67192166366637 -0.22291724432443
 6 -1.90567911811181  3.98684326692669 -1.11924107150715
 6 -1.89321640714071  1.59747249164916 -0.64382039843984
 6  1.67770631563156  0.50649221072107 -0.38153671557156
 6  2.09740306140614 -2.08405119241924  0.24956732463246
 6 -0.46028828772877  1.50051137243724 -0.66049940974097
 6  0.35096992779278  0.37047871567157 -0.42805606640664
 1 -11.03164990649065  1.44431621692169  0.20912906770677
 1 -12.27436090919092 -1.88819883358336  2.39826772147215
 1 -10.75939360896090 -2.21186038103810  1.56165944854485
 1 -12.17139077267727 -3.18482759005901  0.07349221132113
 1 -9.81427682898290 -0.15739406380638  2.72013063696370
 1 -10.77317748434844  1.40114319131913  2.77471219311931
 1 -11.16399399169917 -0.08523510451045  3.77225140294029
 1 -13.71644284608461  0.12932893519352  0.65874234453445
 1 -13.59884565516552  0.10770237763776  2.23985798779878
 1 -12.83599228462846  1.74161778357836  1.46950743404340
 1  12.62339970667067  1.99460440994099 -0.15918807560756
 1  12.95134956205620  1.98013205210521  1.67243484468447
 1 -12.56715019361936 -2.02345914241424 -1.87518170887089
 1  13.63824340914091 -0.59136888268827  1.24604494039404
 1 -9.21119348504850 -1.03979883888389  0.10737829782978
 1  13.54479962406241 -1.10900393969397 -0.98727388338834
 1  13.39004542204220  0.27461603950395 -1.84663458725873
 1  9.12738943654365  2.26117616941694  1.01706695409541
 1  10.53070493209321  2.86429903230323 -0.13259634413441
 1  10.76839051235124  3.00238521022102  1.56469262026203
 1  11.60749359065907 -0.44544179277928  2.35986240764076
 1  9.92426739733973 -0.01291383238324  2.56467959605961
 1  11.09049994909491  1.09391718851885  3.15249019201920
 1 -10.23725622362236  0.92311222192219 -2.89711710741074
 1 -12.09271832813281  1.29064506300630 -2.44908197349735
 1 -11.69671751685168 -0.15540429172917 -3.42237999559956
 1 -14.33803707700770 -2.42611156375638 -0.36946515031503
 1  8.52599166716672  0.40671089628963  0.27161980818082
 1 -8.94552972187219  1.99524117691769 -0.43636895729573
 1  11.31759749424942 -2.65613710971097 -1.71765461696170
 1  10.03279614601460 -1.40707680938094 -2.20729666366637
 1  11.49362865656566 -1.37196028612861 -2.92569851795179
 1  14.97638681898190  1.25959405920592  0.99292726162616
 1  9.43118289458946 -2.44407748944895  0.09072262976298
 1 -5.58833329432943 -0.71114826552655 -0.05863846704670
 1 -6.87813671177118 -0.94845681888189  0.96506875927593
 1 -6.91260749594959 -1.52913136133613 -0.86204441924192
 1 -6.82296458295830  2.65770456555656 -0.67191039273927
 1  7.02154570357036 -3.89400282288229  1.35518521422142
 1  6.29551689688969 -3.96935212301230 -0.31981157235724
 1  8.04353425082508 -4.23564974957496 -0.12333536623662
 1  6.34956338323832 -0.14069130853085 -0.21688381028103
 1 -4.08209044064406  0.78387805300530 -0.20151620922092
 1  4.69146274977498 -2.61986123912391 -0.12606026682668
 1 -4.67925397109711  3.69284726652665 -0.84779443494349
 1  4.42735281148115  0.32151949084908 -0.48041725912591
 1 -1.44774453265327  3.93688513521352 -2.13816208810881
 1 -1.14360719911991  4.17054421172117 -0.21552351215121
 1 -2.51495098319832  5.04064648014801 -0.95480377407741
 1 -2.20568944934493  0.58753537903790 -0.21300603060306
 1  2.12632167426743  1.37995198439844 -0.89609662476248
 1  2.92608113581358 -2.70452685508551  1.01882026052605
 1  0.93034810611061 -2.14140343144314  0.71012972787279
 1  1.81921467086709 -2.62283007020702 -0.91227547054705
 1  0.07847373227323  2.41151099079908 -0.70751774327433
 1  0.04907201120112 -0.52657282708271 -0.09149980498050

