%nproc=4
%Mem=4GB
# td=(NStates=1) CAM-B3LYP/6-31G(d,p) 

TD

0 1
 8 -14.09745562076208 -1.93248162986299  0.39384964026403
 8  14.87769960676068  0.75327291389139  0.18537913381338
 6 -11.83614647424742  0.18463453835384  1.15811063106311
 6 -10.94922188468847  0.29147191819182 -0.08659494669467
 6 -12.18155363596360 -1.35248973337334  1.44307214851485
 6 -12.83475686918692 -2.02308337313731  0.30701485238524
 6 -11.51911720062006 -0.52837031533153 -1.23482897279728
 6  11.13985731633163  1.04320596309631  0.94634491419142
 6 -11.09056052925293  0.60282202100210  2.36263331403140
 6 -13.13444960736074  0.97690333723372  1.00547162396240
 6  12.54191137163716  1.49751917841784  0.81070845704570
 6 -12.25376636253625 -1.58381624942494 -1.06859962866287
 6  13.52855447634763  0.33391106370637  0.40476779567957
 6  10.62407188148815  0.04963555335534 -0.20802721762176
 6 -9.57143590749075 -0.01510435863586  0.03885389298930
 6  13.07270524812481 -0.19175639503950 -0.97636322262226
 6  11.59550263906391 -0.52481752705271 -0.99573463226323
 6  10.27026391199120  2.32037134913491  0.90795350875088
 6  11.00696152865286  0.44152332773277  2.38044860616062
 6 -11.17782227972797  0.02241388288829 -2.59492175037504
 6 -8.49573567386739  0.85102008440844 -0.22888651115112
 6  9.24138906820682 -0.45761353715372 -0.01251116731673
 6  11.30821076657666 -1.36705967276728 -2.08464806950695
 6 -7.14008533143314  0.44651189298930 -0.04011610091009
 6  8.81474793119312 -1.75846564406441 -0.33522866386639
 6 -6.59094051555156 -1.02405116201620  0.19384227282728
 6  7.43112159965997 -2.03905677767777 -0.20026108840884
 6 -6.21219099509951  1.36339991449145 -0.39418127472747
 6  7.19869306350635 -3.59311303350335 -0.08507828962896
 6  6.32329959895990 -1.26991728042804 -0.26336867926793
 6 -4.85905987968797  1.33915745494549 -0.33436434983498
 6  4.92955380128013 -1.52368021092109 -0.05729350955096
 6 -4.00487185958596  2.40911393759376 -0.57094828382838
 6 -2.56564700280028  2.56717467506751 -0.50498324612461
 6  4.02976694219422 -0.52249275537554 -0.07160667706771
 6  2.60090713931393 -0.72484695619562  0.06661170857086
 6 -2.00485903610361  3.83134771737174 -0.73066221362136
 6 -1.75060214571457  1.50497324172417 -0.39394541094109
 6  1.73399194419442  0.32314387588759 -0.10707926982698
 6  2.09144246534653 -2.16796958425843  0.46178854675468
 6 -0.37912017091709  1.53108442974297 -0.37355071487149
 6  0.31140597139714  0.33590525832583 -0.14614787558756
 1 -10.88200494199420  1.33356514181418 -0.43369521472147
 1 -12.78717219031903 -1.49561957565757  2.20065796049605
 1 -11.05114278387839 -1.76372556755675  1.91556483908391
 1 -12.62206584018402 -3.19648875617562  0.41618648074808
 1 -10.01969737103710  0.23679535513551  2.31913053695370
 1 -11.03314348094810  1.74628770577058  2.38804352625262
 1 -11.42775036733673  0.36551997099710  3.41065524332433
 1 -13.85335653745375  0.75868187048705  0.11273774407441
 1 -13.91683745434544  0.71871347874787  1.82272627462746
 1 -12.93692237763776  1.91269489128913  1.01358184148415
 1  12.64357172387239  2.22412736223622  0.05579342254225
 1  12.87836226332633  2.06014005290529  1.79849745094509
 1 -12.59890336893689 -2.14802159865987 -1.98967315801580
 1  13.62481206600660 -0.50298004380438  1.02399273517352
 1 -9.48486085178518 -1.16783164216422  0.06181374137414
 1  13.69207435153515 -1.11741478077808 -1.02862801880188
 1  13.35453187068707  0.46254483238324 -1.75469539333933
 1  9.18618531613161  2.07244729652965  1.34486973437344
 1  10.10174203580358  2.74213681608161 -0.18400148464846
 1  10.55380905420542  3.21628660036004  1.63422957395740
 1  11.68459130043004 -0.45004225282528  2.51829825122512
 1  10.00962593319332  0.10078753775378  2.73750687878788
 1  11.37171807090709  1.21490928772877  3.11658660166017
 1 -10.09929242724272  0.09031894259426 -2.70974837053705
 1 -11.67347640394039  1.12640863936394 -2.61979904520452
 1 -11.74211205630563 -0.51397014831483 -3.30381813941394
 1 -14.47155042834283 -2.07841679427943 -0.51163936773677
 1  8.43125219321932  0.17543776897690  0.27226987318732
 1 -8.69718488738874  1.88647029982998 -0.49005432583258
 1  11.32037777227723 -2.39592108810881 -1.73397624912491
 1  10.29742260866087 -1.28219432113211 -2.55499143314331
 1  11.93221251495150 -1.42819590969097 -2.91428737683768
 1  15.25249442974297  0.81728982878288  1.13429139803980
 1  9.46285606190619 -2.52282536423642 -0.64442088458846
 1 -5.51073553455346 -1.09904705540554  0.18533593039304
 1 -6.83417231533153 -1.39495146834683  1.13456570897090
 1 -6.81510774597460 -1.80293874207421 -0.61437965276528
 1 -6.68991127762776  2.34570336543654 -0.38595179687969
 1  6.88304185318532 -3.95523894649465  0.85444514021402
 1  6.48039538473847 -3.95939112691269 -0.70427001820182
 1  8.23593349074907 -4.29694587918792 -0.48655168786879
 1  6.55751417831783 -0.25161240064006 -0.49388151005101
 1 -4.25872810441044  0.52608227342734 -0.00821687928793
 1  4.64932853635364 -2.56785603860386 -0.09692735353535
 1 -4.70200624632463  3.37439542134213 -1.07737739323932
 1  4.24197427362736  0.77734507340734 -0.30312953035304
 1 -1.46416617481748  3.75217666436644 -1.69955822772277
 1 -1.44648748714871  4.38161531883188  0.20027806800680
 1 -2.80459994809481  4.56487890339034 -0.80216851055106
 1 -2.29499838023802  0.48796542204220 -0.36323105310531
 1  2.12854189628963  1.42568655785579 -0.33664067916792
 1  2.29575810351035 -2.30329673207321  1.48178655715572
 1  1.02996806810681 -1.98938822992299  0.21863057795780
 1  2.22403515291529 -2.93553134033403 -0.49406364936494
 1  0.28218410331033  2.41192103180318 -0.21023801530153
 1 -0.38022091809181 -0.58114828462846  0.05416476147615

