%nproc=4
%Mem=4GB
# td=(NStates=1) CAM-B3LYP/6-31G(d,p) 

TD

0 1
 8 -14.00793666886689 -1.97508589028903  0.67760801610161
 8  14.73415525232523  0.84803238983898  0.34558515441544
 6 -11.70400325992599  0.08169424432443  1.43389820982098
 6 -10.96754371687169  0.34713748474847  0.09721343414341
 6 -11.97859333993399 -1.45787027142714  1.59308715001500
 6 -12.61966536003600 -2.12294335913591  0.35171932283228
 6 -11.56975226412641 -0.28072555085509 -1.14018950885089
 6  11.00419374997500  0.98577021952195  1.15949622932293
 6 -10.86044751795180  0.53373511231123  2.64413146384638
 6 -12.99711587398740  0.84939058595860  1.40262133893389
 6  12.45647282778278  1.46195562206221  0.88630601680168
 6 -12.31000198609861 -1.39320718851885 -0.95690845954595
 6  13.43953557445745  0.40521819441944  0.44929224812481
 6  10.57219669396940  0.01359194899490  0.04002758785879
 6 -9.52759152305230  0.00529768156816  0.06624663226323
 6  12.92156013361336 -0.22465968536854 -0.82921850815082
 6  11.44426751555156 -0.38826387168717 -0.82635769456946
 6  10.12489937553755  2.23043235523552  1.24859757315732
 6  10.96904773727373  0.27177635303530  2.56394695599560
 6 -11.35276977447745  0.30514215571557 -2.42001425962596
 6 -8.44962106240624  0.76981196359636 -0.32045566806681
 6  9.19735466476648 -0.29376715251525  0.16990707450745
 6  11.15118506400640 -1.11190415721572 -2.17928753345335
 6 -7.07595891879188  0.51314855665567 -0.35906799609961
 6  8.70997745414541 -1.60623042054205 -0.16125126612661
 6 -6.58049947144714 -0.92710146704670 -0.03734084548455
 6  7.41162965046505 -2.14902777477748 -0.06483754605461
 6 -6.15232500850085  1.51798537303730 -0.59142099869987
 6  7.25064825902590 -3.58908263046305  0.16858707690769
 6  6.32548981798180 -1.20095038373837 -0.18028037043704
 6 -4.76049002270227  1.45165870507051 -0.56374728812881
 6  5.00588143404340 -1.48345618851885 -0.09988776897690
 6 -4.02078345074507  2.58460148634863 -0.73998518751875
 6 -2.54889532763276  2.47798575617562 -0.79335208300830
 6  4.06045001050105 -0.71164167026703 -0.41929144554455
 6  2.64437148574858 -0.91963643514351 -0.36632158475848
 6 -1.95323387358736  3.87073165576558 -1.01641078847885
 6 -1.75512259775978  1.36886963136314 -0.61092710911091
 6  1.77661620662066  0.18058962046205 -0.55349391129113
 6  2.08886220732073 -2.21015380268027 -0.02840047214721
 6 -0.44474673357336  1.31901322262226 -0.65467882768277
 6  0.41146597739774  0.14823649144914 -0.59791305210521
 1 -10.88225496699670  1.48263004830483 -0.10678252345235
 1 -12.55705917901790 -1.85914592829283  2.37824571927193
 1 -11.03233090269027 -1.91622081708171  1.80982426502650
 1 -12.48346197979798 -3.20721982928293  0.22137699979998
 1 -9.95949135043504 -0.15915423982398  3.03143176707671
 1 -10.37687785438544  1.54240731773177  2.52149687158716
 1 -11.50570816311631  0.44714813381338  3.47363154095409
 1 -13.58622982478248  0.57693369566957  0.50533700400040
 1 -13.55995176577658  0.52959456685669  2.24873887588759
 1 -12.79891857725772  2.06314993679368  1.60195067836784
 1  12.54703206990699  2.20610556005601  0.10832867606761
 1  12.62437686478648  1.83630766966697  1.79853745494549
 1 -12.89101257985799 -1.78792558905891 -2.06232042274227
 1  13.24584416921692 -0.48056780258026  1.28887922382238
 1 -9.24454682038204 -1.07604246324632  0.24238179817982
 1  13.29335447954796 -1.26186922622262 -1.14943009900990
 1  13.08506492399240  0.45628420632063 -1.56936686048605
 1  9.22229892749275  1.86564661646165  1.70999624702470
 1  9.93109497109711  2.68025062746275  0.23106002150215
 1  10.65811948524853  3.03555852755275  1.69936608760876
 1  11.81059390069007 -0.59646689528953  2.53880030143014
 1  9.84049902050205 -0.22851539253925  2.72991611971197
 1  11.12723362246225  0.88380617741774  3.50794573757376
 1 -10.43929642764276  0.19174908560856 -2.84906230193019
 1 -11.88714777107711  1.20145614411441 -2.53510057535754
 1 -11.74641248634864 -0.51542029332933 -3.09713747134713
 1 -14.41908518181818 -2.61456040864086 -0.11587979177918
 1  8.35463453145315  0.57573779897990  0.39565221142114
 1 -8.74733990289029  1.83055470827083 -0.58494381478148
 1  11.20997673217322 -2.20196169216922 -2.08985183668367
 1  10.12149501590159 -1.09919602130213 -2.53112904690469
 1  11.66473576727673 -0.81252434253425 -3.03957990609061
 1  15.16052523282328  1.39862796259626  1.12097006590659
 1  9.67475725202520 -2.28794187588759 -0.15672211471147
 1 -5.61819628062806 -1.07148429912991  0.01824922172217
 1 -7.06678557665767 -1.13151512471247  0.89148140054005
 1 -6.81931816701670 -1.54869331753175 -0.89302751755176
 1 -6.66962924942494  2.52332112721272 -0.84076727842784
 1  6.87756130513051 -3.74292771537154  1.20973066876688
 1  6.19530687588759 -3.87877306510651 -0.47474706590659
 1  8.12918281568157 -4.19767595219522 -0.19365239793979
 1  6.49173760066007 -0.20280752015202 -0.47110923282328
 1 -4.17230946254625  0.47107677287729 -0.60655671327133
 1  4.55400900440044 -2.56394564756476 -0.11093875467547
 1 -4.28029407510751  3.61196917871787 -0.81866152165217
 1  4.19614969116912  0.31296863576358 -0.70431964936494
 1 -1.45315507370737  3.53464491119112 -1.94316258815882
 1 -1.45464830323032  4.19181633893389 -0.26721868166817
 1 -2.66014550265026  4.53617603310331 -1.33383167686769
 1 -2.28622750315032  0.38749537503750 -0.64005873587359
 1  2.22420146224623  1.21587557675768 -0.66000301540154
 1  2.30883941164116 -2.48114451685169  0.99976835533553
 1  1.02331740304030 -2.24696398749875 -0.04586587168717
 1  2.66053880328033 -3.22007979517952 -0.52796703970397
 1  0.13060894579458  2.16183602330233 -0.61690868236824
 1 -0.30494339033903 -0.72755292509251 -0.19562021702170

