%nproc=4
%Mem=4GB
# td=(NStates=1) CAM-B3LYP/6-31G(d,p) 

TD

0 1
 8 -14.09236511171117 -2.20272865456546  0.50856111141114
 8  14.72298413521352  1.02542012861286  0.10294088998900
 6 -11.73032589218922  0.07947402230223  1.22523734373437
 6 -10.94373133563356  0.35840861186119 -0.00362664986499
 6 -11.94335981658166 -1.47418190259026  1.45054289558956
 6 -12.66238963246325 -2.10912197699770  0.28385253615362
 6 -11.43353864276428 -0.44028150645065 -1.22154764466447
 6  11.05971930253025  0.88466010851085  1.11572185188519
 6 -10.96403787698770  0.52984472327233  2.48565561626163
 6 -12.99664582698270  0.82188783568357  1.23065414221422
 6  12.42516969746975  1.43975340184018  0.82594998119812
 6 -12.28553953985399 -1.49297716551655 -1.05271804050405
 6  13.41742336323632  0.37590526312631  0.32420973987399
 6  10.60258973327333 -0.05135454565457  0.08132171727173
 6 -9.45445420932093  0.00516766856686  0.11153116071607
 6  12.92132010961096 -0.16293351275128 -0.90929651595160
 6  11.42788587738774 -0.45961100640064 -1.03399845864586
 6  10.23291017661766  2.08167747974797  1.13240595399540
 6  10.87693852635264  0.28360753615362  2.54697525882588
 6 -11.25436993449345  0.05488713021302 -2.51714397259726
 6 -8.43388948924893  0.83905888828883 -0.24614823732373
 6  9.19570449974998 -0.49886766256626 -0.03743365956596
 6  11.04727467296730 -1.19882284908491 -2.18455806050605
 6 -7.05114643754376  0.52640988278828 -0.17678976827683
 6  8.78366482288229 -1.80891068856886 -0.10059520052005
 6 -6.46083750525053 -0.85096385328533  0.26845973457346
 6  7.36070455795580 -2.20895376737674 -0.13616467876788
 6 -6.21146092209221  1.54920849534953 -0.39052090869087
 6  7.07744093829383 -3.59992371457146  0.27932815101510
 6  6.32209947894789 -1.29368965766577 -0.22274461686169
 6 -4.84938891259126  1.49839337853785 -0.49825073847385
 6  4.98904975087509 -1.57159500240024 -0.02425020522052
 6 -3.96226759915992  2.56049907610761 -0.70144133313331
 6 -2.54853529162916  2.69640759835984 -0.82430517831783
 6  4.01810577607761 -0.67758826492649 -0.18414793119312
 6  2.54313136173617 -0.82990746224622 -0.17642259485949
 6 -1.86781533173317  4.12010659325933 -0.95211435883588
 6 -1.69657674317432  1.62157490189019 -0.62116813321332
 6  1.83248179317932  0.32422398389839 -0.28864742664266
 6  2.00931425252525 -2.15016780408041  0.02649501740174
 6 -0.29927218611861  1.52924424572457 -0.45879923972397
 6  0.37273210401040  0.35380704850485 -0.27024028482848
 1 -11.02652939443944  1.24357614291429 -0.29330117531753
 1 -12.59521299439944 -1.52563257695770  2.40985888058806
 1 -11.01223889348935 -1.63643283828383  1.62049533213321
 1 -12.18329196279628 -3.23883299059906  0.26365122722272
 1 -9.90568596989699  0.04339601520152  2.43111173507351
 1 -10.84256442304230  1.51047412441244  2.44521924382438
 1 -11.43294088638864  0.24252767176718  3.41580575837584
 1 -13.65601680348035  0.21093709600960  0.42980945124512
 1 -13.53323909450945  0.79142074947495  2.40063406540654
 1 -12.79111779717972  2.00252387418742  0.83060354365437
 1  12.58295566226623  2.09929487898790  0.00848869206921
 1  12.85851027812781  1.83055709460946  1.80037763896390
 1 -12.86139961856186 -1.99250604710471 -1.95921011171117
 1  13.65596518131813 -0.32850259605961  1.05297563346335
 1 -9.20938330403040 -1.20898575757576  0.32554011401140
 1  13.30426557065707 -0.93612665196520 -0.99471462746275
 1  12.89038545604561  0.69505808370837 -1.74509443324332
 1  9.18413511111111  1.82367241904190  1.60536578397840
 1  10.05005686728673  2.54590719311931  0.21483839933993
 1  10.83989766306631  2.93203817551755  1.92125827682768
 1  11.53065590689069 -0.67320456905691  2.31593801520152
 1  9.70733570417042 -0.09404194519452  2.70784391249125
 1  11.11148204730473  1.10641843864386  3.26809175217522
 1 -10.29759225722572  0.37895780648065 -2.67378477417742
 1 -11.71608066436644  0.84924092259226 -2.53539060436044
 1 -11.60821866696670 -0.66327507880788 -3.11198895649565
 1 -14.60219349264927 -2.52573152575258 -0.29217742154215
 1  8.43828289628963  0.23371359655966  0.36602924912491
 1 -8.85043021192119  1.70324197699770 -0.61913723412341
 1  11.65780151465147 -2.03987548354836 -2.06818967046705
 1  9.88677154355435 -1.57219332103210 -2.33024895889589
 1  11.33956325002500 -0.87443053315332 -3.21727767586759
 1  15.49635881618162  1.35322342214221  0.90296826572657
 1  9.51241101740174 -2.40766384808481 -0.28082452495250
 1 -5.40329479047905 -0.85826297699770  0.36364376117612
 1 -6.86071496959696 -1.11807378057806  1.26474872727273
 1 -7.02606884208421 -1.66052450065007 -0.43820203500350
 1 -6.88837112361236  2.39866866196620 -0.41005420712071
 1  6.88378192719272 -3.68322174477448  1.42056175187519
 1  6.05856320152015 -4.14511969976998 -0.13689328052805
 1  7.95480537793779 -4.36208239283928 -0.05396842954295
 1  6.47764619151915 -0.29804704410441 -0.66405852775278
 1 -4.65158739033903  0.44421408660866 -0.27185324292429
 1  4.63269687318732 -2.56983623662366  0.14324666386639
 1 -4.33917996369637  3.47443542534253 -0.78685834133413
 1  4.56709678587859  0.33799113801380 -0.22568178557856
 1 -1.06586634483448  4.06648809550955 -1.64409268116812
 1 -1.33242608100810  4.21812897019702  0.19051709190919
 1 -2.68447793589359  4.77930034553455 -1.14611290499050
 1 -2.46820570097010  0.51354798029803 -0.63919864986499
 1  2.37725676777678  1.22273626282628 -0.53997101220122
 1  2.81716024372437 -2.68390479287929  0.81506988548855
 1  0.89192426372637 -2.15710500160016  0.72921163606361
 1  1.80097284668467 -2.72006979417942 -1.23748799179918
 1  0.11565745064506  2.63781362106211 -0.41549854135414
 1 -0.28925182118212 -0.49891006080608 -0.07682833783378

