%nproc=4
%Mem=4GB
# td=(NStates=1) CAM-B3LYP/6-31G(d,p) 

TD

0 1
 8 -14.12363823902390 -2.00209859155916  0.42059231453145
 8  14.83698553535353  0.95009259585959  0.13635423132313
 6 -11.81866472607261  0.14108018291829  1.24593941394139
 6 -10.94279124162416  0.34639741074107 -0.05149143634363
 6 -11.93911939253925 -1.38667315171517  1.43251109240924
 6 -12.69228262176218 -2.13293435823582  0.25757990889089
 6 -11.59397468636864 -0.45765324362436 -1.18238372827283
 6  11.13856718731873  0.80210185268527  1.15822610231023
 6 -11.00565203840384  0.69279101790179  2.54274132483248
 6 -13.10744690709071  0.75395104200420  1.19657073387339
 6  12.59720690119012  1.40235966246625  0.93520090629063
 6 -12.26653763966397 -1.57730559835984 -1.07843061176118
 6  13.53790541144114  0.34216188878888  0.39023634253425
 6  10.71579105340534 -0.00284969516952 -0.07670408530853
 6 -9.53522228612861  0.00908806060606  0.14098410601060
 6  12.90514849244924 -0.11203842324232 -0.97042262856286
 6  11.58098118691869 -0.44520956625663 -1.00512557135714
 6  10.18892577817782  2.16595590759076  1.20275298869887
 6  11.03129396189619  0.13194236963696  2.45817637893789
 6 -11.31762626012601  0.10637227872787 -2.60626288448845
 6 -8.44836093639364  0.83491847424742 -0.06544016651665
 6  9.29322425172517 -0.44078185398540  0.11760184398440
 6  11.03820376587659 -1.30905387218722 -2.10725032973297
 6 -7.03595491839184  0.43862110391039 -0.02950503980398
 6  8.76484294069407 -1.63801359885989 -0.16965210621062
 6 -6.64995641714171 -0.97992674957496  0.45260814941494
 6  7.43844233173317 -2.10417328932893 -0.10305136743674
 6 -6.17936771277128  1.43174674917492 -0.34900675727573
 6  7.10754394859486 -3.61356507870787  0.05734595279528
 6  6.43982125112511 -1.16113640234023 -0.08398074047405
 6 -4.78699267296730  1.42019555875588 -0.39259017241724
 6  5.07717856375637 -1.48612645554555 -0.11557933813381
 6 -4.01163253565357  2.54865789198920 -0.67830901990199
 6 -2.60435087318732  2.67848580618062 -0.73358610641064
 6  3.99678364386439 -0.50793129922992 -0.32637215361536
 6  2.60152720132013 -0.70083455495550 -0.25767071967197
 6 -2.07102565276528  3.94952953555356 -1.15188433583358
 6 -1.88826591209121  1.44386713111311 -0.58378439483948
 6  1.77113565856586  0.30619218071807 -0.49371793369337
 6  2.14450777187719 -2.14329711701170  0.17187955585559
 6 -0.40424268316832  1.40039136043604 -0.60355371517152
 6  0.33174800560056  0.27407907570757 -0.29400266106611
 1 -10.99930667216722  1.46399818511851 -0.53800564576458
 1 -12.50833430653065 -1.56807682138214  2.46589448414841
 1 -10.98946661626163 -1.83179237423742  1.48811209380938
 1 -12.37165079867987 -3.24647375467547  0.44084894699470
 1 -10.19246464776478  0.14639631523152  2.88125674957496
 1 -10.91412157875788  1.64012708970897  2.06703142504250
 1 -11.85955354765477  0.63919733873387  3.29197337513751
 1 -13.65254645644564  0.45109111141114  0.38178464876488
 1 -13.85102087268727  0.44175578297830  2.01538554055406
 1 -13.24793347874787  1.85702932473247  1.07451793509351
 1  12.62467983468347  2.29222417191719  0.25029287248725
 1  12.84401882898290  1.52115615451545  2.02290989218922
 1 -12.80190366896690 -2.09919671617162 -1.93461765246525
 1  13.60914049884989 -0.43303304910491  0.99825016091609
 1 -9.19979234493449 -0.89562442144214  0.54846240624062
 1  13.42603774787479 -0.96685972527253 -1.32987814381438
 1  13.08399481698170  0.72862144004400 -1.79100902470247
 1  9.23666036363636  1.74086413821382  1.78583383078308
 1  10.19428128972897  2.65475807820782  0.36492340784078
 1  10.49837351065106  2.89298427012701  2.11860801180118
 1  11.53540638193819 -0.75974322292229  2.66047246864686
 1  9.98250322092209 -0.25086762776278  2.47923105120512
 1  11.24774567366737  0.84516231303130  3.17815275827583
 1 -10.20859335733573  0.40326023672367 -2.73641103680368
 1 -11.73690274657466  0.96352235073507 -2.75097216251625
 1 -11.47402524762476 -0.54618336963696 -3.55840359795980
 1 -14.65660893419342 -2.60515946854685 -0.12460066386639
 1  8.59703877187719  0.38095832103210  0.49620226642664
 1 -8.59261443034304  1.82550420322032 -0.46419173957396
 1  11.35956169066907 -2.33607510351035 -2.25927877937794
 1  9.92401526792679 -1.16307240894089 -2.28295422942294
 1  11.45998529222922 -0.83522661276128 -3.21340728882888
 1  15.08226740704070  1.12195029482948  1.16441441034103
 1  9.66400617691769 -2.35703878557856 -0.46280272277228
 1 -5.54384884588459 -0.81277842854285  0.64656205300530
 1 -7.11970086818682 -1.04866683988399  1.32341459385939
 1 -6.84600083528353 -1.73764221242124 -0.24862307710771
 1 -6.57456974347435  2.33160195529553 -0.69419262096210
 1  6.75513906290629 -3.76351977457746  1.10167986368637
 1  6.41037838303830 -4.16283147094710 -0.47193678487849
 1  7.82806270367037 -4.18981516611661 -0.10769380208021
 1  6.60528895579558 -0.12564980438044 -0.20621274317432
 1 -4.26025825742574  0.54087375257526 -0.10393645124512
 1  4.56875047854785 -2.45813506650665  0.04806714591459
 1 -4.77126317201720  3.47228521032103 -0.86895655115512
 1  4.18157823402340  0.45718305720572 -0.59680889828983
 1 -1.02355211341134  3.64213566026603 -1.71571984388439
 1 -1.56575941434143  4.33816097339734 -0.21420338013801
 1 -2.63697318541854  4.65412782828283 -1.60913920762076
 1 -2.48795767616762  0.71294792029203 -0.17473220322032
 1  2.16930597269727  1.35664965416542 -0.56977399249925
 1  2.41205973367337 -2.36576297869787  1.21413979247925
 1  0.92420749204921 -2.25991528262826  0.20239895479548
 1  2.47470021942194 -2.85574336153615 -0.52928717171717
 1  0.15820170507051  2.21101094079408 -0.77847483898390
 1 -0.11246414241424 -0.58510868066807  0.11168051305130

