%nproc=4
%Mem=4GB
# td=(NStates=1) CAM-B3LYP/6-31G(d,p) 

TD

0 1
 8 -13.95819169436944 -2.08838722042204  0.55359561486149
 8  14.76581841864186  1.03072065866587  0.37908850475048
 6 -11.78987184678468  0.14297037193719  1.27213203320332
 6 -11.01570853335333  0.39096186718672 -0.01066735393539
 6 -11.88300378097810 -1.46752123652365  1.44725256655666
 6 -12.54427782128213 -2.14563562836284  0.32358650955096
 6 -11.58281357025703 -0.37472495079508 -1.21385687558756
 6  11.11650498109811  0.98844048654865  1.12154243394339
 6 -10.99583105630563  0.62992473127313  2.62341939263926
 6 -13.21393755615562  0.75460110701070  1.23004408120812
 6  12.51862904340434  1.51312073857386  0.94186157235724
 6 -12.22888387428743 -1.49759762756276 -1.04767753645365
 6  13.53155477637764  0.49227690029003  0.38995631453145
 6  10.65468494279428 -0.07535694589459  0.05560914601460
 6 -9.54461322522252  0.08364551635164  0.08912892049205
 6  13.02677065466547 -0.19288650805081 -0.92433802010201
 6  11.58453154195420 -0.48576362166217 -0.95193025182518
 6  10.09330621622162  2.17089640164016  1.11546425982598
 6  11.00040087258726  0.39887906330633  2.56073663496350
 6 -11.31239573707371  0.12202384388439 -2.52911516971697
 6 -8.58087418771877  0.98471345374537 -0.08888251075107
 6  9.24264919421942 -0.49398717451745 -0.00976089228923
 6  11.11643158865886 -1.31175414221422 -2.07398700340034
 6 -7.07145846874687  0.64305154695470 -0.06182827212721
 6  8.77536399279928 -1.73239303680368 -0.12539768076808
 6 -6.71083250475048 -0.84262301920192  0.29927281588159
 6  7.42193068056806 -2.11477434943494 -0.15316637893789
 6 -6.26250602660266  1.57917149164916 -0.51784364096410
 6  7.08197139133913 -3.65840956315632 -0.18964874667467
 6  6.34846211521152 -1.24819510821082 -0.19707204960496
 6 -4.78630260396040  1.38923246244624 -0.52575348874887
 6  4.98810965686569 -1.59996783968397 -0.23169094929493
 6 -3.96236760916092  2.55692871907191 -0.69480066906691
 6 -2.54359479757976  2.63012096969697 -0.75385813361336
 6  3.94785875137514 -0.64770527662766 -0.25045456185619
 6  2.56658370697070 -0.91272574407441 -0.23216816941694
 6 -1.90203875407541  3.79418400100010 -1.05810495789579
 6 -1.78412549804980  1.46066881128113 -0.48520453685369
 6  1.79572811781178  0.19496105760576 -0.36455501740174
 6  2.05747906900690 -2.32951573887389  0.09652202010201
 6 -0.34838709760976  1.40956227752775 -0.67177053685369
 6  0.43070790159016  0.21897356515652 -0.24738799959996
 1 -11.16755349684968  1.38355014031403 -0.20829267446745
 1 -12.61872534563456 -1.47276729042904  2.24728262296230
 1 -10.96664433403340 -1.90279947494750  1.62161544414441
 1 -12.20891452505250 -3.16866597389739  0.27263212531253
 1 -10.17750315161516 -0.08409673407341  2.84753337723772
 1 -10.74692485908591  1.73580665766577  2.48825354725472
 1 -11.78882647494749  0.48765218421842  3.38026220402040
 1 -13.71104230603060  0.51708771107111  0.37973444374437
 1 -13.80854662526253  0.52710431783178  2.21014501650165
 1 -13.04204288968897  1.87480110191019  1.15955643894389
 1  12.48579594629463  2.20053500300030  0.00701854505451
 1  12.94395882298230  2.04069810871087  1.81612921412141
 1 -12.67989146774678 -2.01090788728873 -1.74094828552855
 1  13.48801838663866 -0.27337708350835  1.20794113001300
 1 -9.26113847954795 -1.01563642264226  0.21056861686169
 1  13.71557670177018 -1.03571661096110 -1.15139029502950
 1  13.45722213971397  0.71645022292229 -1.61840176397640
 1  9.23225992359236  1.89190924272427  1.57985323272327
 1  9.95842770437044  2.58177077947795  0.09693660916092
 1  10.58118179147915  3.09436440814081  1.57000315131513
 1  11.76105894719472 -0.28543579217922  2.34837125852585
 1  10.01596656725673  0.11706916591659  2.79724285238524
 1  11.18404930403040  1.09187698449845  3.15675061806181
 1 -10.20456295429543  0.22831274197420 -2.70938833453345
 1 -11.62888194449445  1.13860985948595 -2.63979104440444
 1 -11.60663850895089 -0.61883063436344 -3.45261301890189
 1 -14.47042031533153 -2.06319527212721 -0.26556476027603
 1  8.44285335333533  0.48886911211121  0.17406005220522
 1 -8.68752392129213  2.00096174897490 -0.61571689208921
 1  11.64429016351635 -2.26634813081308 -1.93639649114911
 1  10.03091595799580 -1.62978908060806 -2.09234516851685
 1  11.54427372107211 -0.76619971007101 -3.06451239933993
 1  14.89799898019802  1.29766786658666  1.32719068796880
 1  9.43605338163816 -2.50219330103010 -0.16032247474747
 1 -5.72284674567457 -0.96193334403440  0.33749114591459
 1 -7.15523442154215 -1.12930490369037  1.31368362076208
 1 -7.30155639083908 -1.45555400360036 -0.43930214501450
 1 -6.52207449394940  2.58810760586059 -0.41559476117612
 1  6.30935448444844 -3.89360278287829  0.58266796249625
 1  6.57989533473347 -3.77597278507851 -1.31445103630363
 1  8.02864276167617 -4.31267745234523 -0.02848588128813
 1  6.81872029892989 -0.15638287768777 -0.50011213311331
 1 -4.40228245984598  0.42096176137614 -0.29222528012801
 1  4.95008861236124 -2.58685793879388  0.10497283648365
 1 -4.53726977267727  3.27318530033003 -0.86476613211321
 1  4.04480455665567  0.51585892479248 -0.36687590499050
 1 -1.83311306950695  3.71666311301130 -2.41876014791479
 1 -1.04798763716372  4.22949010631063 -0.38969092889289
 1 -2.67054654275428  4.67846026152615 -0.98147644134413
 1 -2.55851473187319  0.69787641314131 -0.04705943594359
 1  2.19276831893189  1.24551854105411 -0.77491450655065
 1  2.39016754445445 -2.66245264766477  1.02002038053805
 1  1.01743681498150 -2.29464875597560 -0.01376266136614
 1  2.35915866526653 -3.03128091529153 -0.55675991899190
 1  0.24994087898790  2.20473031273127 -1.03138012951295
 1 -0.10873376937694 -0.69302947274728  0.28170751575157

