%nproc=4
%Mem=4GB
# td=(NStates=1) CAM-B3LYP/6-31G(d,p) 

TD

0 1
 8 -13.92763863906391 -2.16495487718772  0.68361861716172
 8  14.83869570637064  0.72498008460846  0.43517411331133
 6 -11.66358921852185 -0.06247017211721  1.38204302430243
 6 -10.95877283978398  0.28619139013901  0.06511022382238
 6 -11.88536401700170 -1.52784726912691  1.62453029432943
 6 -12.51526491999200 -2.27782884768477  0.46083023392339
 6 -11.54638992789279 -0.53348082638264 -1.09248473837384
 6  11.02191552215221  0.84160580308031  1.20063034273427
 6 -10.86900837403740  0.46426816561656  2.54012106280628
 6 -12.99614577697770  0.75221086798680  1.39622069886989
 6  12.53749092959296  1.35672509900990  0.96364375057506
 6 -12.34472545844585 -1.56264413221322 -0.90051281998200
 6  13.52827444834483  0.24028170077008  0.55466278517852
 6  10.65365483978398 -0.05570498069807  0.13819740484048
 6 -9.48177694159416  0.01031818361836 -0.00091008340834
 6  12.99777775537554 -0.26400361976198 -0.78999458575858
 6  11.53489657845784 -0.49593463876388 -0.86379143794379
 6  10.19076596219622  2.11170048204820  1.11211392479248
 6  10.95191602410241  0.18332750815082  2.47159772107211
 6 -11.43505800330033  0.08171981348135 -2.52006426462646
 6 -8.57353345364536  0.92300728312831 -0.29320294279428
 6  9.30255518481848 -0.38418619441944  0.10882096589659
 6  11.12394233973397 -1.34790775757576 -2.02044164886489
 6 -7.09051037393739  0.57614485628563 -0.27568965826583
 6  8.68148460486049 -1.60965076257626 -0.16430157115712
 6 -6.58654007550755 -0.79231798869887  0.00216310491049
 6  7.33323181068107 -2.10163303530353 -0.23759482178218
 6 -6.21201097709771  1.58019159365937 -0.52581443804380
 6  7.04111730593059 -3.47735145734573 -0.10895067686769
 6  6.31630889988999 -1.16577686638664 -0.31977431983198
 6 -4.86222019571957  1.59930346954695 -0.53390430383038
 6  4.94897574347435 -1.44897274017402 -0.13660144034403
 6 -4.06294766716672  2.64878790499050 -0.84959614861486
 6 -2.61229166726673  2.68407636523652 -0.82704545234523
 6  3.93108707420742 -0.45954646074607 -0.35100461686169
 6  2.59077612621262 -0.67360183168317 -0.22471742434243
 6 -2.07017556775678  4.03918850145014 -1.22425157255726
 6 -1.78980606610661  1.58384112851285 -0.55162117851785
 6  1.76112465746575  0.38574013551355 -0.50001856375638
 6  2.08068138923892 -2.07277006430643  0.12309467736774
 6 -0.39736199509951  1.63509483078308 -0.62097545734573
 6  0.29413424422442  0.42719438723872 -0.38854211501150
 1 -10.92464920642064  1.18476026132613 -0.17971981718172
 1 -12.43117659075907 -1.85028504220422  2.52376027072707
 1 -10.70523819341934 -1.70961015601560  1.77575085768577
 1 -12.16937057065707 -3.22038114541454  0.28047290939094
 1 -9.75838123942394 -0.07126545094509  2.44729335323532
 1 -10.60724089068907  1.53383646064606  2.50488521042104
 1 -11.26081367366737  0.33372679167917  3.57062123992399
 1 -13.64138534033403  0.31814781708171  0.67516398669867
 1 -13.42772854345435  0.54109571697170  2.38732273427343
 1 -12.75216390179018  1.80299392119212  1.27508799209921
 1  12.33216058275828  1.88858380788079  0.08483632683268
 1  12.71264569166917  1.98024206310631  1.83858145934593
 1 -12.46755023362336 -2.33121991849185 -1.83423761446145
 1  13.61669125392539 -0.74345409120912  1.35844618051805
 1 -8.99290165586559 -0.98105296429643 -0.11444388438844
 1  13.44382952705270 -1.26738977827783 -1.11833698969897
 1  13.34582099959996  0.49910848874887 -1.57437736153615
 1  9.07880457805781  1.77961801360136  1.37626287368737
 1  10.15170703230323  2.61570417281728  0.08272518801880
 1  10.44577825112511  2.90733570527053  1.81807795879588
 1  11.58128096939694 -0.64451169976998  2.34103052445245
 1  10.01605657625763 -0.38833137413741  2.63964709280928
 1  11.17111801090109  0.98055585238524  3.29117406040604
 1 -10.39939243724372 -0.01766185548555 -2.61157855355536
 1 -11.61891094739474  1.15475147364736 -2.51123818911891
 1 -12.22134998009801 -0.49042779407941 -3.31848960656066
 1 -14.26951022432243 -2.18644759735974 -0.29582778657866
 1  8.64496356435644  0.35754597979798  0.25862850905090
 1 -8.66904207310731  1.89684133693369 -0.37206252665267
 1  11.40648638313831 -2.50999249524952 -1.86060891239124
 1  10.08916178257826 -1.36080218191819 -2.46914284828483
 1  11.78447774147415 -1.33670676077608 -3.07725367346735
 1  15.32056123642364  1.09963806360636  1.18700666956696
 1  9.32561233753375 -2.46200928262826 -0.26983342584258
 1 -5.38475293629363 -1.00486763746375 -0.12851545474548
 1 -6.89547844594459 -1.26165813901390  0.94901715411541
 1 -7.02249848504850 -1.39283773197320 -0.78067628242824
 1 -6.61722400890089  2.64844363946395 -0.66995019671967
 1  6.17065061406140 -3.77670109270927  0.69637933363336
 1  6.57931527672767 -4.07386257405741 -1.21812140334033
 1  8.06298619601960 -4.05980216481648  0.32432940024002
 1  6.47307573447345 -0.06723396279628 -0.18503062496250
 1 -4.33488572017202  0.61135080028003 -0.06969302690269
 1  4.75115871937194 -2.51612086508651 -0.21871953275328
 1 -4.41026707240724  3.63175115691569 -1.07625728122812
 1  4.23203327952795  0.51522886178618 -0.72533175057506
 1 -1.45303506170617  3.91666311301130 -2.19454772667267
 1 -1.28005084348435  4.44329148644865 -0.57068902870287
 1 -2.91762125022502  4.88274068956896 -1.35880417411741
 1 -2.44863374377438  0.66097272277228 -0.45808053805380
 1  2.21598064016402  1.35179916911691 -0.74029104420442
 1  2.77762629032903 -2.54000040244024  0.90509888838884
 1  0.95801087238724 -2.12420171127113  0.56684539943994
 1  2.16866961636164 -2.75116290349035 -0.75863010601060
 1  0.24435031993199  2.56573641334133 -0.86538352985299
 1 -0.25103799979998 -0.55390556035604 -0.39087974297430

