%nproc=4
%Mem=4GB
# td=(NStates=1) CAM-B3LYP/6-31G(d,p) 

TD

0 1
 8 -14.19471534673467 -1.94292267396740  0.46309656495650
 8  14.79290112691269  0.85112269886989  0.27090768666867
 6 -11.73763662326233  0.07849392429243  1.24727954795480
 6 -10.92204916741674  0.28857162816282 -0.07124341154115
 6 -12.07285276587659 -1.42874735913591  1.49938778007801
 6 -12.82608600210021 -2.11828289308931  0.26246039693969
 6 -11.53907919681968 -0.43140061836184 -1.23660915081508
 6  11.06281961256125  1.14003564606461  1.00636091579158
 6 -11.11413288648865  0.51602334113411  2.54682173287329
 6 -13.06105226762676  0.85425107200720  1.15996707350735
 6  12.51865904640464  1.58609803630363  0.68529591579158
 6 -12.37593857975798 -1.46187405520552 -1.14154692339234
 6  13.47916953785379  0.46448412101210  0.47695501440144
 6  10.64887436173617 -0.07568697889789  0.03668725382538
 6 -9.48467723162316 -0.20781362956296  0.03704371197120
 6  13.09463744134413 -0.34872209160916 -0.72881846814681
 6  11.57760084888489 -0.66542158745875 -0.85019007780778
 6  10.16794367996800  2.31867117911791  0.85361807520752
 6  10.98055888838884  0.46556573197320  2.40573113441344
 6 -11.23500799829983  0.18333997549755 -2.53956621482148
 6 -8.47700380068007  0.68235321772177 -0.19856347884788
 6  9.25830075937594 -0.44095187098710 -0.03369328552855
 6  11.29480942644264 -1.65113808060806 -1.97705731043104
 6 -7.03907523042304  0.49130637243724 -0.14300638993899
 6  8.77654411081108 -1.65832563006301 -0.25203034403440
 6 -6.66696811831183 -0.93982273917392  0.25897878647865
 6  7.38271675917592 -2.02586545854585 -0.22306336863686
 6 -6.21983175917592  1.51254482898290 -0.36972882948295
 6  7.21765495969597 -3.57648137033703 -0.04193397519752
 6  6.31118838783878 -1.19068935763576 -0.40309265166517
 6 -4.77408138183818  1.60169370857086 -0.25393630703070
 6  4.95229607550755 -1.52084992789279 -0.13584136433643
 6 -3.94098547094709  2.56631965816582 -0.63672486148615
 6 -2.56844728282828  2.51399935753575 -0.60831357915792
 6  4.03651761726173 -0.53734424052405 -0.25859537593759
 6  2.63538058665867 -0.73176764826483 -0.11304625722572
 6 -1.87046559675968  3.88847342994299 -0.78430757815782
 6 -1.77700478597860  1.42037478187819 -0.42453847024702
 6  1.78111665666567  0.31093265476548 -0.21169973187319
 6  2.07112043314331 -2.19076186348635 -0.03205083718372
 6 -0.36833909280928  1.46497781908191 -0.39259261906191
 6  0.39309414021402  0.38424009180918 -0.19423268406841
 1 -10.93117985948595  1.36617840314031 -0.24413625882588
 1 -12.94423789688969 -1.33889390309031  2.34958285298530
 1 -11.05764343394339 -2.08775797079708  1.70706398899890
 1 -12.73530716431643 -3.14953406070607  0.30907576967697
 1 -10.28551395269527 -0.11931025542554  2.93778240214021
 1 -10.70951111771177  1.57607068406841  2.38472319421942
 1 -12.02656024832483  0.50769418841884  3.38807298509851
 1 -13.59685088688869  0.68450445274527  0.31335780608061
 1 -13.61589736033603  0.60240184758476  1.94462846484648
 1 -12.91876056145614  1.91653527532753  1.32736321962196
 1  12.53179054575458  2.23986893639364 -0.14450660746075
 1  12.80730515761576  2.17870190909091  1.54094169536954
 1 -12.93733721232123 -1.89317611411141 -2.08880307100710
 1  13.25545513031303 -0.19548929472947  1.31472180808081
 1 -9.41874424012401 -1.31166602560256  0.42833039303930
 1  13.66949209330933 -1.30323336263626 -0.76701185718572
 1  13.25426184368437  0.12981155905591 -1.65070499429943
 1  9.24710140774077  2.02153220502050  1.27220246764677
 1  9.98380024162416  2.66058866126613 -0.22148523302330
 1  10.44556823012301  3.29144411611161  1.46301245224522
 1  12.08716155745575 -0.15755300390039  2.62596901830183
 1  10.03900887148715 -0.11679422042204  2.57902103020302
 1  11.02338323742374  1.30119791659166  3.05186012901290
 1 -10.28764126212621  0.20417032773277 -2.52588998469847
 1 -11.69293835013501  1.15232123062306 -2.74497156245625
 1 -11.47503534863486 -0.52726147744774 -3.22226998459846
 1 -14.54561783508351 -2.37074602720272 -0.32437064086409
 1  8.44871393939394  0.37443766896690  0.31128377457746
 1 -8.87718288718872  1.67803945674567 -0.61091641204120
 1  11.37805353985399 -2.91846334233423 -1.74409726122612
 1  10.27849071547155 -1.69349545124512 -2.34746068006801
 1  12.10449974367437 -1.70652374247425 -2.79096504460446
 1  15.04621380168017  1.42010010981098  0.99421739063906
 1  9.43481325762576 -2.45946902860286 -0.40288673117312
 1 -5.56208066906691 -1.12047919861986  0.28928632543254
 1 -6.95129402750275 -1.14152612581258  1.24915716811681
 1 -7.16973320852085 -1.64686313451345 -0.47538575337534
 1 -6.75872815931593  2.45157395249525 -0.61222442414241
 1  6.90237378637864 -3.76852027462746  1.11045074077408
 1  6.30700804600460 -3.88805399319932 -0.46455604680468
 1  8.14445434283428 -4.06974315891589 -0.33979701240124
 1  6.41495992289229 -0.18542578197820 -0.67068919081908
 1 -4.34354658625863  0.64185385058506  0.09253319571957
 1  4.80877448094810 -2.53113236623662 -0.03245090589059
 1 -4.59998604430443  3.47088507030703 -0.88342799829983
 1  4.25910598679868  0.48421576047605 -0.18359757715772
 1 -1.36498625682568  3.66127757445745 -1.75488376027603
 1 -1.22623546194620  4.34764192149215  0.09799783998400
 1 -2.61664115221522  4.73947636313631 -0.97333562726273
 1 -2.29486836723672  0.53586021152115 -0.21249597959796
 1  2.26267530963096  1.23382737193719 -0.37529454455446
 1  1.98030655835584 -2.63310971337134  1.08500687918792
 1  0.93959903120312 -2.08175746684668 -0.60407169226923
 1  2.67344009340934 -2.86401418861886 -0.65736997999800
 1  0.13445933083308  2.52933277297730 -0.47999499099910
 1 -0.01312420842084 -0.62785295509551 -0.14551520652065

