%nproc=4
%Mem=4GB
# td=(NStates=1) CAM-B3LYP/6-31G(d,p) 

TD

0 1
 8 -14.13506938213821 -1.92543092479248  0.55860611591159
 8  14.79668150495050  1.03714130073007  0.38086868276828
 6 -11.78996185578558  0.07947402230223  1.38133295329533
 6 -10.92558952145215  0.32766553755376  0.02420613341334
 6 -12.06804228482848 -1.39521400580058  1.55203304460446
 6 -12.72807620112011 -2.05280634543454  0.37504165506551
 6 -11.47354264316432 -0.41579905820582 -1.08039352925293
 6  11.07751108170817  0.92597423992399  1.15725600530053
 6 -11.06057753095310  0.63867560636064  2.61143819451945
 6 -13.07892405480548  0.79684533143314  1.16591766856686
 6  12.55103228372837  1.44662408890889  0.97770515671567
 6 -12.28546953285329 -1.45842371017102 -0.89413218191819
 6  13.51553317421742  0.47158483108311  0.58066538543854
 6  10.72508198249825 -0.01451086128613  0.06342992809281
 6 -9.42681144504451  0.04710186198620  0.23348335593559
 6  13.02827080468047 -0.03388060746075 -0.78849443574357
 6  11.66887997679768 -0.43294834013401 -0.84346940574057
 6  10.17600448604860  2.14665397739774  1.18960167356736
 6  10.91352218471847  0.28630780618062  2.50438099939994
 6 -11.01793629112911  0.02926456795680 -2.47060931913191
 6 -8.42791889218922  0.85289027142714 -0.06528015051505
 6  9.30209513881388 -0.54563233903390  0.26858694249425
 6  11.17433737923792 -1.17732069886989 -2.12969257395740
 6 -7.07190851375138  0.49754699649965 -0.06901899119912
 6  8.84788124452445 -1.77674747224722 -0.18765390639064
 6 -6.49989141064106 -0.90007876477648  0.30858374697470
 6  7.32425091259126 -2.22112498449845 -0.20734179647965
 6 -6.23220299629963  1.44402797729773 -0.46807866446645
 6  7.15052824702470 -3.70640436263626 -0.12080186198620
 6  6.34351162016202 -1.25519580828083 -0.40078242064206
 6 -4.72748672237224  1.44500804000400 -0.56004691809181
 6  4.88276912281228 -1.46469431233123 -0.24117189738974
 6 -4.06194756715672  2.63914694089409 -0.77670885988599
 6 -2.58103854195420  2.53553151075108 -0.85306805460546
 6  3.88130209570957 -0.61103160926093 -0.37400691709171
 6  2.47660470907091 -0.85719019051905 -0.39167412001200
 6 -2.02669121932193  3.89202378497850 -1.15300444784478
 6 -1.80116720222022  1.46196894129413 -0.62412842924292
 6  1.67988653365337  0.11629319081908 -0.59599816171617
 6  2.05038835993599 -2.21329411671167 -0.01174880698070
 6 -0.39125138403840  1.40967228852885 -0.68748210801080
 6  0.25243007380738  0.26661832963296 -0.52584584538454
 1 -11.07976471797180  1.20009179447945 -0.48664050925092
 1 -12.72525599869987 -1.67594760846085  2.38051594629463
 1 -11.07910558015802 -2.01644083908391  1.74167745034503
 1 -12.71516515011501 -3.19743885118512  0.26869173127313
 1 -9.95624102540254  0.01499317491749  3.01736035993599
 1 -10.81342150875088  1.55646872387239  2.32534725662566
 1 -11.86661425372537  0.61138455745575  3.42887706550655
 1 -13.58387958975898  0.54573057535754  0.11509798009801
 1 -13.75831160176018  0.42828443584358  2.00278428042804
 1 -13.07708639403940  1.93568719051905  1.18963944724472
 1  12.54742210891089  2.20306525602560  0.19387723092309
 1  12.75871029812981  1.90474451335134  1.98225582678268
 1 -12.86841031963196 -1.83789058555856 -1.84373856455646
 1  13.69790937573758 -0.45435518131813  1.23430376627663
 1 -9.09217158285829 -1.03166802580258  0.50611817181718
 1  13.75384052815282 -0.94530757005701 -1.32384754075408
 1  13.11633805130513  0.79075765366537 -1.61910183398340
 1  9.09850654825483  1.76632668446845  1.49631487888789
 1  10.20042190379038  2.62470507290729  0.20049696519652
 1  10.55367904120412  2.86262123382338  1.88172432343234
 1  11.58090093139314 -0.43540078867887  2.79714613601360
 1  9.79011398199820  0.00205766476648  2.61893502160216
 1  11.05173607270727  1.11164896169617  3.30971591459146
 1 -9.94724722272227 -0.03024311361136 -2.51208860456046
 1 -11.42738179447945  1.15210120862086 -2.74086115141514
 1 -11.17829567466747 -0.73192194349435 -3.05446320392039
 1 -14.39406267956796 -1.92622157475748 -0.39509771357136
 1  8.64349341734173  0.20213043824382  0.81350399659966
 1 -8.83658882778278  1.97120877367737 -0.38525384578458
 1  11.53577931243124 -2.23932542854285 -2.06087893939394
 1  10.17608047444745 -1.07120322202220 -2.18936487048705
 1  11.64612390609061 -0.51510460056006 -2.87718366646665
 1  15.20372955325533  1.15088318811881  1.24413238213821
 1  9.41881165746575 -2.56855993769377 -0.52849929242924
 1 -5.51751621262126 -0.90210736143614  0.23826122292229
 1 -6.95304420252025 -1.12870484368437  1.26398865126513
 1 -6.90442667786779 -1.69232768096810 -0.24029224402440
 1 -6.66864915141514  2.45695449054905 -0.72903610531053
 1  7.04182773177318 -3.88072149474948  0.94976467216722
 1  6.26435378057806 -4.01144633243324 -0.67791738293829
 1  8.04079397679768 -4.04264044864486 -0.51336436913691
 1  6.50732915981598 -0.21765900530053 -0.77215933783378
 1 -4.09407163876388  0.57316698189819 -0.30580663826383
 1  4.58853245674567 -2.59296854985499 -0.01087874867487
 1 -4.53495954165416  3.57949593139314 -0.89135879137914
 1  4.08605868206821  0.36202354125413 -0.48518773617362
 1 -1.23722348054806  3.99036048274827 -2.02917118901890
 1 -1.56486932533253  4.25134229152915 -0.09523148294830
 1 -2.90683017111711  4.49134154965496 -1.50527882158216
 1 -2.41336021642164  0.58418504400440 -0.62419714971497
 1  2.11862090419042  1.05846983618362 -0.85274228932893
 1  2.12687121482148 -2.38867526992699  1.19423780228023
 1  0.97093216451645 -2.38585787688769 -0.34410569566957
 1  2.52195494489449 -3.11375916311631 -0.63997824082408
 1  0.35310119501950  2.38360820052005 -0.86068305980598
 1 -0.29048194419442 -0.62045221502150 -0.11837249224922

