%nproc=4
%Mem=4GB
# td=(NStates=1) CAM-B3LYP/6-31G(d,p) 

TD

0 1
 8 -14.14357023222322 -1.82474085578558  0.63229348464847
 8  14.75077691449145  0.83953153975398  0.02193278917892
 6 -11.68176103570357 -0.14969889498950  1.34404922492249
 6 -11.00304726722672  0.25055782678268 -0.03645993319332
 6 -11.99467494809481 -1.68781326572657  1.32294013531353
 6 -12.93166656015602 -2.01948301310131  0.20100425132513
 6 -11.57547283618362 -0.48945642394239 -1.16991248114811
 6  11.02279561016102  0.98314995749575  1.04772505220522
 6 -10.92251372457246  0.30952269106911  2.49923697439744
 6 -13.03192935533553  0.81694734163416  1.30592166896690
 6  12.47655483598360  1.38829825632563  0.88718610481048
 6 -12.54619560546055 -1.43187105490549 -1.07337010571057
 6  13.42246386728673  0.31554922752275  0.28764608350835
 6  10.66373584788479 -0.00153956415642 -0.06984339923992
 6 -9.41332009590959 -0.03377622582258 -0.01846183858386
 6  12.92202017961796 -0.24356157555756 -0.99105469176918
 6  11.50894398319832 -0.54079912521252 -0.96872193099310
 6  10.13210009560956  2.30374968696870  1.01488420182018
 6  10.91087191969197  0.35665484088409  2.49285984728473
 6 -11.16933143064307  0.14313595509551 -2.56662892109211
 6 -8.46074217451745  0.84977996039604 -0.26735035753575
 6  9.29686461576158 -0.41743951975198 -0.00795071127113
 6  11.04132407790779 -1.40204317111711 -2.13040264496450
 6 -7.12431375427543  0.47079432123212 -0.28149023832383
 6  8.78984544094410 -1.66700649814981 -0.14373951495150
 6 -6.73362478397840 -1.01497025392539 -0.07123423482348
 6  7.40142863036304 -2.14255712771277  0.01924086178618
 6 -6.04545432143214  1.41219479397940 -0.45927778437844
 6  7.24290748494849 -3.66132985518552  0.08186840504050
 6  6.37611488048805 -1.32006229492949 -0.14870721312131
 6 -4.70596457015702  1.39388292749275 -0.47577849124913
 6  4.93723456935694 -1.58991683458346 -0.04267204740474
 6 -3.97140851325133  2.56684971117112 -0.73106429542954
 6 -2.48928936703670  2.73217117471747 -0.67118986678668
 6  4.03093705920592 -0.58000850695070 -0.05577509390939
 6  2.60612766136614 -0.64698917041704  0.14471951935194
 6 -1.88974752495250  4.04594917751775 -1.05133428082808
 6 -1.73172025752575  1.66677942234223 -0.49544556095610
 6  1.85231377637764  0.44466602810281 -0.13613217511751
 6  2.09649297039704 -2.07077986528653  0.36777914581458
 6 -0.33206546544654  1.62377369866987 -0.38699205900590
 6  0.43675850665067  0.42361402920292 -0.21612487328733
 1 -11.04590133163316  1.27639942524252 -0.20668251345134
 1 -12.32055552865286 -1.84252426612661  2.38419631433143
 1 -11.08025569516952 -2.24341353635364  1.24845812841284
 1 -12.79888352195220 -3.08552766006601 -0.05440057795780
 1 -9.93777917921792 -0.21950027442744  2.49879850375038
 1 -10.74902506910691  1.30756383338334  2.56809153105311
 1 -11.48104569686969 -0.12521910291029  3.33507768556856
 1 -13.46080728252825  0.88049405170517  0.25120159045905
 1 -13.88006377697770  0.28822042944294  2.03577757975798
 1 -12.69168785418542  1.94727834963496  1.74595507880788
 1  12.38026539323932  2.24032898239824  0.07564540774077
 1  12.94350877797780  1.93847788668867  1.72009961116112
 1 -12.87091056965697 -1.90058685518552 -1.89726391709171
 1  13.60466005080508 -0.53455320112011  0.84861519741974
 1 -9.08068043374337 -1.05980083908391  0.00710827082708
 1  13.52370751485149 -1.26650969026903 -1.17496265226523
 1  13.10236665416542  0.38100667856786 -1.75708563236324
 1  8.88344504210421  2.11008105990599  1.11701694909491
 1  10.26892875447545  2.66089869226923  0.02947986348635
 1  10.44821849514951  2.80073504520452  1.84507065806581
 1  11.51482432373237 -0.46675392399240  2.75001142254225
 1  9.73704867546755  0.07872533153315  2.61576470457046
 1  11.31304220332033  1.11102889968997  3.12746768976898
 1 -10.27951044904490  0.23782369306931 -2.64837223292329
 1 -11.65040409670967  1.17733373187319 -2.55801286658666
 1 -11.71476932203220 -0.32248099939994 -3.41214897249725
 1 -14.67589086238624 -2.41566051865186  0.04587638383838
 1  8.48848791679168  0.34144436963696  0.15123776997700
 1 -8.64776994589459  2.00343199599960 -0.14026934733473
 1  11.29761549604961 -2.54095559155916 -2.13086593809381
 1  9.93595646204620 -1.29444554625463 -2.50428636263626
 1  11.71424071777178 -1.13156624672467 -3.15260120822082
 1  14.86978615891589  1.35996409620962  0.86969493839384
 1  9.57858763506351 -2.41446452815282 -0.46056249874987
 1 -5.55052951395140 -1.15464261496150  0.08411580838084
 1 -7.20787968606861 -1.43976594979498  0.84993724612461
 1 -6.93034927012701 -1.41122957115712 -1.15936415121512
 1 -6.45391767826783  2.34651344644464 -0.67230043174317
 1  7.03138668766877 -3.97301072367237  1.10149984568457
 1  6.45397274247425 -3.94518970677068 -0.32774236543654
 1  8.10752064946495 -3.98045423002300 -0.27240027272727
 1  6.66945537243724 -0.33814105350535 -0.40273239513951
 1 -4.13079531113111  0.45120478567857 -0.27090314791479
 1  4.57332093559356 -2.60730998399840  0.33578591779178
 1 -4.49504555025503  3.46253423522352 -0.92806246174617
 1  4.40679075527553  0.37970530943094 -0.34402361976198
 1 -1.21184094229423  4.00826227292729 -1.90951922382238
 1 -1.26567940634063  4.24007116441644 -0.27298925872587
 1 -2.54905439353935  4.91288370387039 -1.30112840654065
 1 -2.41248012841284  0.73721034653465 -0.36418114811481
 1  2.30137918001800  1.49643363256326 -0.22975999109911
 1  2.15155368306831 -2.26896329872987  1.44476285478548
 1  0.89797486878688 -2.20474976607661  0.00659937483748
 1  2.78282103150315 -2.56540432763276 -0.37246148914892
 1  0.18577446234623  2.51160099979998 -0.80283727522752
 1 -0.09058195419542 -0.44377454725473  0.04154349934994

