%nproc=4
%Mem=4GB
# td=(NStates=1) CAM-B3LYP/6-31G(d,p) 

TD

0 1
 8 -14.10360623582358 -2.16985536723672  0.80846110141014
 8  14.80377221402140  0.60300788738874  0.41343193909391
 6 -11.67201006060606  0.13722979787979  1.34949976997700
 6 -10.99005596809681  0.30205297629763 -0.02364865206521
 6 -11.93259874047405 -1.36427091149115  1.60347818911891
 6 -12.68413180668067 -2.24360542534253  0.54042819371937
 6 -11.67278256715672 -0.56172365066507 -1.14180967086709
 6  11.11763509410941  0.93787543004300  1.25442572227223
 6 -10.79096056925693  0.62255399419942  2.50643769446945
 6 -12.98858502090209  0.83312895979598  1.24514559135914
 6  12.54510169066907  1.37867729422942  1.05613299949995
 6 -12.42850383628363 -1.55411327912791 -0.84247701640164
 6  13.42194381528153  0.26036370897090  0.47836515541554
 6  10.59367884218422 -0.00399981018102  0.10288387348735
 6 -9.54745350925092 -0.17937078527853 -0.08673866626663
 6  13.00269824742474 -0.23934115351535 -0.87767335363536
 6  11.51056414521452 -0.50824586988699 -0.82737779657966
 6  10.26049293489349  2.22518183018302  1.20806351975198
 6  10.96171700420042  0.19706888228823  2.64584514581458
 6 -11.38574307180718 -0.02059041754175 -2.57774003220322
 6 -8.48619471977198  0.74189917231723 -0.16355997849785
 6  9.22792772207221 -0.48577635343534  0.22420250405040
 6  11.09428937443744 -1.31876484328433 -2.06858646334633
 6 -7.13703502640264  0.44808205000500 -0.20684277357736
 6  8.75428188458846 -1.73244304180418 -0.15442058305831
 6 -6.54790621212121 -0.99075783268327  0.02934582318232
 6  7.35101358885889 -2.11947481948195 -0.08894995729573
 6 -6.22916269226923  1.46976055055506 -0.35214707130713
 6  7.08172136633663 -3.54782850505051 -0.08954873667367
 6  6.39522679167917 -1.14975526422642 -0.28263060546055
 6 -4.76289026272627  1.40018355755576 -0.34367528092809
 6  4.95912675857586 -1.41644948784878 -0.19483726392639
 6 -4.06377775017502  2.55755878207821 -0.65546673567357
 6 -2.59676011411141  2.73421137873787 -0.77880062786279
 6  4.05548951445145 -0.48146865296530 -0.56752626902690
 6  2.68056510511051 -0.66839131063106 -0.44802975557556
 6 -2.06263481368137  4.18129271187119 -1.09585873327333
 6 -1.79364645014501  1.63387613201320 -0.63241925832583
 6  1.81276982198220  0.46912847434743 -0.66985554745475
 6  2.14307762886289 -2.00142292959296 -0.11859949204921
 6 -0.35616787568757  1.60721204250425 -0.81410477027703
 6  0.43246807760776  0.45624729252925 -0.65300856165617
 1 -11.17595433693369  1.47628941424142 -0.13029487468747
 1 -12.29817329042904 -1.60164017771777  2.68579647434743
 1 -10.89450712031203 -2.01767096209621  1.66099938253825
 1 -12.34511814541454 -3.38963807110711  0.56973183528353
 1 -9.81265666696670  0.09212088768877  2.54054267816782
 1 -10.84334450105010  1.80113319031903  2.21423614551455
 1 -11.24153174547455  0.40858427742774  3.37181135893589
 1 -13.50271147294729  0.55100110241024  0.38910538083808
 1 -13.67980375097510  0.62150375777578  2.20622462446245
 1 -12.87443612901290  1.87297091889189  1.11114159745975
 1  12.60810817751775  2.30239518901890  0.42447029022902
 1  12.95059948704870  1.65880991989199  2.10547814901490
 1 -12.82093557215722 -2.15510230673067 -1.57257144784478
 1  13.22922250705071 -0.53571331713171  1.19969030493049
 1 -9.28116048174818 -1.16994185318532  0.09185674567457
 1  13.45439058315832 -1.05364840414041 -1.21382653865386
 1  13.18700511801180  0.73652223012301 -1.44621454525453
 1  9.25510220782078  1.92155220702070  1.65021026842684
 1  10.30166202780278  2.58471107350735  0.03211012651265
 1  10.78412208550855  3.06868183988399  1.88425457645765
 1  11.59178201950195 -0.73409065766577  2.77228364976498
 1  9.88967393799380 -0.08326086708671  2.85727885598560
 1  11.09421032013201  0.88959675647565  3.54059900290029
 1 -10.24686718471847 -0.09965005430543 -2.85680307600760
 1 -11.79443850015002  0.91250724922492 -2.71981904720472
 1 -11.78714655975597 -0.85202395369537 -3.23705146274627
 1 -14.62003527682768 -2.08056700930093  0.00318211441144
 1  8.72565163316332  0.34533475867587  0.53814646084608
 1 -8.74349951885189  1.83639529232923 -0.11580690109011
 1  11.43532926742674 -2.40679217521752 -1.92455530703070
 1  10.05431829822982 -1.27086318801880 -2.38817475147515
 1  11.65416471017102 -1.10202329242924 -3.01592754085409
 1  15.13632281258126  0.92540063986399  1.21142911181118
 1  9.49695947224722 -2.47443052475248 -0.28726516901690
 1 -5.41604606560656 -1.01623877457746 -0.17726032923292
 1 -6.74665356345634 -1.21125309850985  1.23801605400540
 1 -6.95722195739574 -1.74752320052005 -0.67015523032303
 1 -6.79610189668967  2.52656145124512 -0.28259146084608
 1  6.95548909790979 -3.74410783338334  1.05225492119212
 1  6.12892023722372 -3.80981616941694 -0.64176376757676
 1  7.93998389578958 -4.14358054265427 -0.46008904160416
 1  6.62424085098510 -0.15361260066007 -0.60138226012601
 1 -4.42756498809881  0.39387905310531 -0.41145720332033
 1  4.69553315681568 -2.24461371437144  0.06618895809581
 1 -4.64669071477148  3.49165714751475 -0.67648730423042
 1  4.41709178537854  0.71004834373437 -0.79096831423142
 1 -1.68714847304731  4.09450089678968 -2.16611488338834
 1 -1.28848168656866  4.47561471877188 -0.51831379117912
 1 -2.77061654975498  4.87314973047305 -1.14334262796280
 1 -2.03113199359936  0.52125875137514 -0.40187491749175
 1  2.32946198829883  1.56768075727573 -0.76095311041104
 1  2.06394492219222 -1.97627402980298  1.10609898839884
 1  1.11601667296730 -2.05737502860286 -0.53940522562256
 1  2.74576732613261 -2.90680846804680 -0.62256649964997
 1 -0.06476059115912  2.59222906260626 -0.74902189368937
 1 -0.20533342934293 -0.47436760656066 -0.53665432043204

