%nproc=4
%Mem=4GB
# td=(NStates=1) CAM-B3LYP/6-31G(d,p) 

TD

0 1
 8 -14.11510738593859 -2.09567794949495  0.56158641394139
 8  14.84117595439544  0.98235582218222  0.13556415231523
 6 -11.77577043664366  0.08991506640664  1.29186400640064
 6 -10.98659562206221  0.43456622762276 -0.05620190739074
 6 -11.93598907950795 -1.39197368176818  1.48247608890889
 6 -12.67926131963196 -2.10056112091209  0.28748289918992
 6 -11.64411970087009 -0.36916439473947 -1.18092358225823
 6  11.18295162576258  0.84316595909591  1.18535881558156
 6 -11.02371384458446  0.68395013381338  2.52192924362436
 6 -13.19193535593559  0.82229787668767  1.20838191499150
 6  12.56826400690069  1.54285371187119  0.78434582078208
 6 -12.32671365726573 -1.47485535333533 -0.97111988068807
 6  13.53658527942794  0.47455512811281  0.29759707860786
 6  10.72019149344935  0.02954354415442  0.01629521462146
 6 -9.57585634953495 -0.07087993619362 -0.01934192659266
 6  13.04475245284528 -0.05345256465647 -0.97852343864386
 6  11.60983407220722 -0.44273931923192 -0.97095215401540
 6  10.32377926352635  2.15478479047905  1.34192690609061
 6  11.22475330783078  0.16417559295930  2.47314787608761
 6 -11.65755025252525  0.34279592109211 -2.47557981618162
 6 -8.56048214851485  0.78690367276728 -0.20753437593759
 6  9.38325325462546 -0.42085986178618  0.04967505130513
 6  11.17833777927793 -1.29694266106611 -2.05262486718672
 6 -7.14495581848185  0.43020026182618 -0.27551964126413
 6  8.86687314371437 -1.68267806530653 -0.13160830183018
 6 -6.63083450495049 -0.97638639553955 -0.08998611001100
 6  7.38304679217922 -2.05888876087609 -0.12936399869987
 6 -6.19711948794879  1.45500907540754 -0.40316217281728
 6  7.16671986618662 -3.60374409660966  0.09445966416642
 6  6.35795306430643 -1.23517380608061 -0.16090843324332
 6 -4.75603957765777  1.43485702490249 -0.44067498089809
 6  4.94243508940894 -1.54517236013601  0.02365458525853
 6 -4.04712608500850  2.47607063326333 -0.74869605860586
 6 -2.65518595669567  2.59756771437144 -0.80572332013201
 6  3.97998196369637 -0.67162766886689 -0.17353687008701
 6  2.60390743934393 -0.86230070157016 -0.11145609820982
 6 -1.99595814601460  3.97682226482648 -0.94721386878688
 6 -1.77604468996900  1.46695944034403 -0.65821183758376
 6  1.70111865686569  0.18300986248625 -0.28568713061306
 6  2.16724004510451 -2.31464425172517  0.30585295319532
 6 -0.39095135403540  1.45240656195620 -0.58134149394940
 6  0.34136896769677  0.19909157695770 -0.34060732153215
 1 -11.02011875337534  1.53305509080908 -0.08738058325833
 1 -12.49005247834783 -1.66837685138514  2.52602049674968
 1 -10.81351902150215 -1.66715591059106  1.81680496309631
 1 -12.30349398299830 -3.19683879117912  0.31811667376738
 1 -9.88806420772077  0.56410808640864  2.48768739263926
 1 -11.04845501210121  1.84901797879788  2.44063878577858
 1 -11.62690028232823  0.66242966196620  3.52598677647765
 1 -13.81962316411641  0.53862986528653  0.41613808410841
 1 -13.80991676227623  0.45267687508751  2.12988699069907
 1 -12.99954864026403  1.87338095989599  1.25405588888889
 1  12.42883024972497  2.28428337783778 -0.02800495729573
 1  12.96655108220822  2.09075311421142  1.58869647084708
 1 -12.89279275787579 -1.83553034953495 -1.80991518221822
 1  13.75486507130713 -0.23020276607661  0.92399273517352
 1 -9.29652201790179 -1.20292515151515 -0.20648308830883
 1  13.73291843594359 -0.62855589488949 -1.47832298829883
 1  12.94200061756176  0.70684926282628 -1.80953087688769
 1  9.40564726232623  1.82522257405741  1.97956320372037
 1  10.03871573317332  2.38803140554055  0.31923883938394
 1  10.82538621192119  2.85109008070807  1.97932408340834
 1  11.75539838113811 -0.78058530713071  2.50802722412241
 1  10.29074404500450 -0.02595513651365  2.81099422752275
 1  11.72560345944594  0.88594639143914  3.28246318931893
 1 -10.80318281628163  0.72806271697170 -2.74514190989099
 1 -12.47260631693169  1.39959595809581 -2.33753081838184
 1 -11.99496734183418 -0.33048179947995 -3.34202195979598
 1 -14.36047932123212 -2.75028398099810 -0.17096530033003
 1  8.62259132713271  0.43809403460346  0.28387103330333
 1 -8.95834100300030  1.82524417721772 -0.28816413681368
 1  11.47036277077708 -2.28742023802380 -1.81922477397740
 1  10.24640750715072 -1.18454455615562 -2.39750568456846
 1  11.86868616231623 -1.29224231433143 -3.05651159925993
 1  15.18890807110711  1.35946404620462  0.89004697359736
 1  9.58566834313431 -2.54172725442544 -0.30464690719072
 1 -5.58127258825883 -1.18638578927893 -0.29755235843584
 1 -6.76923582168217 -1.30180215341534  0.88907115951595
 1 -7.27313354855486 -1.74781322952295 -0.53416163096310
 1 -6.67299958645865  2.41702049714971 -0.41783498519852
 1  6.90289383838384 -3.76378980158016  1.04806450215022
 1  6.46066341154115 -4.03042823062306 -0.63723331453145
 1  8.12749264666467 -4.11271745634564  0.05136210351035
 1  6.47491591849185 -0.11394863426343 -0.38735085698570
 1 -4.42558479007901  0.53045271047105 -0.22454851245125
 1  4.55211881538154 -2.40065931893189  0.37618995819582
 1 -4.69452549824982  3.40107808960896 -1.14409406490649
 1  4.09500957715772  0.45404274317432 -0.46642585998600
 1 -1.17606736493649  4.01338278497850 -1.73828210011001
 1 -1.34912775117512  4.02323948124813 -0.01769372917292
 1 -2.78997848594859  4.57888030353035 -0.97845613931393
 1 -2.32330121052105  0.47008363386339 -0.69223395339534
 1  2.20488953105311  0.98402239143914 -0.61497851295130
 1  2.60002853055306 -2.79209561196120  1.09570794929493
 1  1.01823689498950 -2.39734902600260  0.56420513541354
 1  2.38898164756476 -2.83542132933293 -0.26844108710871
 1  0.12856874177418  2.30699053875388 -0.89655664716472
 1 -0.19859275527553 -0.80935110491049 -0.20568122312231

