%nproc=4
%Mem=4GB
# td=(NStates=1) CAM-B3LYP/6-31G(d,p) 

TD

0 1
 8 -14.20201607680768 -1.80338872057206  0.58746900220022
 8  14.80820265706571  0.99831741834183  0.41443203910391
 6 -11.74308716831683  0.02610868576858  1.39320414041404
 6 -10.97386434893489  0.26395916691669  0.12074578737874
 6 -11.95846132673267 -1.46418090249025  1.55230307160716
 6 -12.70915430893089 -2.08868993379338  0.32076622752275
 6 -11.77433272217222 -0.23216069436944 -1.06382187208721
 6  11.08506183678368  0.95564720722072  1.12556283598360
 6 -10.90999247244724  0.44462620142014  2.53479052975298
 6 -13.11890805320532  0.82736838373837  1.34395547234723
 6  12.44017119761976  1.57459688618862  0.86474386058606
 6 -12.35401638753875 -1.40829869766977 -0.99068183688369
 6  13.48241986288629  0.50479815241524  0.44037135603560
 6  10.68349782408241 -0.08841825202520  0.06487007210721
 6 -9.54527329122912 -0.09144199239924  0.10964097169717
 6  13.03612158975898 -0.18061528092809 -0.77430301660166
 6  11.58799188798880 -0.52990803610361 -0.83075813461346
 6  10.12241912751275  2.19893920592059  1.05954866826683
 6  10.99446027852785  0.43603277867787  2.57722828412841
 6 -11.31834633213321  0.25821746324632 -2.45660791899190
 6 -8.52805890619062  0.72314729712971 -0.10187380988099
 6  9.32235716501650 -0.40961873767377  0.07645772957296
 6  11.29955990149015 -1.34004697149715 -1.96302590729073
 6 -7.11734305720572  0.45154239603960 -0.17598968826883
 6  8.80966742314232 -1.75404520202020 -0.03603874487449
 6 -6.73982540404040 -1.00181893879388 -0.17637474887489
 6  7.43059154665467 -2.17071994399440 -0.17425848814882
 6 -6.28344812081208  1.50041361586159 -0.37333919051905
 6  7.18646184038404 -3.64419814201420  0.17320753895390
 6  6.39935720472047 -1.31219150785078 -0.50138248064806
 6 -4.80708468216822  1.44789832903290 -0.51506241964196
 6  4.93770461636164 -1.64944278717872 -0.34809258945895
 6 -3.93674504690469  2.51423444964496 -0.63244443344334
 6 -2.58676911501150  2.59986794439444 -0.70159290709071
 6  4.04898886438644 -0.56987749384939 -0.53305282168217
 6  2.64330137873787 -0.82355682718272 -0.29023397599760
 6 -1.94674322452245  3.95400998359836 -1.08831797919792
 6 -1.75438252375238  1.44306705110511 -0.54432044844484
 6  1.76227477247725  0.23529509100910 -0.56268483038304
 6  2.14909823092309 -2.12926571387139  0.01642401030103
 6 -0.35497775667567  1.43570489178918 -0.79944330413041
 6  0.36969179998000  0.24945661346135 -0.43958721952195
 1 -11.18484522602260  1.36078786408641 -0.20620246544654
 1 -12.49756322942294 -1.62260227392739  2.67024491919192
 1 -10.94034170377038 -1.87132632763276  1.85242852545254
 1 -12.59784341794179 -3.22544165146515  0.19664452655266
 1 -10.08393379467947 -0.36785510991099  2.78315693959396
 1 -10.56924709130913  1.68164124112411  2.37822254415441
 1 -11.51933952625263  0.73013643264326  3.51939611741174
 1 -13.75289649144914  0.55920192249225  0.45506197649765
 1 -13.74175994659466  0.53016462386239  2.30793479547955
 1 -12.96140482588259  1.90188381018102  1.27514799809981
 1  12.51381874857486  2.42057700720072  0.09139698289829
 1  12.85362979007901  2.15774981388139  1.76686428762876
 1 -12.77846132473247 -1.74233102960296 -2.10415460616062
 1  13.59851943674368 -0.15411515731573  1.42142247814781
 1 -9.36447881358136 -1.05088994799480  0.19593715371537
 1  13.67893303740374 -1.12222526182618 -0.86787194319432
 1  13.34213063056306  0.48812739063906 -1.76261618541854
 1  9.11723842144214  1.94527457925793  1.31145639303930
 1  10.20861272287229  2.61296389878988 -0.01314439893989
 1  10.59473314661466  2.96243121482148  1.60855700670067
 1  11.58733157445745 -0.38618586718672  2.71096751815181
 1  9.93108807940794  0.01333879287929  2.70530365846585
 1  11.20491139023902  1.30204800160016  3.24736967996800
 1 -10.18979147714772  0.19537944864486 -2.66169356505651
 1 -11.65516457275728  1.31600759925993 -2.39290635593559
 1 -11.79659750485049 -0.11457020832083 -3.29012677027703
 1 -14.76632990629063 -1.98753770637064 -0.28345654945495
 1  8.59416848484848  0.38194842004200  0.30697334353435
 1 -8.82445761466147  1.74579623242324 -0.13729905030503
 1  11.65059079357936 -2.39046054205421 -1.83828668016802
 1  10.02651551795180 -1.33939004070407 -1.96946288028803
 1  11.77573686738674 -1.07951104120412 -2.97344329242924
 1  14.77394657495750  1.70771887168717  1.11729969886989
 1  9.62713248954896 -2.66146922862286 -0.07855429792979
 1 -5.65067952895290 -1.22868001870187 -0.59980258345835
 1 -6.82774167226723 -1.36389836303630  0.71588384078408
 1 -7.45827206240624 -1.66565501370137 -0.69444765956596
 1 -6.71540382688269  2.38908770387039 -0.31569477117712
 1  6.81469501850185 -3.60061348394839  1.24414411011101
 1  6.63687103230323 -4.25818100590059 -0.41449104030403
 1  8.00310020742074 -4.27828401300130  0.31176814411441
 1  6.67885631253125 -0.30344758415842 -0.56700882278228
 1 -4.25651788338834  0.56932659785979 -0.15493155075507
 1  4.88785238873887 -2.65949520252025 -0.21200886168617
 1 -4.32217826352635  3.37891587338734 -0.66502615811581
 1  4.35543561976198  0.45498283718372 -0.88867808520852
 1 -1.36796655485549  3.87650909760976 -2.04362263416342
 1 -1.02383522192219  4.04291144844484 -0.32016397619762
 1 -2.63480296839684  4.77735015051505 -1.00599889358936
 1 -2.10368924932493  0.30837746324633 -0.38454318431843
 1  2.27371641374137  1.08593258245825 -0.71543855895590
 1  2.75403393109311 -2.61701810421042  0.86710508900890
 1  1.21602667396740 -2.15319461056106  0.42378109300930
 1  2.19403215261526 -2.88771655885589 -0.90707495049505
 1  0.17662354725473  2.21040087978798 -1.00777776927693
 1 -0.06305920192019 -0.69386955675568 -0.19246990199020

