%nproc=4
%Mem=4GB
# td=(NStates=1) CAM-B3LYP/6-31G(d,p) 

TD

0 1
 8 -14.13110898609861 -1.97741612331233  0.48153840914091
 8  14.92595443224322  0.62162974957496  0.29619021492149
 6 -11.78101096069607  0.12934900980098  1.33124794479448
 6 -10.98862582508251  0.41561433243324 -0.02355864306431
 6 -11.94749022962296 -1.36420090449045  1.48005584688469
 6 -12.67550094359436 -2.12026309110911  0.40021417231723
 6 -11.50244553345335 -0.50126760506051 -1.18081357125713
 6  11.14137746834683  1.03684532703270  1.12900318001800
 6 -10.96275774897490  0.71522326112611  2.61867891859186
 6 -13.18435459785979  0.70642628952895  1.26143722052205
 6  12.69441662216222  1.49966939343934  0.94563194939494
 6 -12.25033601950195 -1.63976184398440 -0.94764753345335
 6  13.58031965286529  0.34664233683368  0.44200151905191
 6  10.63797327162716 -0.02286169636964  0.00532411751175
 6 -9.46324508840884 -0.01832468066807  0.20369037663766
 6  13.07454543214321 -0.15531275067507 -0.85246083238324
 6  11.58092118091809 -0.39713475877588 -0.95642070087009
 6  10.20226711231123  2.25229454145415  1.16903961736174
 6  11.00029086158616  0.30484966036604  2.52808336963696
 6 -11.24430892839284 -0.07195555405541 -2.56235849404941
 6 -8.54855095539554  0.92113709610961 -0.14547817031703
 6  9.20146507580758 -0.37858563436344  0.11826190999100
 6  11.11912185768577 -1.25737870467047 -2.12231183588359
 6 -7.15521684458446  0.53982122392239 -0.23155524482448
 6  8.72424888128813 -1.64324412191219 -0.07012215321532
 6 -6.75709713121312 -0.88390714761476  0.04998788738874
 6  7.39127761526153 -2.10519339133913 -0.20358142044204
 6 -6.20489026502650  1.56496007050705 -0.37720957755776
 6  7.15314850905091 -3.57736145834583  0.07254747294729
 6  6.34108137713771 -1.24573486218622 -0.28550089248925
 6 -4.84769874357436  1.46392993219322 -0.38172908630863
 6  4.97045789168917 -1.49480732363236 -0.23175095529553
 6 -4.02545391779178  2.60498352455246 -0.60873206220622
 6 -2.60750118821882  2.58714667226723 -0.70141288908891
 6  4.00126409190919 -0.48818932503250 -0.38370788718872
 6  2.58985603420342 -0.77561203270327 -0.32451740434043
 6 -2.03905245544554  3.87813239583958 -1.04819396679668
 6 -1.78477556305631  1.45567831223122 -0.53359937633763
 6  1.67999654465447  0.25138670017002 -0.42495105700570
 6  2.15734905600560 -2.28809159645965  0.01406377427743
 6 -0.39800205910591  1.36151747304730 -0.63030639043904
 6  0.32693752455246  0.21146281408141 -0.43821708250825
 1 -11.14400114161416  1.39112089738974 -0.17317916311631
 1 -12.19931340444044 -1.64957497119712  2.43079097379738
 1 -10.78684635423542 -1.67339653465346  1.59696297889789
 1 -12.45514914851485 -3.30760986828683  0.48991385348535
 1 -10.00701610291029  0.28338001360136  2.66350497439744
 1 -10.96962712931293  1.84268734573457  2.54817953985399
 1 -11.70216780908091  0.59578299729973  3.44860903870387
 1 -13.62784398619862  0.49982598489849  0.16310278057806
 1 -13.84402017261726  0.48017962536254  1.94063806580658
 1 -12.95894457985798  1.81557517931793  1.06271675497550
 1  12.72708007470747  2.38342329182918  0.20985882908291
 1  12.98708313541354  1.82512655155515  1.98910651185119
 1 -12.64061754035404 -2.24914171067107 -1.88656284698470
 1  13.52482206700670 -0.56566631243124  1.18905924182418
 1 -9.16872923862386 -0.97745260426043  0.45922348234824
 1  13.64532967706771 -0.93466650595060 -1.21841699769977
 1  13.41218763626363  0.54512309020902 -1.52697262106211
 1  9.26863356095610  1.98083813561356  1.59093434083408
 1  10.24615647724772  2.92633523592359  0.11106802230223
 1  10.70919459275927  3.13963893559356  1.67207335833583
 1  11.66954979627963 -0.58280552915292  2.51129755115512
 1  9.97621259185918  0.03593105210521  2.56427955605561
 1  11.32272317141714  0.89032682948295  3.36243118611861
 1 -10.20042254025403  0.28035794649465 -2.48436583228323
 1 -11.87221627792779  0.87242324082408 -2.79803686898690
 1 -11.63567141224122 -0.86694544584458 -3.38973673127313
 1 -14.39272254555456 -2.11103005560556 -0.38008621242124
 1  8.39467853585358  0.31922214741474  0.36997964416442
 1 -8.93405857475748  1.81921357415742 -0.32053737413741
 1  11.21948768326833 -2.45622711871187 -2.04758761026103
 1  10.09676254265427 -1.06831293299330 -2.34750068406841
 1  11.51822111581158 -0.89854294439444 -2.96880282838284
 1  15.28178735903590  1.06901500130013  1.10319828872887
 1  9.47173694999500 -2.35929901160116 -0.30348679117912
 1 -5.67210167116712 -1.07108425912591  0.03821121792179
 1 -7.15595449354935 -1.29915188838884  0.97194944734473
 1 -6.99710594579458 -1.60943939213921 -0.82403061786179
 1 -6.63954624112411  2.59331812691269 -0.42764596629663
 1  6.79945349434943 -3.67479090169017  1.12970266596660
 1  6.42976032123212 -3.91489667746775 -0.73695328652865
 1  8.00955085248525 -4.24492067666767 -0.06694972767277
 1  6.56556498339834 -0.17651489088909 -0.44294641654165
 1 -4.28067029862986  0.51155082028203 -0.17891394899490
 1  4.52326593009301 -2.59092834583458 -0.24633229402940
 1 -4.37456350205021  3.66619460126013 -0.98890854635464
 1  4.21059113531353  0.52043938283828 -0.54817403480348
 1 -1.62187194539454  3.90485193189319 -2.04991326322632
 1 -1.12157499589959  4.12261941924192 -0.22670463026303
 1 -2.82201168926893  4.65894831033103 -0.98122641634163
 1 -2.41993087348735  0.60288691419142 -0.30162489248925
 1  2.08308735083508  1.37462145134514 -0.56559357445745
 1  1.96087461516152 -2.56801320372037  1.28333671217122
 1  1.15073014431443 -2.44577386848685 -0.47255854095409
 1  2.88615136453645 -3.08403619081908 -0.40433467646765
 1  0.03735962086209  2.34442428212821 -0.62913990549055
 1 -0.13891678767877 -0.65193536333633 -0.04619527452745

