%nproc=4
%Mem=4GB
# td=(NStates=1) CAM-B3LYP/6-31G(d,p) 

TD

0 1
 8 -14.16491236643664 -2.04873325502550  0.38312856815682
 8  14.77458929572957  0.81486907350735  0.21162175807581
 6 -11.81921478107811  0.08757483238324  1.29685450545055
 6 -10.85840280278028  0.28665143614361  0.01998571137114
 6 -12.02090757135714 -1.49487397179718  1.44616245754575
 6 -12.81144453795380 -2.11718278307831  0.32893704460446
 6 -11.46252154105411 -0.41224870317032 -1.15750124002400
 6  11.00783411401140  1.04048569106911  1.03603388308831
 6 -11.10468194139414  0.56606834563456  2.48908595929593
 6 -13.15728189058906  0.84861050795080  1.15450652745275
 6  12.46221340184018  1.46849627612761  0.81278866506651
 6 -12.28068905480548 -1.55374324212421 -1.05818858755876
 6  13.48963058395840  0.40005767836784  0.37587490639064
 6  10.69474894919492 -0.01380079027903 -0.06899331423142
 6 -9.44494325822582 -0.13489633783378  0.08175818341834
 6  13.03820179777978 -0.16079329872987 -0.92749833613361
 6  11.55652874167417 -0.58790383568357 -0.90478553735374
 6  10.15829271487149  2.27908722072207  0.83340605400540
 6  10.78430926342634  0.47261643704370  2.45038559985999
 6 -11.19987448494850  0.04230587208721 -2.57821007920792
 6 -8.42136823712371  0.82965794819482 -0.07518114061406
 6  9.25289021832183 -0.44812258805881  0.02031211501150
 6  11.16273621912191 -1.63853682048205 -1.89627923262326
 6 -6.98365968886889  0.48662590439044 -0.10808289758976
 6  8.74905136153615 -1.76122592009201 -0.04003914491449
 6 -6.51812323382338 -0.99032778967897  0.10136302490249
 6  7.40573906140614 -2.20029290129013  0.01627056475648
 6 -6.18618839483948  1.51142471697170 -0.24054591119112
 6  7.09652284648465 -3.62487620982098  0.28217843604360
 6  6.34282155115512 -1.29251954065407 -0.22775511791179
 6 -4.76960093379338  1.46198973817382 -0.30346125952595
 6  4.99314015991599 -1.63599144204420 -0.16556433663366
 6 -4.01908328072807  2.59058208440844 -0.48932012101210
 6 -2.60294073217322  2.70517847544754 -0.61229397719772
 6  3.99630359585959 -0.55943644974497 -0.39716923332333
 6  2.61556860546055 -0.83150762226223 -0.42386733933393
 6 -1.97136568676868  4.12510709330933 -0.68161730913091
 6 -1.78850593609361  1.55154789918992 -0.51359737613761
 6  1.80850939593959  0.37948951045105 -0.54569313121312
 6  2.06573989508951 -2.08027081438144 -0.12496012811281
 6 -0.29383164206421  1.57008833013301 -0.53370673047305
 6  0.44739957075708  0.38095976377638 -0.42463572437244
 1 -11.16734347584758  1.40418220352035 -0.37451929712971
 1 -12.63207668076807 -1.37302731643164  2.44326222092209
 1 -10.94710237983798 -1.99826902190219  1.50297357995800
 1 -12.38816244984498 -3.13574268156816  0.40875573767377
 1 -10.11264666596660  0.11697337293729  2.44954357825783
 1 -10.94636480308031  1.72529560656066  2.50982570447045
 1 -11.68181577387739  0.42417583658366  3.16719089688969
 1 -13.56493769556956  0.70397639993999  0.23701017131713
 1 -13.98821459205921  0.66156776417642  1.88553255525553
 1 -12.79983866926693  1.99135275707571  1.38675915921592
 1  12.45840320702070  2.18971392089209 -0.14778693549355
 1  12.73473790089009  1.98285232413241  1.59246684788479
 1 -12.66290976957696 -2.25465226172617 -1.83840803150315
 1  13.43308289308931 -0.35640538633863  1.06380671657166
 1 -9.31008337403740 -1.22636749574957  0.37076463646365
 1  13.59997514161416 -0.98116115541554 -1.30386554255426
 1  13.16306272377238  0.78288686658666 -1.55718564236424
 1  9.14382107970797  2.01174122592259  1.18254350175018
 1  10.29273113471347  2.70833343574357 -0.16333941844184
 1  10.63862753605360  3.01975694739474  1.61052720372037
 1  11.62337517881788 -0.14626187478748  2.79376579797980
 1  9.77681265186519  0.32190964996500  2.52434556265627
 1  10.98951985108511  1.44736253305331  3.22221716471647
 1 -9.97532003000300 -0.19741983128313 -2.60219761546155
 1 -11.37476653295330  1.25301129962996 -2.67548461376138
 1 -11.78901674677468 -0.43667241854185 -3.24958271587159
 1 -14.50837411071107 -2.52884183678368 -0.45669387318732
 1  8.39327839583958  0.31363158835884  0.04976762296230
 1 -8.69743491239124  1.83260491329133 -0.28891421182118
 1  12.03767950245025 -2.48841033703370 -1.70036288778878
 1  10.03050591699170 -1.94601070277028 -2.01775770977098
 1  11.52968226192619 -1.09886297639764 -2.98292424052405
 1  15.01347052735274  1.17530563036304  1.06968493739374
 1  9.55543531983198 -2.53899698139814 -0.09323576607661
 1 -5.42002646364636 -1.00856800750075  0.35512290909091
 1 -7.33808270637064 -1.43042501570157  0.88482073447345
 1 -6.60078631383138 -1.40224867306731 -0.89321753655366
 1 -6.71373365986599  2.57391618671867  0.03019981828183
 1  7.25745929492949 -3.91493491609161  1.37190688638864
 1  6.09818716391639 -3.89489467726773 -0.26731632283228
 1  7.92387228462846 -4.23802998759876 -0.40066309900990
 1  6.50970939783978 -0.26497373677368 -0.88732085398540
 1 -4.01764399599960  0.51099076427643 -0.03951000860086
 1  4.59847345084508 -2.57922717571757  0.31698403760376
 1 -4.50654670037004  3.51694967676768 -0.51477113261326
 1  4.41993206940694  0.39180651955196 -0.72106132353235
 1 -1.25355511371137  4.15577702440244 -1.30095836773677
 1 -1.29490232863286  4.06748390569057  0.26874491469147
 1 -2.71876136423642  4.92340475597560 -0.91260955465547
 1 -2.33089196959696  0.62771939743974 -0.40232496249625
 1  2.29681872397240  1.32969695889589 -0.78129514461446
 1  1.69473800150015 -2.17183358575858  1.23699207770777
 1  0.93976904820482 -2.03019231033103 -0.56455774087409
 1  2.86923967336734 -2.98511629882988 -0.41238548154815
 1  0.18427431233123  2.42376221592159 -0.47459445094509
 1  0.00807791179118 -0.55310548034803 -0.15908656365637

