%nproc=4
%Mem=4GB
# td=(NStates=1) CAM-B3LYP/6-31G(d,p) 

TD

0 1
 8 -14.31799767496750 -1.81773015471547  0.44428468376838
 8  14.88402023882388  1.11767935453545  0.05291588748875
 6 -11.87664052365237  0.21367744264426  1.27493231323132
 6 -11.08078504100410  0.39514228522852  0.00093380618062
 6 -12.04550003060306 -1.36526101050105  1.40115795709571
 6 -12.86873026652665 -1.91242230703070  0.13929808070807
 6 -11.70071536043604 -0.32321980028003 -1.28844433433343
 6  11.18123145374537  0.98447008950895  1.12704298399840
 6 -11.19649112231223  0.61545328412841  2.52345939663966
 6 -13.13756991939194  0.95067071397140  1.18381945874587
 6  12.62542972347235  1.56494592109211  0.82745013121312
 6 -12.45007599349935 -1.37062493029303 -1.12463523222322
 6  13.58623024392439  0.54792246484648  0.28331565046505
 6  10.80137961226123  0.06290688048805  0.04252783788379
 6 -9.64623338723872 -0.08475132333233  0.10428043564356
 6  13.02644062166216 -0.04409162856286 -1.00392597889789
 6  11.64804789358936 -0.41307635293529 -0.92162722152215
 6  10.19675656125613  2.16260557255726  1.23049576297630
 6  11.11035186768677  0.30504968036804  2.56011657295730
 6 -11.32012651015101  0.34108575007501 -2.49344160236024
 6 -8.56534263456346  0.82234721712171 -0.07505112761276
 6  9.31516644594459 -0.37281505730573  0.07727781158116
 6  11.22155210071007 -1.23999696649665 -2.12468207290729
 6 -7.20127145004501  0.43104034583458 -0.02728481778178
 6  8.79582603900390 -1.65562536003600 -0.13221836283628
 6 -6.74001542304230 -0.95171392829283  0.37711059965997
 6  7.51922040954095 -2.09268214021402  0.01554049174917
 6 -6.17753752975297  1.45320889538954 -0.19817167376738
 6  7.25009820402040 -3.60025374757476  0.28141836003600
 6  6.39353662266227 -1.23449373807381 -0.24570691309131
 6 -4.83054702840284  1.14021756095610 -0.35973688708871
 6  5.09481032693269 -1.58939678257826 -0.04580236043604
 6 -4.03873524592459  2.34288731493149 -0.67920910991099
 6 -2.62087252535254  2.47113507110711 -0.72105485328533
 6  4.05799976547655 -0.67117762386239 -0.32367188358836
 6  2.62820986958696 -1.00031450295030 -0.27318227082708
 6 -1.93574212441244  3.75963054565457 -1.00522967036704
 6 -1.79315640114011  1.29572231663166 -0.57647366376638
 6  1.75044358935894  0.09361092259226 -0.48076663856386
 6  2.25124844594459 -2.46101888918892  0.01207357525753
 6 -0.31469372827283  1.30244156545655 -0.61238459825983
 6  0.41978680948095  0.06562823062306 -0.44647790859086
 1 -11.00602734423442  1.41268305360536 -0.22145399059906
 1 -12.53418689178918 -1.65711572527253  2.33627152185219
 1 -11.09770744034403 -1.94357355235524  1.34660794339434
 1 -12.66061969556956 -3.05237434473447  0.17688255035503
 1 -10.32827822912291  0.22564424002400  2.68843746764676
 1 -10.79889005560556  1.55889896689669  2.58192291419142
 1 -11.84251184348435  0.40081350035004  3.55555973377338
 1 -13.55806700850085  0.69679568186819  0.01799827012701
 1 -13.72626839743974  0.75088669606961  2.02745674767477
 1 -13.03084176957696  2.01284490629063  1.16811729502950
 1  12.43598096479648  2.47499244874487  0.14893273647365
 1  13.18255268236824  2.04007804670467  1.69082668386839
 1 -12.62861634023402 -1.97322411891189 -2.10804499519952
 1  13.67773735853585 -0.42393213901390  0.99479981588159
 1 -9.42104447014701 -1.22732759175918  0.22260982098210
 1  13.67536268036804 -0.84487752705271 -1.41695685168517
 1  13.12359877737774  0.64443302120212 -1.82603252705270
 1  9.31606830443044  1.95943599539954  1.44828007540754
 1  10.19262112371237  2.68954155655566  0.30509742524252
 1  10.64560823412341  2.98997396909691  1.96587273827383
 1  11.82055489678968 -0.35773302190219  2.73664008540854
 1  10.16065103570357 -0.24748728972897  2.71296442454245
 1  11.34918581768177  1.08075587238724  3.21725666866687
 1 -10.23650614861486  0.71237114781478 -2.29515691139114
 1 -11.77867692399240  1.39088508700870 -2.54602166746675
 1 -11.51068891399140 -0.31475022632263 -3.32464022162216
 1 -14.67381065436544 -2.37713666626663 -0.40629883368337
 1  8.65413448144814  0.54102432763276  0.30229287548755
 1 -8.86533170207021  1.71118277107711 -0.28327364776478
 1  11.70227596209621 -2.29167066306631 -2.06569942144214
 1  10.16263913031303 -1.14348044974497 -2.04875080908091
 1  11.59532882658266 -0.59606269636964 -2.88129407750775
 1  15.24968414871487  1.67743584338434  0.85330329922992
 1  9.77396717301730 -2.22287536923692 -0.25405184768477
 1 -5.55459992099210 -1.13744089478948  0.08960635743574
 1 -7.00087898599860 -1.30203217641764  1.39762201460146
 1 -7.18732496769677 -1.66105455365537 -0.32831104590459
 1 -6.49298158465847  2.50784958005801 -0.34602780448045
 1  7.14771832083208 -3.74798822142214  1.40425012071207
 1  6.26146349154916 -4.02781796959696 -0.49818941014101
 1  7.90619051645164 -4.33061924652465 -0.23332636533653
 1  6.87778620552055 -0.20703794319432 -0.37679980188019
 1 -4.47929016061606  0.30374003920392 -0.24192024962496
 1  5.04232783628363 -2.58098735173517  0.26082842204220
 1 -4.57505355105511  3.26477445924592 -0.67344700020002
 1  4.30250032623262  0.33730106900690 -0.53423264066407
 1 -1.75841559975998  3.75843729042904 -2.11211948384839
 1 -1.12489532793279  3.90311746904691 -0.21950391019102
 1 -2.76765625372537  4.44792720822082 -0.55242353605361
 1 -2.17228610901090  0.22401902740274 -0.55331006100610
 1  2.21473051515152  1.15217920712071 -0.44163117821782
 1  2.68593712141214 -2.79001540394039  1.04100247874787
 1  1.20829590089009 -2.61671096219622  0.05750446534653
 1  2.66428917831783 -2.87424521172117 -0.67250149314931
 1  0.32263814871487  2.21822166186619 -0.64228121962196
 1  0.00352745674567 -0.98192836263626 -0.39494014901490

