%nproc=4
%Mem=4GB
# td=(NStates=1) CAM-B3LYP/6-31G(d,p) 

TD

0 1
 8 -14.03974985018502 -2.16656503820382  0.15501575687569
 8  14.91938377517752  0.88636622322232 -0.14308371247125
 6 -11.86340920052005  0.02596867176718  1.22086690669067
 6 -11.02111907440744  0.46995976697670 -0.02011829902990
 6 -11.99324480508051 -1.61123560796080  1.23845168646865
 6 -12.59391278477848 -2.11734279907991 -0.05811166026603
 6 -11.56468175707571 -0.27311478977898 -1.20149563946395
 6  11.12316564716471  1.11829347184718  0.91502178187819
 6 -11.22496396959696  0.53419515831583  2.50766781748175
 6 -13.20221638403840  0.71141678857886  1.21994307110711
 6  12.59973715421542  1.50221964846485  0.67044443064306
 6 -12.24498548444845 -1.33471133893389 -1.28569133783378
 6  13.56505812671267  0.39275694829483  0.15240255915592
 6  10.64970444474447  0.03145373517352 -0.10816723162316
 6 -9.56628539243924  0.10395754755476  0.11425143274327
 6  13.03885186278628 -0.17985520492049 -1.06396198249825
 6  11.46285937473747 -0.58091313661366 -1.01269632843284
 6  10.25475236083608  2.32315162716272  0.88104081748175
 6  10.99515034753475  0.40159933533353  2.28932949424942
 6 -11.14371886938694  0.36925856735674 -2.57127938613861
 6 -8.53322942324233  0.91545652805281 -0.23024664716472
 6  9.26596152545254 -0.40177795359536  0.05445552935294
 6  11.12733267876788 -1.56087905470547 -2.11187079177918
 6 -7.14325564846485  0.54106134793479 -0.00182227152715
 6  8.76123257965797 -1.60997079457946  0.05548040704070
 6 -6.88815023652365 -0.93957271417142  0.31211410001000
 6  7.45799428692869 -2.06082895489549  0.11176011371137
 6 -6.22591236723672  1.50730430493049 -0.19323117971797
 6  7.07455064926493 -3.48556227842784  0.46252647084708
 6  6.35675294429443 -1.22000228892889 -0.13615595799580
 6 -4.82359633333333  1.46611015021502 -0.30961187458746
 6  4.97647849374937 -1.53346118901890  0.05337755755576
 6 -3.99721109350935  2.48076110231023 -0.59717090609061
 6 -2.63525396349635  2.55266322392239 -0.55880862866287
 6  4.04486845234524 -0.57386789288929 -0.12742225862586
 6  2.67123417201720 -0.89498396989699 -0.05978093069307
 6 -1.82959150935094  3.73365794839484 -0.82885203260326
 6 -1.70170725622562  1.43982672707271 -0.20694671107111
 6  1.79303784878488  0.24020558205821 -0.23170173207321
 6  2.10023334443444 -2.22436522382238  0.22779514741474
 6 -0.33786604550455  1.30910223152315 -0.33244660446045
 6  0.31617644844484  0.17926959475948 -0.07228048884889
 1 -11.30497723922392  1.64714649995000  0.07621577637764
 1 -12.54416788988899 -1.82474248794879  2.02664055875588
 1 -11.16428409800980 -2.02957215221522  1.42461574417442
 1 -12.22104573817382 -3.12585169246925 -0.32524766266627
 1 -10.06513191449145  0.31399307490749  2.44215283918392
 1 -11.33274344094409  1.64439751675168  2.72509723162316
 1 -12.07354494679468  0.20109352835284  3.19204338213821
 1 -13.88518972077208  0.45380138243824  0.56359282958296
 1 -13.75331110171017  0.60890249764976  2.17972197419742
 1 -13.29245793119312  1.90897451925193  1.28135861916192
 1  12.55013237993799  2.15836078557856 -0.19268142494249
 1  13.11633606070607  2.06564060296030  1.44503210441044
 1 -12.32418589718972 -1.81148794529453 -2.26780097079708
 1  13.67713729852985 -0.50271001680168  0.74027436333633
 1 -9.54095646134613 -0.89201406040604  0.32369992999300
 1  13.62407755185519 -0.90068310761076 -1.47816297229723
 1  13.32765918341834  0.54612319021902 -1.86173609740974
 1  9.26718341594159  2.04158421022102  1.17078232563256
 1  10.00220208180818  2.55553815621562 -0.15504858935894
 1  10.69057273057306  3.06377134883488  1.39685583658366
 1  11.81508434973497 -0.25642289088909  2.32041846324632
 1  10.03862883348335  0.15040249924992  2.72022515061506
 1  11.50927182628263  1.21127892469247  2.96027097009701
 1 -10.07364986298630  0.39294920562056 -2.57491488718872
 1 -11.41941099739974  1.37330332883288 -2.63308037333733
 1 -11.55770361546154 -0.18853760506051 -3.35109286688669
 1 -14.48947222052205 -2.22404135673567 -0.60454865866587
 1  8.64881394939494  0.65530575577558  0.20648329452945
 1 -8.71652682158216  1.95974762756276 -0.30230555095510
 1  11.49165489999000 -2.61943343934393 -1.82565541704170
 1  10.04821768816882 -1.79739584128413 -2.14352028602860
 1  11.72685197889789 -1.54856794689469 -3.06258220632063
 1  15.02878205850585  1.40179827962796  0.77623559245925
 1  9.32159193549355 -2.42740582228223  0.06878043554355
 1 -5.72502696369637 -1.34051120182018  0.06349374617462
 1 -7.09604850295030 -1.09525149834983  1.35019727212721
 1 -7.56255249044904 -1.46081452965297 -0.45362357715772
 1 -6.73222550905091  2.27504629972997 -0.55128833053305
 1  6.50944449344934 -3.82725614821482  1.34651434713471
 1  6.55713305850585 -3.84645983378338 -0.41791138233823
 1  7.95729562696270 -4.16490267486749  0.68199516681668
 1  6.61575000190019 -0.16540377977798 -0.52463458535854
 1 -4.32505473707371  0.42201186638664 -0.25907196479648
 1  4.66493009650965 -2.48003725672567  0.42636497569757
 1 -4.24613065876588  3.69627760956096 -0.64792444794479
 1  4.50365044124412  0.44428176707671 -0.50363958135814
 1 -1.43441319951995  3.75257670437044 -1.81116938883888
 1 -0.85903874227423  3.85326248354835 -0.14507646744674
 1 -2.51757124522452  4.54804722022202 -0.60401869556956
 1 -2.11757063746375  0.40524715021502  0.14903017301730
 1  2.21229027112711  1.13839782898290 -0.56550356545655
 1  2.48921744944494 -2.63191959435944  1.20870924942494
 1  0.98571364266427 -2.30485977707771  0.52133084798480
 1  2.40289303870387 -2.93494128132813 -0.89413365636564
 1  0.21704758965897  2.28965880558056 -0.83861085258526
 1 -0.07437033303330 -0.66395656545655  0.30918026302630

