%nproc=4
%Mem=4GB
# td=(NStates=1) CAM-B3LYP/6-31G(d,p) 

TD

0 1
 8 -14.11310718591859 -2.00310869256926  0.56282653795380
 8  14.83910574737474  0.98772635923592  0.03373396929693
 6 -11.81664452405241 -0.00731465656566  1.26920174017402
 6 -10.96436339883988  0.32432520352035 -0.11954824202420
 6 -11.98424390499050 -1.54341882628263  1.35650349164916
 6 -12.73251664516452 -2.13540460526053  0.23238738963896
 6 -11.71434672357236 -0.40425790409041 -1.24801029092909
 6  11.16678000860086  0.96989863236324  1.09810008970897
 6 -10.93017449064907  0.61214295309531  2.35093214391439
 6 -13.04639080148015  0.75964161106111  1.32846392319232
 6  12.60458763926393  1.50084951145115  0.84237162336234
 6 -12.41663264916492 -1.47882575037504 -1.13989675837584
 6  13.46704832573257  0.41080875347535  0.31288860776078
 6  10.68284775907591 -0.01200061026103  0.00432401750175
 6 -9.49860862476248 -0.04184703290329  0.01459146674667
 6  12.90989896749675 -0.20421764116412 -0.98572415871587
 6  11.41191428022802 -0.54158920422042 -0.95099015781578
 6  10.23146003160316  2.13389270127013  1.14113682708271
 6  11.12975380788079  0.32829200460046  2.51428198949895
 6 -11.36253075057506  0.14883652515252 -2.58693095129513
 6 -8.52785888618862  0.85418040044004  0.01210758825883
 6  9.28319324862486 -0.52333010881088  0.17674775857586
 6  11.08463840934093 -1.44912787958796 -2.11698130283028
 6 -7.12704402730273  0.56575381718172 -0.08653074237424
 6  8.87342379877988 -1.77715751325133 -0.11245638663866
 6 -6.60702212371237 -0.83713247014701  0.26816970557056
 6  7.49079756725673 -2.10543341534153  0.00064900260026
 6 -6.23138291429143  1.52274584908491 -0.43726558315832
 6  7.06662985718572 -3.51649537173717  0.05915613381338
 6  6.38066533553355 -1.20800108880888 -0.15915825822582
 6 -4.81139511321132  1.44112765196520 -0.40859177257726
 6  4.99176002190219 -1.45850369326933 -0.06509428962896
 6 -4.00521189358936  2.57361038723872 -0.67728891789179
 6 -2.57397783588359  2.57784574217422 -0.75333808160816
 6  3.96870083558356 -0.56454696079608 -0.22093160956096
 6  2.60040708930893 -0.76814128562856 -0.13677863046305
 6 -1.94667321752175  3.90236481908191 -1.01979112651265
 6 -1.76035312081208  1.50917366176618 -0.42564858125813
 6  1.80052859785979  0.28850041154115 -0.32300086198620
 6  2.22263558465847 -2.20929371667167  0.09043141104110
 6 -0.36892915181518  1.49719104040404 -0.46074943474347
 6  0.43059789058906  0.31769343714371 -0.32138539933993
 1 -11.02557929942994  1.24180596589659 -0.19826167136714
 1 -12.55457893099310 -1.72473248694870  2.26012390709071
 1 -11.05685335493549 -2.12492168716872  1.42314559715972
 1 -12.47626125972597 -3.19281838913891  0.03495835793579
 1 -9.99788518981898 -0.23885220962096  2.50263888778878
 1 -10.57256742334233  1.61293437043704  2.34826954885489
 1 -11.42518011031103  0.57901132013201  3.27525170297030
 1 -13.87135833763376  0.51887789008901  0.54106057635764
 1 -13.56567233783378  0.63451505890589  2.33790779277928
 1 -12.96777546294629  1.85104872667267  1.37694817811781
 1  12.30754812151215  2.19323427292729  0.05578342154215
 1  12.79526395349535  2.07306134503450  1.63601120232023
 1 -12.71256473507351 -1.94120091659166 -1.95124931563156
 1  13.50504008880888 -0.41610135593559  1.16402673857386
 1 -9.32100446614661 -1.18520337933793  0.19775733573357
 1  13.46523166726673 -0.97037007630763 -1.23994915091509
 1  13.09668608610861  0.73525210311031 -1.60578050185019
 1  9.23085978357836  2.09960001180118  1.53887913531353
 1  9.97318918051805  2.77885048744874  0.27953486898690
 1  10.65307898119812  2.87811278297830  1.90255640664066
 1  12.03764660596060 -0.57181443004300  2.54993141454145
 1  10.10006497709771  0.03292075107511  2.71687481558156
 1  11.56700759985999  0.97887568436844  3.37217216021602
 1 -10.31758425642564  0.16092600330033 -2.73695109080908
 1 -11.95062411871187  1.20587658615862 -2.70289735503550
 1 -11.97731557665767 -0.66398514981498 -3.30846860446045
 1 -14.58434170747075 -2.15333428602860 -0.31245944974497
 1  8.74459352735273  0.09725995119512  0.90776342254225
 1 -8.83532870177018  1.86545819861986 -0.48658397879788
 1  11.26780251475147 -2.60614211021102 -1.63310616211621
 1  9.99186205260526 -1.34526062776278 -2.41476741074107
 1  11.54286358005801 -1.13624671477148 -3.14096004410441
 1  15.21230041034103  1.07873597339734  1.04350231913191
 1  9.51834161046105 -2.64970805250525 -0.45885232773277
 1 -5.54226868786879 -0.98271542224222  0.55005240204020
 1 -7.08347724582458 -1.17769974317432  1.26583883628363
 1 -6.69850608580858 -1.61701014921492 -0.76243445824583
 1 -6.73136542304230  2.48572736783678 -0.55010821252125
 1  6.38485203420342 -3.72565598819882  1.01289098479848
 1  6.32917026222622 -3.80873606140614 -0.84518410961096
 1  7.80313021042104 -4.24349053365337 -0.08976200890089
 1  6.65334376127613 -0.23539077847785 -0.43350547244724
 1 -4.37517974957496  0.47729739493949  0.00442438483848
 1  4.64668827232723 -2.34718397139714  0.19132147134713
 1 -4.54201024672467  3.54804278607861 -0.79929958545855
 1  4.24158423462346  0.61913925282528 -0.14993421082108
 1 -1.50547030523052  4.21955340204020 -2.03045131703170
 1 -1.01196403480348  3.97301445874588 -0.29231119091909
 1 -2.64772426052605  4.78869128462846 -0.73611190489049
 1 -2.31762064246425  0.45912253775378 -0.37257198719872
 1  2.18196723882388  1.21799578877888 -0.60120713581358
 1  1.98114664236424 -2.13715011741174  1.53972235073507
 1  1.19988505980598 -2.61175046614661 -0.51180246534653
 1  3.21373412281228 -2.95055284248425 -0.24452869586959
 1  0.01161704660466  2.39199903960396 -0.82230922242224
 1  0.08095519951995 -0.74503467326733 -0.21097175217522

