%nproc=4
%Mem=4GB
# td=(NStates=1) CAM-B3LYP/6-31G(d,p) 

TD

0 1
 8 -14.07959383458346 -2.10815919761976  0.74476473177318
 8  14.82528436523652  0.79278686528653  0.32197279317932
 6 -11.77087994759476  0.12881895679568  1.29472429242924
 6 -10.98145510801080  0.26967973897390 -0.02521880908091
 6 -11.93604908550855 -1.33492797719772  1.60458830013001
 6 -12.65354874837484 -2.10890195499550  0.50098424932493
 6 -11.67971326022602 -0.55085256355636 -1.15187067696770
 6  11.17700103070307  0.96812845534553  1.24279455915592
 6 -11.02260373357336  0.79576131493149  2.47634468516852
 6 -13.16712287468747  0.74320996789679  1.23096417321732
 6  12.55456263676368  1.42728215471547  1.01628901510151
 6 -12.33814480038004 -1.62581044884488 -0.91610437913791
 6  13.50893251415141  0.36086375897590  0.48484580348035
 6  10.66838631293129 -0.02924233443344  0.07825141024102
 6 -9.46958572247225 -0.06112896109611  0.02519252685269
 6  13.00196817441744 -0.13840105950595 -0.81687727402740
 6  11.55464855365537 -0.47104214951495 -0.83943900270027
 6  10.27716460206021  2.18431774377438  1.29715242864286
 6  11.00504133663366  0.23721289668967  2.54980554185419
 6 -11.48707320482048 -0.02000035853585 -2.58700095829583
 6 -8.48127422772277  0.80816579897990 -0.29425304780478
 6  9.27330225952595 -0.43861163696370  0.08154823862386
 6  11.03615356085609 -1.29652261906191 -2.08072767746775
 6 -7.04346566946695  0.53039028082808 -0.09255134443444
 6  8.83726018241824 -1.68617841534153 -0.19621476247625
 6 -6.67787920942094 -0.92564132103210  0.02290517911791
 6  7.46826531403140 -2.16247911991199 -0.14563562586259
 6 -6.23650342634263  1.51759533403340 -0.33262511911191
 6  7.17670086428643 -3.48945266746675 -0.03101288308831
 6  6.38842611161116 -1.28484877357736 -0.34161650405041
 6 -4.77869184288429  1.53724726392639 -0.35031594499450
 6  5.05294614051405 -1.50538838173817 -0.24979275947595
 6 -3.91840321272127  2.61002402860286 -0.73505469446945
 6 -2.56295673377338  2.69263722132213 -0.77316006380638
 6  4.01417538303830 -0.56432693879388 -0.53316283268327
 6  2.62272932153215 -0.83650812231223 -0.32957791039104
 6 -2.01791034123412  4.17777235983598 -1.08568771617162
 6 -1.74513159865987  1.57189993439344 -0.55650166656666
 6  1.74314285928593  0.29176073757376 -0.47520608250825
 6  2.04665798689869 -2.23582636993699 -0.07337496959696
 6 -0.35340759965997  1.42923424472447 -0.57959131893189
 6  0.36432126292629  0.30453212101210 -0.50246350715072
 1 -11.16032277377738  1.32580436573657 -0.53268511371137
 1 -12.49368284138414 -1.59497951165117  2.54825271997200
 1 -11.04316198579858 -1.89630882588259  1.81646492909291
 1 -12.34691832543254 -3.21239034633463  0.59642450455046
 1 -9.94934033533353  0.32867454305431  2.53717234113411
 1 -10.94298446504651  1.96074915191519  2.19403412531253
 1 -11.62387998029803  0.69319273827383  3.23027720552055
 1 -13.65218642044204  0.17649365166517  0.42152862316232
 1 -13.76974274487449  0.36794840224022  2.26386038803880
 1 -13.02433111851185  1.65223884568457  1.01171165446545
 1  12.34095146184618  2.21023597309731  0.21637948114812
 1  12.85365979307931  1.83648768766877  1.98736633783378
 1 -12.91504498309831 -2.25972276877688 -1.69736392709271
 1  13.63249283408341 -0.52499224502450  1.22148248414841
 1 -9.40056242194219 -0.97105196419642  0.45382294229423
 1  13.66888203230323 -0.97245028432843 -1.25182033803380
 1  13.04628104560456  0.62235081298130 -1.61853177697770
 1  9.43065976357636  1.71500155195520  1.51232648004801
 1  10.01066292789279  2.75422802520252  0.31158807430743
 1  10.72251592489249  3.13189816151615  1.95472162316232
 1  11.60314315561556 -0.65410265886589  2.69570599199920
 1  10.20314528512851 -0.27999054005401  2.77345047314732
 1  11.31925282438244  0.99859765656566  3.25963090609061
 1 -10.50323282128213  0.04266417711771 -2.91396879257926
 1 -11.94129318561856  1.04084008250825 -2.54499156445645
 1 -12.02129997509751 -0.84659341064106 -3.18697645524552
 1 -14.51353462676268 -1.93930288288829 -0.21431963576358
 1  8.47826689468947  0.02589281448145  0.30614326052605
 1 -8.82510767966797  1.83785543834383 -0.63013833423342
 1  11.44192992749275 -2.38650014601460 -1.97836068756876
 1  9.89273213961396 -1.33143924562456 -2.05622155615562
 1  11.29113840754075 -0.76956004610461 -2.99949589768977
 1  15.22972215251525  1.32443054285428  1.19426739563956
 1  9.38972874917492 -2.58968204990499 -0.44860130263026
 1 -5.57353181418142 -1.30562771347135  0.06845424222422
 1 -7.14551344944494 -1.43421539473947  0.76891914431443
 1 -7.05985222042204 -1.59778822702270 -0.68337655245525
 1 -6.73352563906391  2.35559435453545 -0.63813701540154
 1  6.44250779977998 -3.73676709930993  0.81405110081008
 1  6.67784512971297 -3.73309849764976 -1.12826241744174
 1  7.98196809420942 -4.13076926152615 -0.15023805650565
 1  6.66261468836884 -0.24782202160216 -0.37298942084208
 1 -4.29026125772577  0.46437610281028 -0.11985804340434
 1  4.58679228272827 -2.41758101110111 -0.02738039883988
 1 -4.43317936363636  3.53976195799580 -0.90788044354435
 1  4.45620569676968  0.36453379227923 -0.75536475387539
 1 -1.47620737893789  4.20270171687169 -2.02528079998000
 1 -1.44381722012201  4.25865302260226 -0.28614057385739
 1 -2.70944043214321  4.92690510601060 -1.05224351805181
 1 -2.28044692509251  0.80622724822482 -0.21815654565457
 1  2.32042108420842  1.30905489468947 -0.63732074717472
 1  2.07258578627863 -2.57187358975898  1.04791316981698
 1  0.94375944724472 -2.09133842494249 -0.02390367546755
 1  2.49232198159816 -3.05946373357336 -0.64884912791279
 1  0.21538742364236  2.35956579627963 -0.83203019451945
 1 -0.39923281928193 -0.44652482228223 -0.37812846784678

