%nproc=4
%Mem=4GB
# td=(NStates=1) CAM-B3LYP/6-31G(d,p) 

TD

0 1
 8 -14.28838471367137 -1.75909429112911  0.60702095739574
 8  14.69520135693569  1.29654724132413 -0.07556696079608
 6 -11.71350421002100  0.10229630453045  1.28275309530953
 6 -10.91100806330633  0.31482425342534 -0.12818910611061
 6 -12.10430591119112 -1.46034051845184  1.55123296459646
 6 -12.90492388588859 -2.04178524332433  0.40784493539354
 6 -11.55113040194019 -0.60261774007401 -1.15901139103910
 6  11.06424975557556  0.95980762326233  1.17380766046605
 6 -10.85305677887789  0.56789852865287  2.38562561326133
 6 -13.04923108550855  0.89553520042004  1.14431550835083
 6  12.47719489999000  1.50760018651865  0.87114450065007
 6 -12.41097208310831 -1.57489535733573 -1.06622939163916
 6  13.50802242314231  0.54545221782178  0.23835115401540
 6  10.60873034733473 -0.09973938413841  0.07204078917892
 6 -9.45069383328333 -0.03269611781178 -0.08880887328733
 6  12.88698667626763  0.09881266186619 -1.03347893419342
 6  11.48283137193719 -0.43863890919092 -0.97424248304831
 6  10.05520240584058  2.09373868586859  1.29105181858186
 6  11.10212104460446  0.12647182258226  2.48426898819882
 6 -11.27719221672167 -0.06776513501350 -2.74577683588359
 6 -8.47323342364236  0.87645262766277 -0.26564018651865
 6  9.18232316161616 -0.51436921272127  0.03559364316432
 6  11.11548149364936 -1.39424239103910 -2.15755536023602
 6 -7.08267959085909  0.63265050685068 -0.34277636693669
 6  8.76138259465947 -1.73078287578758 -0.31030617161716
 6 -6.72819424092409 -0.81140989788979 -0.09220633203320
 6  7.44265275277528 -2.23577644964496 -0.20558162046205
 6 -6.24723449944994  1.64516809130913 -0.46031788838884
 6  7.30220341454145 -3.74125784798480 -0.03306308810881
 6  6.35319258825883 -1.32513280198020 -0.19177151955196
 6 -4.84209818351835  1.48777231643164 -0.50395130853085
 6  5.08986983288329 -1.63894173707371  0.00673289308931
 6 -3.90060143254325  2.54000702690269 -0.60155134413441
 6 -2.48800923902390  2.50541849944995 -0.53333608140814
 6  4.08688265376538 -0.62165267136714 -0.12873238963896
 6  2.71847889648965 -0.84521899339934  0.04477952535254
 6 -1.83602215241524  3.88254283688369 -0.87954710211021
 6 -1.69536662216222  1.40634337873787 -0.42588860526053
 6  1.82307085208521  0.25258682018202  0.00906234433443
 6  2.13428674977498 -2.14628741604160  0.44564693259326
 6 -0.27364962386239  1.41072239353935 -0.42087544734473
 6  0.40024485528553  0.27154882268227 -0.15813907470747
 1 -10.99276601810181  1.35700748604860 -0.37904975017502
 1 -12.66905037813781 -1.41537155085509  2.35598349304930
 1 -11.07959562916292 -2.02973216821682  1.71533481608161
 1 -12.89060269386939 -3.21616072337234  0.43833869596960
 1 -9.87158255955596  0.00448212381238  2.63871249514952
 1 -10.66730689728973  1.69959303630363  2.51123584548455
 1 -11.54388198049805  0.51202462146215  3.34707888568857
 1 -13.56557775957596  0.51169717201720  0.33347981828183
 1 -13.68379415001500  0.89213082048205  1.99962396439644
 1 -13.01407009240924  2.04480810261026  1.07066755005501
 1  12.19311667836784  2.35629057855786  0.18448629182918
 1  12.85436986408641  2.02936697559756  1.77045464666467
 1 -13.04478795739574 -2.20040683718372 -1.83396758745875
 1  13.65645523032303 -0.27577732353235  0.79231956785679
 1 -9.30729309500950 -1.17698255725573  0.12013957395740
 1  13.50528567266727 -0.72615565486549 -1.55666082208221
 1  12.86553297079708  0.89487806570657 -1.82545246904690
 1  9.02300899849985  1.52503255505551  1.54409965736574
 1  10.06398826042604  2.50657325972597  0.29321623712371
 1  10.35552922622262  2.69422439413941  2.07511366236624
 1  12.05722856415642 -0.59453670227023  2.39501592299230
 1  10.07768273887389 -0.49688222922292  2.56006913501350
 1  11.29221012011201  1.00006780358036  3.21747669066907
 1 -10.29589208720872  0.27612752345235 -2.91249864556456
 1 -11.94998405470547  0.82681868036804 -3.15419248454845
 1 -11.40315816091609 -0.79713846514651 -3.45610336793679
 1 -14.90466373967397 -1.73793274587459 -0.18348655245525
 1  8.52494156215622  0.28709893509351  0.65736838303830
 1 -8.57135230413041  1.94334598739874 -0.32731805220522
 1  11.52037777227723 -2.40233172917292 -1.89583243474347
 1  9.88949181558156 -1.53075917761776 -2.53028896289629
 1  11.72423171687169 -0.87094018411841 -2.97860380848085
 1  14.92446162646265  1.58915701550155  0.86873484238424
 1  9.41790156645665 -2.53899698139814 -0.45224166666667
 1 -5.70228468946895 -1.03499064976498 -0.06959956315631
 1 -7.05925482358236 -1.30808278147815  0.80778303070307
 1 -7.03072930813081 -1.65669411761176 -0.75450366516652
 1 -6.58428071457146  2.67403619871987 -0.92165536723672
 1  6.67042059105911 -4.13236665926593  0.84450414611461
 1  6.60902824802480 -4.06470165796580 -0.85279487068707
 1  8.28661855925593 -4.19556574117412 -0.07438047074707
 1  6.83735216211621 -0.40371761116112 -0.52561468336834
 1 -4.38372060366037  0.54947461266127 -0.36902295989599
 1  4.62158576207621 -2.57347660066007  0.09581192039204
 1 -4.33274932063206  3.56409439123912 -0.74018367386739
 1  4.43390346654665  0.43677101600160 -0.31554077147715
 1 -1.39476923512351  3.90272171887189 -1.82281055295530
 1 -1.09985282368237  3.83915107240724 -0.36905886568657
 1 -2.41673116121612  4.63546596209621 -1.08499679337934
 1 -2.23722260266027  0.44953157865787 -0.28817354735474
 1  2.25964500660066  1.33653764296430 -0.30395741084108
 1  2.78162669036904 -2.62112851525153  1.17188556705671
 1  1.09469454075408 -2.01044033513351  1.04219293419342
 1  1.91660440984098 -2.83201098829883 -0.59071331433143
 1  0.21943782868287  2.31541138083808 -0.53848083958396
 1 -0.01406430243024 -0.62035220502050 -0.04976563156316

