%nproc=4
%Mem=4GB
# td=(NStates=1) CAM-B3LYP/6-31G(d,p) 

TD

0 1
 8 -13.99207508270827 -2.18895727742774  0.56070632593259
 8  14.80569240604060  0.87310489708971  0.36964756065607
 6 -11.70291315091509 -0.03794771987199  1.39053387338734
 6 -10.94677163966397  0.33318608960896  0.14306801960196
 6 -11.97798327892789 -1.51794627902790  1.54849269056906
 6 -12.67324071757176 -2.13493455825583  0.24276842774277
 6 -11.46333162206221 -0.32985046334633 -1.13669915981598
 6  10.97679100970097  0.96491813431343  1.10297057675768
 6 -10.96663813701370  0.39997173597360  2.60701775247525
 6 -13.02591875427543  0.77278292519252  1.39757083388339
 6  12.35768294879488  1.58792821932193  0.85556294249425
 6 -12.30599158505851 -1.34702257005701 -1.00656342504250
 6  13.38769038993899  0.44395206780678  0.47608492739274
 6  10.61244071837184 -0.03472288248825  0.00558414351435
 6 -9.49252801670167 -0.08380122832283  0.06692670027003
 6  13.04199217681768 -0.24370158955896 -0.75444103040304
 6  11.55813890269027 -0.54484953025303 -0.86112117091709
 6  10.00056694229423  2.20870018201820  1.07678039143914
 6  10.87392822532253  0.21700087548755  2.44688524982498
 6 -11.17081157865787  0.29511115261526 -2.45385764396440
 6 -8.50251635193519  0.80492547494749 -0.07338096059606
 6  9.29397432673267 -0.45721349714972  0.04840492429243
 6  11.14247419291929 -1.40643361016102 -1.99120872557256
 6 -6.99444076697670  0.57101434323432 -0.24840692999300
 6  8.77930438683869 -1.76157595509551 -0.10683582458246
 6 -6.69079050055006 -0.81926068296830  0.04616750535054
 6  7.39675816331633 -2.12449532153215 -0.13758482078208
 6 -6.17621739773977  1.55767934243424 -0.42473433003300
 6  7.08231142534253 -3.63195691789179  0.15807602580258
 6  6.30572784178418 -1.28242853155316 -0.26901924432443
 6 -4.71747572127213  1.42752629182918 -0.50767168056806
 6  4.86755760166017 -1.56820466336634 -0.24599237943794
 6 -3.98067944034403  2.58266129232923 -0.79627081608161
 6 -2.52657309540954  2.68262622022202 -0.87690043784378
 6  4.00320428592859 -0.51929243534353 -0.38862837923792
 6  2.59626667526753 -0.82100657215722 -0.31236618921892
 6 -1.84090264046405  4.06801138373837 -1.05392453985399
 6 -1.74737182268227  1.58686143054305 -0.60856687308731
 6  1.75259380438044  0.32112367386739 -0.62442100400040
 6  2.04237755885589 -2.16014880218022  0.17324969286929
 6 -0.40362262116212  1.44404572587259 -0.74322768256826
 6  0.40067489828983  0.43810547834783 -0.45599886068607
 1 -11.03517025852585  1.50800258555856  0.25496365116512
 1 -12.53762723582358 -1.82837285098510  2.54896279097910
 1 -11.03962163176318 -1.85011420642064  1.64024730733073
 1 -12.47034066766677 -3.24056316361636  0.25550041214121
 1 -9.84078948024803  0.02833450905091  2.49518814271427
 1 -10.81994216081608  1.50187326432643  2.78438316021602
 1 -11.73672126442644  0.02624604360436  3.64426860466047
 1 -13.57832903470347  0.41777778007801  0.45209167946795
 1 -13.78679445004501  0.32334394179418  2.21338534053405
 1 -12.94004268966897  1.68008162996300  1.48322880618062
 1  12.46921428812881  2.17222217171717 -0.14204636143614
 1  12.84520894799480  2.33078711761176  1.60344794599460
 1 -12.79525300390039 -1.85032182868287 -1.96401059175918
 1  13.36382596739674 -0.31434117991799  1.24362469836984
 1 -9.15905827152715 -1.06503136213621  0.11922948294829
 1  13.66073121722172 -1.14811785108511 -0.87356251225122
 1  13.24472088958896  0.35300387828783 -1.59297922172217
 1  9.12422912051205  2.33615366716672  1.75173042044204
 1  9.97383924552455  2.53594619701970 -0.02616570107011
 1  10.58959263256325  3.04504947664766  1.70432658365837
 1  11.66742958425843 -0.53430067866787  2.55311173257326
 1  9.97552252285228 -0.12200474147415  2.72501562966297
 1  11.00248114721472  0.97138493529353  3.24700964396440
 1 -10.04101659965997  0.06751666236624 -2.53402079777978
 1 -11.34152320862086  1.53366936543654 -2.57580464576458
 1 -11.46472431753175 -0.39662841414141 -3.33710146774677
 1 -14.61839511281128 -2.79842879547955 -0.06142434623462
 1  8.53786285428543  0.20000022522252  0.66925957215722
 1 -8.63863903280328  2.03480513331333 -0.03995931633163
 1  11.58154388888889 -2.53322481848185 -1.79425227672767
 1  10.03718658505851 -1.50242634433443 -2.21298723272327
 1  11.84044333803380 -1.06419951005100 -3.01749769786979
 1  14.98673785408541  1.56633473327333  1.20633860276028
 1  9.57657743404340 -2.62381546324632 -0.45175161766177
 1 -5.69369383038304 -1.17730488118812 -0.06719932313231
 1 -6.75844474257426 -1.14352632583258  1.12651490389039
 1 -7.20588682388239 -1.75894434263426 -0.44159237403740
 1 -6.67430971747175  2.63497229232923 -0.32167536923692
 1  6.79916346534653 -3.69921334393439  1.18492818851885
 1  6.29956730193019 -3.89863505130513 -0.59991958315832
 1  7.87282718011801 -4.24248043264326  0.18156512381238
 1  6.64410283718372 -0.49981722112211 -0.84687680958096
 1 -4.41281351295129  0.38281794699470 -0.48955501310131
 1  4.56283988748875 -2.62547180018002  0.10767310651065
 1 -4.39941598729873  3.63206118791879 -0.76786644214421
 1  4.38450852705270  0.51125846474647 -0.46829604700470
 1 -1.64114387258726  3.97687913461346 -2.24951322322232
 1 -1.08612145054505  4.18684584188419 -0.41778373817382
 1 -2.58357784588459  4.82780519601960 -0.93647194089409
 1 -2.21897077747775  0.68940556605661 -0.38440317031703
 1  2.26147518961896  1.18717270647065 -0.80688770387039
 1  2.35382391009101 -2.29600600300030  1.33834221272127
 1  1.03992906420642 -2.23984327542754 -0.24338562366237
 1  2.45082783218322 -3.20610839803980 -0.31457570057006
 1  0.01645753065307  2.44400424012401 -1.00462745424542
 1 -0.09197209320932 -0.45753592339234 -0.01472212721272

