%nproc=4
%Mem=4GB
# td=(NStates=1) CAM-B3LYP/6-31G(d,p) 

TD

0 1
 8 -14.21155703090309 -1.81735011671167  0.40204045934593
 8  14.80295213201320  0.87722530913091  0.07050764666467
 6 -11.73458631823182  0.05095117001700  1.24910973097310
 6 -10.98653561606161  0.25239801080108 -0.03402969016902
 6 -12.05920140074007 -1.35296978137814  1.41183902520252
 6 -12.79187258075808 -2.01277234203420  0.20741489238924
 6 -11.66769205810581 -0.47054453275328 -1.25815130503050
 6  11.16119945054505  0.94218586108611  1.08371865156516
 6 -10.80872234543454  0.61989372817282  2.41459851055106
 6 -13.05541170357036  0.86203185008501  1.21535261206121
 6  12.67261444194419  1.37745717221722  0.86086347254725
 6 -12.36137712361236 -1.55822369016902 -1.10190295899590
 6  13.50104172507251  0.35981365396540  0.33047036593659
 6  10.71260073437344 -0.02074148434843 -0.10322673757376
 6 -9.56418518241824 -0.08888173637364 -0.07392738513851
 6  13.05583356095610 -0.14642186158616 -0.97189277557756
 6  11.55575866466647 -0.48396344164416 -1.09640469926993
 6  10.30255714131413  2.29453876587659  0.92544525792579
 6  11.08028886138614  0.43993316871687  2.43367392869287
 6 -11.31971646914691  0.17619926142614 -2.49626188438844
 6 -8.55441154145415  0.76284126652665 -0.26691031353135
 6  9.33258818811881 -0.44203197899790  0.02107219101910
 6  11.05609555505550 -1.37314028082808 -2.14927453215322
 6 -7.09429075197520  0.40719796159616 -0.20308239753975
 6  8.76799325572557 -1.64291408890889  0.01576643564356
 6 -6.77324874637464 -0.95635439233923  0.14657754635464
 6  7.41123961146115 -2.04528740074007  0.00197913561356
 6 -6.18931870787079  1.46027960246025 -0.35010686728673
 6  7.20841403560356 -3.55868959115912  0.11093131133113
 6  6.34987225622562 -1.14696498519852 -0.08179052145215
 6 -4.79321329502950  1.30998453765377 -0.34096500990099
 6  5.02615346124612 -1.51787963086309 -0.01970975117512
 6 -4.01723309570957  2.38708173437344 -0.56604779377938
 6 -2.62531296939694  2.54602255985599 -0.50319306710671
 6  4.04449841534153 -0.57506801290129 -0.17350686708671
 6  2.58954600320032 -0.76574104560456 -0.10178513111311
 6 -1.99683823402340  3.82238682128213 -0.86732587998800
 6 -1.79099618511851  1.44335708010801 -0.39268528492849
 6  1.75151369636964  0.35337689918992 -0.14655321722172
 6  1.96692001310131 -2.19366215351535  0.07255962386239
 6 -0.38947120602060  1.43930525182518 -0.39495285508551
 6  0.35845067586759  0.30632230003000 -0.28512177297730
 1 -11.00224696619662  1.36752853815382 -0.29045089028903
 1 -12.45886936003600 -1.65879589328933  2.29940783548355
 1 -11.09237690729073 -1.96798599359936  1.61582486508651
 1 -12.60001363496350 -3.06588569586959  0.50584544664466
 1 -10.00719612091209 -0.01689001340134  2.74966359025903
 1 -10.48376854345435  1.68447152415242  2.29977469936994
 1 -11.40569816211621  0.65686910591059  3.27947212501250
 1 -13.67503870567057  0.54074007630763  0.41282775307531
 1 -13.46753252385239  0.63552515991599  2.09238324032403
 1 -12.60592927832783  1.71880550235023  1.11711219451945
 1  12.58911627832783  2.32501745124512  0.15055289848985
 1  12.97230165726573  1.59769380828083  1.88242584378438
 1 -12.99968344694469 -2.19303610011001 -1.92186637733773
 1  13.47526711151115 -0.38487823362336  1.15543587948795
 1 -9.38203056875687 -1.13786864586459  0.20442800280028
 1  13.74623976807681 -1.11685472477248 -1.34993014901490
 1  13.15972238973897  0.66491506940694 -1.76508643244324
 1  9.36015271287129  2.00162021382138  1.41931717911791
 1  10.33848571017102  2.54358696109611 -0.09758284278428
 1  10.63835750905090  3.06504147584758  1.61176732773277
 1  11.86582942424243 -0.48181543014301  2.55942236363636
 1  10.11373634423442 -0.02060460146015  2.69849297739774
 1  11.38101900100010  1.25521331813181  3.16242118511851
 1 -10.17867036503650  0.28881879257926 -2.63104049974997
 1 -11.90819987628763  1.16096209470947 -2.52888995429543
 1 -11.72149999509951 -0.25282403370337 -3.42422017961796
 1 -14.66841011431143 -2.13219217181718 -0.36230443424342
 1  8.62968203620362  0.59431965716572  0.18277092329233
 1 -8.75674084298430  1.78331998479848 -0.63274859525953
 1  11.71766750125013 -2.32259375537554 -2.19310216171617
 1  9.95262812921292 -1.64003010471047 -2.01553748774877
 1  11.34222351605161 -0.64674776487649 -3.27023297139714
 1  15.28552773307331  1.22449054885489  0.90937890679068
 1  9.47322709900990 -2.52889597129713 -0.17239368186819
 1 -5.62261672267227 -1.00363751445145  0.06290368716872
 1 -7.02782168026803 -1.21642361556156  1.12066431883188
 1 -7.18839507470747 -1.65208365656566 -0.49419763456346
 1 -6.66647893439344  2.55527432253225 -0.60186338803880
 1  6.91080462946295 -3.82799622222222  1.18727842354235
 1  6.52284963016302 -3.92214740254025 -0.72566215741574
 1  8.22773267066707 -4.03597978257826  0.28613558085809
 1  6.79381780868087 -0.11708894829483 -0.25373749564957
 1 -4.15948818041804  0.44087375257526 -0.33455951355136
 1  4.60958456195620 -2.51815106810681  0.26108844804480
 1 -4.61830787648765  3.26353433523352 -0.72343199869987
 1  4.52040211641164  0.37871521042104 -0.43296251365137
 1 -1.23814357255726  3.51186263296330 -1.70357862976298
 1 -1.28790162856286  4.02177933523352  0.04677271747175
 1 -2.62775226332633  4.64277669316932 -1.03781207490749
 1 -2.27212609300930  0.53274990049005 -0.26244097409741
 1  2.39686872897290  1.21352534173417 -0.15956297139714
 1  2.26768529622962 -2.61634803720372  1.03718209670967
 1  1.01334640594059 -2.29142843394339  0.21751046594660
 1  2.32082483188319 -2.78870665786579 -0.74214845784578
 1  0.11314719961996  2.36555639533953 -0.61508850035003
 1 -0.32343523952395 -0.59835000480048 -0.02815347034703

