%nproc=4
%Mem=4GB
# td=(NStates=1) CAM-B3LYP/6-31G(d,p) 

TD

0 1
 8 -14.14714058925893 -1.76677505920592  0.66787704300430
 8  14.77570940774077  0.95688327492749  0.36985758165817
 6 -11.72245510511051  0.01723779867987  1.31350617061706
 6 -11.03256021852185  0.43216598759876 -0.08051433863386
 6 -11.93390887148715 -1.49776426082608  1.46539438073807
 6 -12.78180157365737 -2.09106017081708  0.31834598549855
 6 -11.67098238713871 -0.46813429172917 -1.25115060496050
 6  10.98320165076507  0.99339098159816  1.12767304700470
 6 -10.73217469066907  0.52220395919592  2.41667871857186
 6 -13.04956111851185  0.86236188308831  1.39636071287129
 6  12.50645782628263  1.58455788228823  0.91669905610561
 6 -12.37569855575558 -1.57115498329833 -1.08141090979098
 6  13.48592021292129  0.52285995859586  0.50497781668167
 6  10.60982045634563  0.07167775757576 -0.03009942484248
 6 -9.51815057895790  0.05550270207021 -0.03187317971797
 6  13.01984996259626 -0.13002022142214 -0.83813940024002
 6  11.54353744254425 -0.34343938923892 -0.96484154295430
 6  10.08269515511551  2.15865517751775  1.14540725412541
 6  10.94225505800580  0.25542471787179  2.36025658695870
 6 -11.33410790829083  0.05791743324332 -2.68193045124512
 6 -8.53672977327733  0.95527050945094 -0.26734035653565
 6  9.16215114441444 -0.39843761956196  0.08662874667467
 6  11.25475542104210 -1.17103006980698 -2.16486609130913
 6 -7.13401472437244  0.58524576637664 -0.12611470077008
 6  8.86111256765677 -1.69995979347935 -0.27513265426543
 6 -6.85571699319932 -0.84040279717972  0.29170205880588
 6  7.40827931543154 -2.17372024402440 -0.19713077537754
 6 -6.12428220422042  1.54911848634863 -0.35590744734473
 6  7.15035823002300 -3.71453517571757 -0.04820460226023
 6  6.38178544754475 -1.28089837853785 -0.26977932033203
 6 -4.73127710141014  1.39675321452145 -0.36482739613961
 6  5.07356820272027 -1.63459130203020 -0.13046082628263
 6 -3.93162453485349  2.56729975617562 -0.67328851785179
 6 -2.51986242434243  2.57851580918092 -0.72808555635564
 6  3.93588755425543 -0.74225473157316 -0.35758527492749
 6  2.57717476607661 -0.90069454095410 -0.13398835143514
 6 -1.72694124432443  3.85374995759576 -1.12369151655166
 6 -1.75422250775078  1.44911765616562 -0.50397641404140
 6  1.71574011901190  0.19280084158416 -0.50235879777978
 6  2.11420474157416 -2.28989177647765  0.28351071897190
 6 -0.34452671157116  1.32129345064506 -0.54755811561156
 6  0.31355618641864  0.15041670947095 -0.24677793859386
 1 -11.08080482198220  1.33406519181918 -0.21902374757476
 1 -12.56391986508651 -1.59677969166917  2.36856475117512
 1 -10.87656532613261 -2.09613880888089  1.74036731933193
 1 -12.58748238183818 -3.08607771507151  0.32373723582358
 1 -9.82322772407241  0.03478515411541  2.47843646754675
 1 -10.69857002360236  1.63094617161716  2.45411013291329
 1 -11.17621521382138  0.43042646164616  3.42487666546655
 1 -13.76235743754375  0.84582058435844  0.44563103340334
 1 -13.68168393899390  0.52389399679968  2.16161016301630
 1 -12.48775746114611  1.90388401020102  1.49064954825483
 1  12.32024939163916  2.48382333183318  0.13693153635364
 1  12.95645007210721  2.05280931983198  1.87544514571457
 1 -12.75927940654065 -2.06016281278128 -1.96856104680468
 1  13.55805539033904 -0.23583332913291  1.34930526642664
 1 -9.34954732043204 -1.06568142714271  0.27900546054605
 1  13.53495863996400 -0.83767680698070 -1.27112226822682
 1  13.16815323282328  0.60068864676468 -1.74335425922592
 1  9.18675537313731  1.86167621942194  1.80035528292829
 1  9.82576443804381  2.61250385278528  0.22271918741874
 1  10.41905557885788  3.11103607530753  1.67987413841384
 1  11.29239208050805 -0.95267251585159  2.30258668006801
 1  9.90978594919492 -0.17180972197220  2.66490961906191
 1  11.32347324642464  0.68289608640864  3.26051099409941
 1 -10.27832033003300  0.19753966466647 -2.56600399609961
 1 -11.74355341164117  1.13451945044504 -2.65404246954695
 1 -11.72447029212921 -0.68669742104210 -3.46529428702870
 1 -14.56179945324533 -2.32234118671867 -0.07362556635664
 1  8.37558662666267  0.09820004520452  0.73566621282128
 1 -8.71865703460346  2.05712736553655 -0.39421474187419
 1  11.67231296579658 -2.26714821082108 -2.25709856135614
 1  10.27144001040104 -1.27639374107411 -2.30414634863486
 1  11.75016431013101 -0.68791188128813 -3.04387033513351
 1  15.01070025032503  1.79464756455646  0.98326629552955
 1  9.48133791009101 -2.48916199789979 -0.79612605510551
 1 -5.69681414241424 -1.16769392009201  0.21525892269227
 1 -7.16296519461946 -1.01449342254225  1.36017827022702
 1 -7.36044227942794 -1.71212966116612 -0.37693590839084
 1 -6.55159744624462  2.68272706780678 -0.78976217791779
 1  6.59153270227023 -3.73013643624362  0.81884157985799
 1  6.74295164036404 -4.45063025082508 -0.70273986518652
 1  8.21556145354536 -4.18187437203720  0.22129909720972
 1  6.84464289118912 -0.10908814821482 -0.44552667456746
 1 -4.21077330893089  0.45611527672767 -0.18228428602860
 1  4.71359496299630 -2.72781203420342  0.41918425762576
 1 -4.52781882758276  3.31274925672567 -1.02888254375438
 1  4.27707778397840  0.24236157505751 -0.73045226262626
 1 -1.08999875807581  3.87910935763576 -2.03372164406441
 1 -0.97761059945995  4.16852400970097 -0.38512047184719
 1 -2.52368185628563  4.63445586108611 -1.38366666036604
 1 -2.36464534493449  0.56001262676268 -0.25882061206121
 1  2.15800484258426  1.03133712291229 -0.89040605570557
 1  2.58764729242924 -2.52035843824382  1.22142052055206
 1  1.00273534483448 -2.45598488958896  0.34236295119512
 1  2.27933068246825 -2.99407719491949 -0.53877812081208
 1  0.28967485238524  2.25067490719072 -0.65259225072507
 1 -0.29956285228523 -0.68661883168317 -0.05993664866487

