%nproc=4
%Mem=4GB
# td=(NStates=1) CAM-B3LYP/6-31G(d,p) 

TD

0 1
 8 -13.97094296949695 -2.21722010371037  0.47491774707471
 8  14.81108294509451  0.94801238783878  0.20897149304930
 6 -11.71544440404040 -0.06927085218522  1.31661648164816
 6 -10.96177313981398  0.42383515451545  0.04252796559656
 6 -11.76755223582358 -1.64908939333933  1.47223506480648
 6 -12.49049244274427 -2.17102816761676  0.26171032193219
 6 -11.55856114501450 -0.34003148144814 -1.21696718661866
 6  11.11844517511751  1.00999264176418  1.14782506220622
 6 -10.91184265746575  0.41157289608961  2.53933098379838
 6 -13.08036419881988  0.55744139103910  1.49108018481848
 6  12.57028420892089  1.55992541904190  0.74941232743274
 6 -12.27199818571857 -1.47818568636864 -1.03031580028003
 6  13.51532315321532  0.41868954155416  0.36140345924592
 6  10.63952342664266 -0.05906531673167  0.04622820792079
 6 -9.47061582548255 -0.02072492069207  0.05693570117012
 6  13.05690366796679 -0.23239045844584 -0.88319390569057
 6  11.53694678347835 -0.57208225352535 -0.80680573937394
 6  10.07165405100510  2.10869018101810  1.09001171457146
 6  11.07644847734773  0.27125630103010  2.50696125742574
 6 -11.43156765426543  0.36479812131213 -2.54951720992099
 6 -8.52828892919292  0.91656663906391 -0.16024964746475
 6  9.21215614491449 -0.47264504030403  0.02162224602460
 6  11.15087503300330 -1.50879384618462 -1.95120472517252
 6 -7.05511683458346  0.60011725352535 -0.11774386368637
 6  8.75967242364236 -1.74468426592659  0.01523638263826
 6 -6.60887230873087 -0.75988474537454  0.16055894449445
 6  7.36448493599360 -2.12784565656566 -0.06732779507951
 6 -6.19085886188619  1.75267884238424 -0.41738359495950
 6  7.02172536673667 -3.52515623782378  0.07886810501050
 6  6.30291756075608 -1.29952024072407 -0.12937527992799
 6 -4.87691166486649  1.63023656285629 -0.46472738613861
 6  4.89366021192119 -1.57065490839084 -0.15046282648265
 6 -3.98115948834883  2.71420444664466 -0.74272546154615
 6 -2.58778921702170  2.63730168776878 -0.89846259405941
 6  3.96720068556856 -0.59434994109411 -0.17790730713071
 6  2.56786383498350 -0.78519299079908 -0.12521747434743
 6 -1.78098664886489  3.91352593519352 -1.20015916331633
 6 -1.88474556005601  1.49272201660166 -0.53639965636564
 6  1.73798234323432  0.36093765526553 -0.40028859075908
 6  1.97882120322032 -2.17458024532453 -0.02264989708971
 6 -0.47267952685269  1.51436275757576 -0.67914127392739
 6  0.26724155495550  0.37144881268127 -0.29609287008701
 1 -10.86793353485348  1.53649543484348  0.02379053385339
 1 -12.47297077017702 -1.72880289398940  2.22446034073407
 1 -10.94803247284728 -2.27509670467047  1.55803908650865
 1 -12.35026866046605 -3.27433654095410  0.23598846094609
 1 -10.01474687598760 -0.09815814021402  2.81704032793279
 1 -10.82936310291029  1.67917099409941  2.78553327522752
 1 -11.58439603190319  0.14388780778078  3.42489666746675
 1 -13.81372257405740  0.24839084138414  0.66339280958096
 1 -13.75032080268027  0.35955756315632  2.26909091109111
 1 -12.86114479987999  1.61052467426743  1.45555603890389
 1  12.40877824452445  2.13322827232723 -0.25549770657066
 1  12.92078650575058  2.01055509440944  1.59052665386539
 1 -12.87814129272927 -2.01480827732773 -1.86376056675668
 1  13.53016260106011 -0.39291903770377  1.13647398329833
 1 -9.36185855155516 -0.87777263626363  0.37545510551055
 1  13.52725786988699 -1.13268630793079 -1.05499065506551
 1  13.44660107760776  0.54257283518352 -1.66261618541854
 1  9.16677337493749  1.76288634043404  1.61245649304930
 1  9.65044690629063  2.25862846524653 -0.13154623912391
 1  10.53347702100210  2.92359733143314  1.49441559255926
 1  11.72276511781178 -0.63899114771477  2.50095651705170
 1  9.91283625422542 -0.02174471547155  2.92606573467347
 1  11.29489038813881  1.16039383618362  3.12933787678768
 1 -10.28090058805881  0.12873278397840 -2.59076647234723
 1 -11.43507256355636  1.32459845834583 -2.37316438173817
 1 -11.90701854695470 -0.09758851015101 -3.40747850545054
 1 -14.32910618391839 -2.68822777537754 -0.24112231603160
 1  8.43732280028003  0.18249847504751  0.38788143434343
 1 -8.78925409430943  1.93692534533453 -0.43463878427843
 1  11.84269000350035 -2.51841333733373 -1.86844969646965
 1  10.16804967136714 -1.60503660536054 -1.93315924992499
 1  11.50862015571557 -1.17899098919892 -2.91649759785979
 1  15.10216939723972  1.18859695949595  1.19412738163816
 1  9.32503227952795 -2.63639672137214 -0.04306074857486
 1 -5.61871633263326 -1.16269342004200 -0.01602420562056
 1 -6.92842174027403 -0.83811578477848  1.25545779817982
 1 -7.23633986918692 -1.50496894509451 -0.44096231103110
 1 -6.63550583708371  2.61716051115112 -0.43594679637964
 1  6.69190273927393 -3.70940436303630  1.03397309300930
 1  6.12424977017702 -3.90222541034103 -0.65417500870087
 1  7.70227012441244 -4.27562374697470 -0.34301733443344
 1  6.54781320822082 -0.39811705110511 -0.31795391729173
 1 -4.60701293289329  0.34597426262626 -0.70497655525552
 1  4.59396299979998 -2.60633988698870 -0.14063172397240
 1 -4.57156320202020  3.68338632043204 -0.68700835633563
 1  4.31666174237424  0.38408574747475 -0.06025524292429
 1 -1.38083784198420  3.82035348204820 -2.36949522142214
 1 -1.06376921532153  4.34949210651065 -0.45772773257326
 1 -2.60804029212921  4.71903431893189 -1.36066436013601
 1 -2.35250413081308  0.50614724022402 -0.21886661666167
 1  2.28553759585959  1.30284427362736 -0.82362937803780
 1  2.40592912061206 -2.69774617701770  0.82096047454746
 1  0.92260733203320 -2.07908719981998 -0.07470875597560
 1  2.32370511991199 -2.78687647484748 -0.92544678767877
 1  0.03666955185519  2.49122896259626 -0.94446143764377
 1 -0.23190608660866 -0.55651582138214 -0.04511516651665

