%nproc=4
%Mem=4GB
# td=(NStates=1) CAM-B3LYP/6-31G(d,p) 

TD

0 1
 8 -14.09769564476448 -2.02551093279328  0.56328658395840
 8  14.71000283708371  0.88232581918192  0.21261185708571
 6 -11.63673653325333 -0.02390631573157  1.33028784878488
 6 -10.92208917141714  0.29087185818582 -0.04262054925493
 6 -11.87499297989799 -1.52637712211221  1.39046688798880
 6 -12.58675206870687 -2.11170223502350  0.29901405230523
 6 -11.65893118201820 -0.43825130343034 -1.12604809470947
 6  11.03850718131813  0.97692933543354  1.03151343104310
 6 -10.73946541974197  0.41860359915992  2.56755380608061
 6 -13.04047020942094  0.80053570047005  1.46157723452345
 6  12.51467864836484  1.43413283978398  0.89095648184818
 6 -12.33765475137514 -1.53642150995100 -0.98409117781778
 6  13.37857947884788  0.38242591519152  0.44416173507351
 6  10.58934840914091 -0.01214062426243  0.07710129522952
 6 -9.53717248114812  0.00342749454945 -0.02538253065307
 6  12.90503848144814 -0.13040025942594 -0.89244483078308
 6  11.48017110591059 -0.48826387168717 -0.91831689048905
 6  10.06049293489349  2.18857816981698  1.04723743714371
 6  10.79790062256226  0.25426460186019  2.40311087238724
 6 -11.38704320182018  0.20511215271527 -2.52421467966797
 6 -8.51353745404541  0.94067905030503 -0.24231785428543
 6  9.21928685798580 -0.43354112991299  0.02521260506051
 6  11.17076702220222 -1.34613758055806 -2.11028063276328
 6 -7.10277160006001  0.64518175997600 -0.31236332563256
 6  8.78172462886289 -1.78387818531853 -0.19722486348635
 6 -6.74658608010801 -0.76835559245925 -0.05161227262726
 6  7.36871535903590 -2.11560443244324 -0.09197025932593
 6 -6.12251202720272  1.55079865436544 -0.55926778337834
 6  7.09446264046405 -3.53543726592659  0.09158937713771
 6  6.45979324832483 -1.16979726842684 -0.19769211161116
 6 -4.78801277497750  1.40649418861886 -0.54149506290629
 6  5.04277512341234 -1.53250109300930  0.05966818661866
 6 -3.93637500990099  2.52492551875188 -0.78853004200420
 6 -2.54809524762476  2.60696865446545 -0.68679142694269
 6  4.03141710721072 -0.61870237633763 -0.17607712411241
 6  2.66588363696370 -0.82404687618762 -0.12634758735874
 6 -1.87969651985199  3.98617319991999 -0.92731187858786
 6 -1.81094818031803  1.44590733513351 -0.62234825122512
 6  1.74388293329333  0.30960252175218 -0.42954151605161
 6  2.16821014211421 -2.19827261456146  0.31959432733273
 6 -0.37867012591259  1.46243756505651 -0.49322268206821
 6  0.41231606240624  0.31772344014401 -0.30685394619462
 1 -11.08743548504850  1.21562334763476 -0.25847769296930
 1 -12.51638511161116 -1.59122913661366  2.42319021372137
 1 -10.80120779037904 -1.98259745474547  1.41002428502850
 1 -12.42074570817082 -3.11375048234823  0.21308617071707
 1 -9.83717911921192 -0.30966929132913  2.48107673157316
 1 -10.46225639223922  1.38039111611161  2.25083980588059
 1 -11.22138973127313  0.52082550155016  3.61238541634163
 1 -13.69000020182018  0.49402540484048  0.78126459675968
 1 -13.41876764736474  0.81456306370637  2.59887388938894
 1 -12.76502518791879  1.75684930673067  1.55334581788179
 1  12.39039640634063  2.09958490799080  0.06409425262526
 1  12.95100952805280  2.13030706960696  1.64830243144314
 1 -12.95410888948895 -1.98104490099010 -1.83310750145015
 1  13.38221780658066 -0.38881862766277  1.14284462036204
 1 -9.15049741544154 -0.95432029102910  0.20428798879888
 1  13.36003114721472 -1.06316935623562 -1.11178633463346
 1  13.24644106160616  0.64280285818582 -1.76421634543454
 1  9.02967966556656  1.68447849964997  1.41939718711871
 1  10.11608346994699  2.70415301770177  0.11874879037904
 1  10.32637631093109  3.01948692039204  1.79527567856786
 1  11.72786562786279 -0.52503975257526  2.61651807320732
 1  9.95105007560756 -0.22637517851785  2.57388051615162
 1  11.28469936903690  0.80612840964096  3.18349329232923
 1 -10.28256075407541  0.35112502320232 -2.64790218591859
 1 -11.72270132643264  1.16341233973397 -2.60827789308931
 1 -11.89224706980698 -0.36463521482148 -3.23520127772777
 1 -14.46885015831583 -2.64126307890789 -0.21957016081608
 1  8.53728279627963  0.38694892009201  0.18330097629763
 1 -8.83134830373037  2.10598225102510 -0.57005232563256
 1  11.32371810631063 -2.34623611961196 -1.77009986148615
 1  9.98361122752275 -1.30441654335434 -2.21593752775278
 1  11.75441473517352 -1.06368945904590 -3.11995794389439
 1  15.21516069636964  1.11074917471747  0.99013698259826
 1  9.54385416171617 -2.51722480418042 -0.30481692419242
 1 -5.58361282228223 -1.17193434413441 -0.15518812201220
 1 -7.29166806490649 -1.07855982918292  0.81990424282428
 1 -7.11893812901290 -1.49957840604060 -0.70365858065807
 1 -6.51182346884688  2.63114190929093 -0.68245144684468
 1  6.49244279327933 -3.84525794839484  1.09835953165317
 1  6.29919726492649 -3.75023021082108 -0.73772336353635
 1  8.16432633003300 -4.06380256485649 -0.19206223892389
 1  6.68490691759176  0.01383414401440 -0.33984610651065
 1 -4.32872510411041  0.43656332153215 -0.37856391399140
 1  4.71705530903090 -2.57177643064306  0.18064040324032
 1 -4.29804585028503  3.51299928172817 -0.87703735923592
 1  4.42613268946895  0.50154749364937 -0.50768998639864
 1 -1.13551330953095  4.08015946264626 -1.68327659955996
 1 -1.44148698709871  4.21626878417842  0.00609865006501
 1 -2.74873436153615  4.68394080958096 -1.01922021572157
 1 -2.37818669906991  0.46799342484248 -0.43048777877788
 1  2.18183722582258  1.25948993819382 -0.69198621372137
 1  2.64231275897590 -2.30746714911491  1.28744712321232
 1  1.07941301260126 -2.05012430353035  0.62342105700570
 1  2.23426617601760 -2.76987477467747 -0.50625486848685
 1  0.35775166006601  2.31564140384038 -0.62501949344934
 1 -0.36506940294029 -0.51307147694769 -0.36607726272627

