%nproc=4
%Mem=4GB
# td=(NStates=1) CAM-B3LYP/6-31G(d,p) 

TD

0 1
 8 -14.16323219841984 -2.05895427712771  0.39574983028303
 8  14.81181301810181  0.89871745834583  0.07669826572657
 6 -11.82445530513051  0.15578165306531  1.26501132113211
 6 -11.01002796529653  0.29704247524752  0.07049076187619
 6 -12.02832831343134 -1.38681316571657  1.45993383468347
 6 -12.67198059155916 -2.03635470027003  0.28225237613761
 6 -11.58272356125613 -0.36267374567457 -1.19443493339334
 6  11.25299863046305  0.85507715021502  1.17970825052505
 6 -11.16208768196820  0.70102184098410  2.53620067076708
 6 -13.10748691109111  0.93334898179818  1.15138621542154
 6  12.57652483298330  1.41603102960296  0.83348073427343
 6 -12.22262324822482 -1.48531639943994 -1.03297606630663
 6  13.57400902180218  0.36292396499650  0.26319363826383
 6  10.66097557185719 -0.00107951815181  0.07009059415942
 6 -9.63278204210421 -0.06468931713171  0.12225223282328
 6  12.94488246584658 -0.07182440184018 -1.04255984228423
 6  11.47147023582358 -0.40589563486349 -0.96309136793679
 6  10.44423130873087  2.03829314131413  1.23522623602360
 6  11.21236206870687  0.15733490889089  2.56739730103010
 6 -11.19028352585259  0.07297893939394 -2.61265352355236
 6 -8.57946404670467  0.64569955235524 -0.10924454695470
 6  9.26505143444344 -0.36864464026403  0.16525660946095
 6  10.95357530303030 -1.23257622442244 -2.18178778347835
 6 -7.10479180208021  0.32229947174717  0.00134804550455
 6  8.76662311871187 -1.55799559705971 -0.10042518351835
 6 -6.71656307780778 -1.09485824272427  0.26997988658866
 6  7.37996648414842 -2.09714258625863 -0.08644970727073
 6 -6.20637041304130  1.38214178867887 -0.35314717131713
 6  7.07782097629763 -3.57371109330933  0.03201341954195
 6  6.40319758875888 -1.17087737643764 -0.10105244764476
 6 -4.83225719941994  1.34585812501250 -0.39062997639764
 6  5.01325217111711 -1.46048389128913  0.05268748854885
 6 -4.03373474587459  2.50662368856886 -0.70723191219122
 6 -2.55020545864586  2.59436739433943 -0.75147789558956
 6  3.99531349684968 -0.49532003810381 -0.13796331273127
 6  2.61043809240924 -0.67467193869387 -0.19336428902890
 6 -1.99459801000100  3.92364694729473 -1.08658780618062
 6 -1.74776186168617  1.48201094549455 -0.43882989938994
 6  1.82538108310831  0.30784234573457 -0.43534209610961
 6  2.07815113621362 -2.10057284458446  0.08899126702670
 6 -0.37387964686469  1.49203052435244 -0.71345470527053
 6  0.49399423022302  0.34869653745375 -0.44073733453345
 1 -11.03724046554655  1.40538232353235 -0.11797364256426
 1 -12.43778725182518 -1.79718973267327  2.34877277197720
 1 -11.02510017961796 -1.73784297929793  1.53586686928693
 1 -12.13274690829083 -3.09801890919092  0.22821768386839
 1 -10.06786218751875  0.42873454905491  2.58847747164716
 1 -11.00834100070007  1.80248332533253  2.32509723162316
 1 -11.69966755905591  0.39822324132413  3.56812098989899
 1 -13.74062526432643  0.72392839513951  0.23764023432343
 1 -13.98098386898690  0.82411401880188  1.86804080608061
 1 -12.81506019141914  2.08578220002000  1.06471695499550
 1  12.68895626232623  2.07797274677468  0.03645148834883
 1  13.17725215231523  1.81880591949195  1.84189179037904
 1 -12.60293377197720 -2.17195399189919 -1.75923011371137
 1  13.53365295009501 -0.52030177597760  0.76902723862386
 1 -9.57453981968197 -1.16970182918292  0.16772433243324
 1  13.58888403250325 -1.02028506780678 -1.55368052405240
 1  13.00543696119612  0.69476805470547 -1.94154407820782
 1  9.38666536413641  1.84652470427043  1.73517876527653
 1  10.11559342094209  2.34320692309231  0.19659657515752
 1  10.67386105940594  2.97579255095510  1.79261541254125
 1  11.92260510181018 -0.67474472307231  2.54474089548955
 1  10.30968593919392 -0.37864040504050  2.77370049814982
 1  11.59843074217422  0.75197299409941  3.34967991099110
 1 -9.91298379637964  0.15199511021102 -2.81050844654465
 1 -11.34388344464447  1.20596659515952 -2.78265533083308
 1 -12.02190003510351 -0.63042179347935 -3.09406716431643
 1 -14.52170544384439 -2.07409636223622 -0.59085728952895
 1  8.55568463646365  0.25647587278728  0.64350699689969
 1 -8.85196036493649  1.70481213401340 -0.45358067846785
 1  11.14293002750275 -2.34374587058706 -2.01237408890889
 1  9.89353221962196 -1.00491659335934 -2.27772370637064
 1  11.57661695539554 -0.99756284638464 -2.99374532263226
 1  14.94655383568357  1.35701380118012  0.83011097999800
 1  9.48727850415042 -2.41821490319032 -0.52687913041304
 1 -5.69849431043104 -1.42530968166817 -0.05492809600960
 1 -6.97936683478348 -1.45106707990799  1.31551380378038
 1 -7.31908814401440 -1.82706115431543 -0.40510872567257
 1 -6.87778006450645  2.24993378847885 -0.53869707140714
 1  6.88446199519952 -3.92146556915692  1.07243693939394
 1  6.12047939313931 -3.97390257805781 -0.49380897209721
 1  7.94750464786479 -4.31570775537554 -0.18229126182618
 1  6.80960938783878 -0.16566380578058 -0.27969009090909
 1 -4.33420565216522  0.35150481568157 -0.24373043064306
 1  4.64763836733673 -2.49842909590959  0.34634697389739
 1 -4.61192723842384  3.38499648144815 -0.84077373287329
 1  4.24876495269527  0.46195353425343 -0.08525774317432
 1 -1.21645140334033  3.75692713941394 -1.86485475737574
 1 -1.42106494489449  4.36523368066807 -0.30145210501050
 1 -2.77902739083908  4.67514993049305 -1.33830212391239
 1 -2.19672855325533  0.51704833033303 -0.19242397239724
 1  2.37296633873387  1.15585957515752 -0.61372838793879
 1  1.62134066176618 -2.31267767016702  1.34610298879888
 1  0.94760983228323 -2.25416470757076 -0.67998928402840
 1  3.14097684708471 -2.92755054225423 -0.22800704370437
 1  0.20014589948995  2.36406624632463 -0.75668265976598
 1  0.06890399439944 -0.63489365916592 -0.19678033303330

