%nproc=4
%Mem=4GB
# td=(NStates=1) CAM-B3LYP/6-31G(d,p) 

TD

0 1
 8 -14.10326620182018 -2.09337771947195  0.72669292459246
 8  14.76975881268127  1.20809839643964  0.40412100800080
 6 -11.62858571817182  0.06440251515152  1.46574139413941
 6 -10.94582154465447  0.40036280728073  0.12050576337634
 6 -11.90323580418042 -1.44632911731173  1.59240708200820
 6 -12.66430982448245 -2.04688575337534  0.47206135703570
 6 -11.74447973687369 -0.27697517581758 -1.07073256315632
 6  11.03273660426042  0.88609025152515  1.17940822052205
 6 -10.79366083928393  0.50207194599460  2.71623867456746
 6 -13.03662982538254  0.83790943784378  1.53073415021502
 6  12.34321150165017  1.61866129262926  1.01550893709371
 6 -12.44629561546155 -1.40160802860286 -0.90234300300030
 6  13.50642226312631  0.53988166076608  0.47130444934493
 6  10.70837031133113 -0.07776718691869  0.10236382148215
 6 -9.49026779067907 -0.03043589178918 -0.00880087248725
 6  13.14279225682568 -0.09953717311731 -0.75169075537554
 6  11.66048913771377 -0.57125217051705 -0.75091014981498
 6  10.03307019261926  2.10026933893389  1.34133684708471
 6  11.13221405390539  0.22013118851885  2.56582714401440
 6 -11.51177567506751  0.30871251275128 -2.46447870607061
 6 -8.49732583288329  0.77371235363536 -0.25178880138014
 6  9.26075100440044 -0.49052682848285  0.14421450525052
 6  11.30139008450845 -1.35803877067707 -1.99674927962796
 6 -7.14967629052905  0.48229547134713 -0.23993608290829
 6  8.81507796419642 -1.81284108160816 -0.16228136913691
 6 -6.76752817431743 -0.94594335123512  0.01050393899390
 6  7.39098758625863 -2.17574044604460 -0.11661272357236
 6 -6.18067784378438  1.49396297079708 -0.60342219881988
 6  7.14592778697870 -3.58356207840784 -0.05231501330133
 6  6.37958522752275 -1.33442373107311 -0.17249959235924
 6 -4.78128210191019  1.38348188738874 -0.71224213761376
 6  4.92347319321932 -1.51440928382838 -0.18187596779678
 6 -4.00034140654065  2.52383540974097 -0.91466265526553
 6 -2.62275271337134  2.55987394499450 -0.97142989078908
 6  3.97592155765577 -0.61311181728173 -0.39394891129113
 6  2.56410345894589 -0.84528900040004 -0.35372032463246
 6 -2.00724927512751  4.05514009660966 -1.01218036543654
 6 -1.74480156565657  1.44390713511351 -0.84763077947795
 6  1.82187073207321  0.29316087758776 -0.66552511441144
 6  2.00494381548155 -2.26706949424943 -0.12329996209621
 6 -0.36609886878688  1.35941726302630 -0.94699805960596
 6  0.38816364716472  0.33536520432043 -0.57709096989699
 1 -10.87196393789379  1.47728951425143  0.08938709350935
 1 -12.40956442954295 -1.83051306500650  2.52638053275327
 1 -11.00402807240724 -2.07209640464046  1.73610689328933
 1 -12.47393102670267 -3.04389349664966  0.40204506660666
 1 -9.90037543884389  0.06709838543854  2.58456708060806
 1 -10.63027319391939  1.51035411241124  2.36016073797380
 1 -11.09265685798580  0.14602802180218  3.96255043284328
 1 -13.65476667846785  0.54681068336834  0.55760223052305
 1 -13.32848861946195  0.54735634303430  2.56931093309331
 1 -12.81301998739874  1.86487010881088  1.75930641394139
 1  12.26397376407641  2.23572852235224  0.07634547774778
 1  12.54756918401840  2.19414345324532  1.81129873107311
 1 -12.74523800240024 -2.14786158265827 -1.71249544024402
 1  13.64986457125713 -0.24625437123712  1.22849318521852
 1 -9.35027739343935 -0.98378323732373  0.01807936793679
 1  13.82576772087209 -0.91574461376138 -0.82446760276028
 1  13.51999841734173  0.40327890579058 -1.53954387818782
 1  8.95756245384539  1.73848390019002  1.53570881828183
 1  9.96484834643464  2.58035063746375  0.29081599709971
 1  10.29001267456746  2.71561653335334  2.29281543254325
 1  11.94387722902290 -0.46205345394540  2.87259368076808
 1  10.25987095769577 -0.44385692669267  2.79188231633163
 1  11.32517341644164  0.78904670147015  3.45239018201820
 1 -10.45174767276728  0.26258616931693 -2.63917131283128
 1 -11.55413446974698  1.34450044854485 -2.42561962726273
 1 -12.24152199729973 -0.27247599889989 -3.33430118771877
 1 -14.37076034933493 -2.10207916051605 -0.29706791059106
 1  8.40748981698170  0.07676790199020  0.39607225342534
 1 -8.76878204710471  1.93847550035004 -0.39632495289529
 1  11.61437717221722 -2.42675417141714 -1.70290314181418
 1  10.18914178057806 -1.41972807450745 -2.33119905390539
 1  12.03894318801880 -0.88462155225523 -2.73016896499650
 1  15.14093327362736  1.44000210001000  1.32069003790379
 1  9.51576135243524 -2.66382946464646 -0.21565800830083
 1 -5.57290175117512 -1.31601875257526 -0.32126472967297
 1 -7.04304320242024 -1.10482245544554  1.17777002940294
 1 -7.50037627282728 -1.69536798499850 -0.48214642944294
 1 -6.47960024652465  2.49509830493049 -0.74904810651065
 1  7.27546109510951 -3.86964038663866  1.01400109580958
 1  6.22477982318232 -3.94734992279228 -0.65721531273127
 1  8.01944184158416 -4.22835902050205 -0.64803783648365
 1  6.55032345924592 -0.25721296069607 -0.43885600750075
 1 -4.39707193879388  0.49177884308431 -0.39183524112411
 1  4.66384998849885 -2.55587484048405  0.03859619881988
 1 -4.60225627132713  3.36988497029703 -1.17773742924292
 1  4.23505358155816  0.40920825972597 -0.56773599099910
 1 -1.80560031823182  4.09266071277128 -2.16078435033503
 1 -0.98351118951895  4.06880403770377 -0.40499245904591
 1 -2.86528601670167  4.78035045054505 -0.55260355405541
 1 -2.18375725612561  0.58947557305731 -0.66485121512151
 1  2.30142918501850  1.23000698989899 -0.82893990909091
 1  2.80153868156816 -2.84661106350635  0.60358873737374
 1  0.90168523982398 -2.37101639273927 -0.02102338743874
 1  2.29436218561856 -2.80539832703270 -1.03797804080408
 1  0.18079396429643  2.36075591529153 -1.07905489698970
 1 -0.22346524252425 -0.76819698949895 -0.76949760476048

