%nproc=4
%Mem=4GB
# td=(NStates=1) CAM-B3LYP/6-31G(d,p) 

TD

0 1
 8 -14.16139201440144 -1.95206358805881  0.46759701500150
 8  14.93069490629063  0.91633922052205  0.09591018691869
 6 -11.79830268986899  0.13022909780978  1.12480730073007
 6 -11.01240820332033  0.28659143014301 -0.09142542974297
 6 -11.99955543614361 -1.42695718011801  1.40517835913591
 6 -12.72337573107311 -2.07019808460846  0.27073122402240
 6 -11.63433872277228 -0.40529800810081 -1.26485197509751
 6  11.15920925152515  1.05803744624462  1.05466574627463
 6 -11.17294876807681  0.64176591539154  2.48800585128513
 6 -13.25184134653465  0.77771341824182  1.21983306010601
 6  12.60083726422642  1.52745217171717  0.79487687388739
 6 -12.37725871177118 -1.44574244204420 -1.00205297399740
 6  13.65760738163816  0.36550422302230  0.47353467236724
 6  10.76241571587159  0.06074666446645 -0.04299071397140
 6 -9.61748051195119  0.10321747354735  0.03548355595560
 6  13.15743372097210 -0.31110833023302 -0.85439102540254
 6  11.59601269006901 -0.49015406070607 -0.86868192699270
 6  10.26838372397240  2.38064737673767  0.99837255065507
 6  10.94920575307531  0.31733090849085  2.32800336163616
 6 -11.48236273377338  0.24832647414741 -2.61308356655666
 6 -8.53637973827383  0.91042602500250 -0.13726734923492
 6  9.27335226452645 -0.39336711251125  0.03355343914391
 6  11.28444839033903 -1.41519448624862 -2.09050865556556
 6 -7.16671799469947  0.45613285508551 -0.13334542384238
 6  8.88302475887589 -1.65750554805481 -0.09558469946995
 6 -6.95362678417842 -0.97099585648565  0.14315720432043
 6  7.48804729222922 -2.14269714171417 -0.05545660796080
 6 -6.27944772077208  1.39792336683668 -0.32339419601960
 6  7.19254244844484 -3.68342206440644  0.02063228142814
 6  6.45050231923192 -1.27346763546355 -0.09256159855986
 6 -4.82604657835784  1.28700223942394 -0.34637555095510
 6  5.12896374227423 -1.51719956285629 -0.03399117931793
 6 -4.04485585798580  2.41909493569357 -0.47456864586459
 6 -2.62463290139014  2.43769172677268 -0.55874862266227
 6  4.14567853335334 -0.57773827992799 -0.29748926532653
 6  2.62926997559756 -0.76883135463546 -0.22169712231223
 6 -2.02976152635264  3.85095967856786 -0.92426157355736
 6 -1.77171425692569  1.38325106950695 -0.39874589098910
 6  1.79091763676368  0.29108066956696 -0.35189375127513
 6  2.18848216931693 -2.12068485578558  0.07033940184018
 6 -0.37651991089109  1.43650497179718 -0.49604296409641
 6  0.42326715751575  0.28209987778778 -0.25090835163516
 1 -11.08177491899190  1.41990377567757 -0.36998884408441
 1 -12.55000847394739 -1.60969098279828  2.43568146284628
 1 -11.03210087968797 -1.91229042404240  1.74741802440244
 1 -12.51433506710671 -3.24206331363136  0.15431029312931
 1 -10.11401680298030  0.30117179277928  2.53094171807181
 1 -11.33775394199420  1.77007008400840  2.55983070497050
 1 -11.82036962926293  0.07898131713171  3.37573175097510
 1 -13.92856405820582  0.29955595789579  0.38740521082108
 1 -13.44946071667167  0.69846145354535  2.40319432143214
 1 -13.36790547594759  1.83472709450945  1.10654113741374
 1  12.76494386108611  2.13346829632963  0.07346518971897
 1  13.06290071717172  1.92214625352535  1.69879748094810
 1 -12.95788926752675 -2.13849064556456 -1.85239943064306
 1  13.79403898869887 -0.28257800360036  1.27351768766877
 1 -9.45443780948095 -0.75688054705471  0.22550011001100
 1  13.51896704080408 -1.34135717501750 -1.06549170517052
 1  13.44298071557156  0.30531910981098 -1.71989191299130
 1  9.36678337593759  2.27655770757076  1.32563781118112
 1  10.23326518811881  2.73078568096810 -0.15311839633963
 1  10.63992766606661  3.09961493319332  1.71182733373337
 1  11.52618545984599 -0.52902015061506  2.47680410181018
 1  9.87973294389439  0.11855931493149  2.31329445754575
 1  11.31271217031703  1.11947974477448  3.11553649664967
 1 -10.50971346934694  0.59477938863886 -2.76196359205921
 1 -12.11241029732973  1.34672067056706 -2.51199826512651
 1 -12.07372521762176 -0.26434518581858 -3.45687344494449
 1 -14.67247052035204 -2.22548150075007 -0.35952415621562
 1  8.52609167716772  0.29036926212621  0.32845549174918
 1 -8.71154632353235  1.98712036483648 -0.39263458385839
 1  11.67422315681568 -2.36805830183018 -2.03498635013501
 1  10.12310517691769 -1.69358546024603 -2.21559749374937
 1  11.74870416411641 -1.15455854595460 -2.99238518661866
 1  15.26647582788279  1.54751285108511  0.80805877477748
 1  9.57063683998400 -2.41633471517152 -0.14260070257026
 1 -5.82330679167917 -1.26878402910291  0.22257965476548
 1 -7.30740963906391 -1.34879685288529  1.11370362276228
 1 -7.57754398959896 -1.67349579777978 -0.51526974177418
 1 -6.68019030553055  2.34110290539054 -0.54538774047405
 1  6.96620016901690 -4.12260568316832  1.10227992369237
 1  6.54258160336034 -3.97156234403440 -0.73621321252125
 1  8.28138803620362 -4.29874605920592 -0.19423245594559
 1  6.68192661956196 -0.04455169456946 -0.38286040794079
 1 -4.45615784738474  0.16934659985999 -0.29943600120012
 1  4.49562316581658 -2.59086833983398 -0.07432509330933
 1 -4.78571461716172  3.21333931573157 -0.63152280778078
 1  4.44016409260926  0.20261760066007 -0.39907912531253
 1 -1.47629738793879  3.82462390909091 -1.89936820872087
 1 -1.19890272867287  4.20459761706171 -0.29787174697470
 1 -2.90068955705571  4.64273668916892 -0.89927822152215
 1 -2.32116099649965  0.50944757025703  0.00561583158316
 1  2.28304734683468  1.20305429462946 -0.43327034213421
 1  2.55837436513651 -2.50824722712271  1.01606998549855
 1  1.07402247354735 -2.12348163926393  0.02429114401440
 1  2.77769051845184 -2.80425821302130 -0.54913915691569
 1 -0.01039515461546  2.24801464116412 -1.01714870637064
 1 -0.06361925792579 -0.66186635643564 -0.08845950095010

