%nproc=4
%Mem=4GB
# td=(NStates=1) CAM-B3LYP/6-31G(d,p) 

TD

0 1
 8 -14.19109498469847 -1.87549593129313  0.45409566486649
 8  14.67224906170617  1.24298188478848  0.18095869176918
 6 -11.81200406000600  0.08884495939594  1.34607942794279
 6 -10.93609057155716  0.31625439643964  0.19137285008501
 6 -12.08782426302630 -1.43809829422942  1.47455529682968
 6 -12.79304269776978 -1.99269033383338  0.12400655155516
 6 -11.57281257015702 -0.21855933423342 -1.07786327622762
 6  11.04269760036004  1.07370901340134  0.99265954565457
 6 -10.99843131633163  0.41646338513851  2.56205325602560
 6 -13.02717888028803  0.90602624952495  1.40032110891089
 6  12.34039121962196  1.72798222472247  0.88724611081108
 6 -12.33467445334533 -1.24011187898790 -1.11345411411141
 6  13.43782540344034  0.65679335193519  0.52749006790679
 6  10.61611108540854  0.00647123692369  0.00910449554955
 6 -9.49326809070907 -0.20023287148715 -0.00850084248425
 6  12.95379335693569 -0.05168238763876 -0.83845943224322
 6  11.56113920272027 -0.47739278457846 -0.84519957875788
 6  10.07780466606661  2.23222253425343  0.96541925532553
 6  10.95030586308631  0.50294947034703  2.43719428072807
 6 -11.29172366986699  0.56102774427443 -2.42363462166217
 6 -8.42708880918092  0.67100208260826 -0.05738936143614
 6  9.25622055135513 -0.48461623742374  0.17584766856686
 6  11.32457240274027 -1.44452741954195 -1.97735734043404
 6 -7.02694401730173  0.42747998979898 -0.13113520282028
 6  8.79856631303130 -1.80017981548155 -0.14758989999000
 6 -6.67482890439044 -0.92416117301730  0.23533642224222
 6  7.35985447294730 -2.22857572957296 -0.03556461876188
 6 -6.10885066106611  1.47245081958196 -0.36346820342034
 6  7.12079527372737 -3.70731445364536  0.24717493569357
 6  6.37488475747575 -1.35035532423242 -0.20541288368837
 6 -4.76521049474948  1.38728226742674 -0.45089600300030
 6  5.06507735363536 -1.79329717261726 -0.18432621282128
 6 -3.98016938933893  2.46293932013201 -0.73769495849585
 6 -2.59807024512451  2.50448840644064 -0.81035378317832
 6  4.07991195669567 -0.81962246834683 -0.38190770717072
 6  2.61907895649565 -0.97890236173617 -0.36851180378038
 6 -1.83999254945495  3.78945352795280 -1.06618576597660
 6 -1.68973605910591  1.36836958135814 -0.56569258565857
 6  1.79971851685169  0.17919948144814 -0.44390295219522
 6  2.11166448754876 -2.41084387168717 -0.21134876697670
 6 -0.26387864676468  1.39077039833983 -0.56252961276128
 6  0.47276210701070  0.22099376717672 -0.39940320112011
 1 -11.09512625412541  1.51187297259726  0.09325748054805
 1 -12.73722719581958 -1.73557357105711  2.38662655735574
 1 -11.01175884548455 -1.87824701970197  1.62647593019302
 1 -12.63860749434943 -2.95342444974497 -0.10271540944094
 1 -10.15615101640164 -0.17611593599360  2.58503712761276
 1 -10.41748191479148  1.44341741874187  2.52567728962896
 1 -11.42588018031803  0.32849626862686  3.59963414121412
 1 -13.76563776557656  0.55070107240724  0.53012948324832
 1 -13.61055682628263  0.95911751915191  2.36039004100410
 1 -12.60253893929393  2.00138376017602  1.21269175247525
 1  12.52467983468347  2.58394334383438  0.12949079227923
 1  12.74065849294929  2.37127116601660  1.77800540174017
 1 -12.80810428902890 -1.86158295479548 -1.94503869456946
 1  13.75737532233223 -0.01185093089309  1.39138947484748
 1 -9.39476184188419 -1.31147600660066 -0.00321276127613
 1  13.76731187528753 -0.81135417471747 -1.16154131013101
 1  13.00471688918892  0.55781435933593 -1.69910983478348
 1  9.11643834143414  2.00706075787579  1.54622987038704
 1  9.65114697629763  2.40633323572357 -0.05964904940494
 1  10.33755742904290  3.14660963266327  1.64525067606761
 1  11.83090593189319 -0.20152740134013  2.77160358175818
 1  9.99056402700270 -0.13534607560756  2.76523965206521
 1  11.05112601170117  1.25239303610361  3.26415135813581
 1 -10.14580707870787  0.34149406010601 -2.76978437413741
 1 -11.54132318861886  1.76067206570657 -2.14607167246725
 1 -11.94496234133413  0.17622887158716 -3.29698745634563
 1 -14.82326559985999 -1.70647960056006 -0.47418562236224
 1  8.56523559155915  0.23521374657466  0.68759140534053
 1 -8.77671284018402  1.90827248004800  0.00092477207721
 1  11.50271600610061 -2.45803729972997 -1.66283913541354
 1  10.17970083648365 -1.12664876657666 -2.37962389638964
 1  12.20211950565057 -1.25531862196220 -2.82047799589959
 1  14.90365954625462  1.73041114091409  0.93338130703070
 1  9.46044582088209 -2.64845792749275 -0.29760620312031
 1 -5.59864432543254 -1.24088123882388  0.18344574137414
 1 -6.95091398949895 -1.14299627282728  1.35181743414341
 1 -7.19479571477148 -1.73885233343334 -0.30346856165617
 1 -6.70769305580558  2.48996779187919 -0.57607080878088
 1  6.51031458045805 -3.70335375797580  1.21385108080808
 1  6.35086243144314 -4.03681886968697 -0.38855844704470
 1  7.89482938033803 -4.38657484208421  0.08180514781478
 1  6.68959738663866 -0.35185242464246 -0.48447056895690
 1 -4.26395862746275  0.29759942514251 -0.30144620222022
 1  4.71878548204820 -2.73886313931393  0.07878021722172
 1 -4.59149519521952  3.54343232503250 -0.80684033953395
 1  4.31150122632263  0.06192353125313 -0.51474069146915
 1 -1.26486624482448  3.85988743544354 -1.97751602350235
 1 -1.12742558095810  4.32933009030903 -0.18698065786579
 1 -2.46556604470447  4.70256267176718 -1.18123641734173
 1 -2.19175805620562  0.31518814431443 -0.44197892789279
 1  2.45729477157716  1.07577156635664 -0.67347436253625
 1  2.18342687038704 -2.73892029442944  0.80879925842584
 1  1.03662873417342 -2.38523781488149 -0.40593187828783
 1  2.48862161156116 -3.10050783798380 -0.88289253225323
 1  0.31549743464346  2.29133897359736 -0.61712870437044
 1 -0.14145704170417 -0.62238240804080 -0.12426308130813

