%nproc=4
%Mem=4GB
# td=(NStates=1) CAM-B3LYP/6-31G(d,p) 

TD

0 1
 8 -14.14597047224722 -2.01365974767477  0.29560981628163
 8  14.79848168496850  0.94052163876388 -0.07170657475748
 6 -11.82832569216922  0.05738181308131  1.18033285328533
 6 -11.01370833333333  0.33358612961296 -0.03262955015502
 6 -12.07582306290629 -1.48151263566357  1.36495433673367
 6 -12.72382577607761 -2.14406547134713  0.18290244114411
 6 -11.54752004090409 -0.41518899719972 -1.32952844274427
 6  11.10387371797180  1.04707635013501  0.99461974167417
 6 -10.93829530273027  0.58633037183718  2.31457850855085
 6 -13.16685284768477  0.76642228912891  1.09518059485949
 6  12.51347852835284  1.60408983548355  0.61638902510251
 6 -12.31306229212921 -1.50550841864186 -1.14744751345135
 6  13.39268088898890  0.52658033063306  0.15192251115112
 6  10.69764923922392 -0.06195560576058 -0.03320973587359
 6 -9.58578734263426  0.05247239903990  0.00649065666567
 6  12.93332130973097 -0.08638585798580 -1.18145373167317
 6  11.53334642344234 -0.54088913421342 -0.98526358515852
 6  10.07858474407441  2.17305661766177  0.91194390779078
 6  11.27092792529253  0.43471264666467  2.46194675597560
 6 -11.22480697819782  0.22762440394039 -2.74574683288329
 6 -8.45069116941694  0.87686266866687 -0.18582220472047
 6  9.25398032733273 -0.47336511231123  0.01915199899990
 6  10.99886983248325 -1.38480144694469 -2.24122372707271
 6 -7.14386570947095  0.51189843164316 -0.17285937523752
 6  8.78920537693769 -1.76488628612861  0.09379423842384
 6 -6.77499892139214 -0.82863162006201  0.22782567116712
 6  7.38548703620362 -2.13928680068007  0.11120005770577
 6 -6.16917669366937  1.58447202170217 -0.31637349394939
 6  7.15698889308931 -3.67728145034503  0.39649986818682
 6  6.36421369036904 -1.38555884458446 -0.11735407780778
 6 -4.77248122182218  1.54628816801680 -0.28219913331333
 6  5.01670251615161 -1.58632647554755 -0.05305308550855
 6 -3.95706707910791  2.57225025122512 -0.47688887788779
 6 -2.60909134723472  2.47767572517252 -0.49768251605161
 6  4.15496946244624 -0.64811531763176 -0.17889740614061
 6  2.64009105770577 -0.86098056955696 -0.00723567616762
 6 -1.91032958315832  3.92399698229823 -0.66368551595160
 6 -1.69099618511851  1.48434117851785 -0.29739575597560
 6  1.85390393539354  0.27500906240624 -0.07431599349935
 6  2.10848416951695 -2.27696048334834  0.20761312921292
 6 -0.28621087998800  1.46702802410241 -0.27397075687569
 6  0.32872770357036  0.24535620342034 -0.11331459225923
 1 -11.01039778127813  1.48610039533953 -0.23958580378038
 1 -12.68914238733873 -1.77709772347235  2.16586448114811
 1 -11.10239790939094 -1.99565876087609  1.26155943854385
 1 -12.59793342694269 -3.25002410971097  0.17726258835883
 1 -9.94636003730373  0.18325000060006  2.59218784268427
 1 -10.70613077967797  1.72411548854885  2.36767148904891
 1 -11.41463905620562  0.44810822982298  3.34106828462846
 1 -13.71606280808081  0.50685668796880  0.00888735903590
 1 -13.53713948454846  0.47657926532653  2.05924992699270
 1 -13.23839252465246  1.77236085788579  1.11262174547455
 1  12.51859922662266  2.21676662616262 -0.36968912571257
 1  13.03886831393139  1.91613565246525  1.51942954415442
 1 -12.77208068666867 -2.03044984148415 -1.75357954865487
 1  13.38710829562956 -0.55995574137414  0.71700203610361
 1 -9.36399876557656 -0.98870372937294  0.25148270827083
 1  13.60830597469747 -0.72216525582558 -1.49030418641864
 1  12.90117653515352  0.61813039093909 -1.89978990279028
 1  9.20708740634063  1.89010906270627  1.42230747814782
 1  10.01875373697370  2.39999260166017 -0.32219530403040
 1  10.41594526782678  3.12734770647065  1.62440859185919
 1  12.08572141344134 -0.36120336893689  2.29039546094610
 1  10.29472444304430  0.11544900390039  2.67519064716472
 1  11.53713461256126  1.08169596639664  3.25528047104710
 1 -10.22396489448945  0.63344325502550 -2.86158355405541
 1 -11.91822087838784  1.09022502100210 -3.18417548284828
 1 -11.51589943504350 -0.68572732403240 -3.49984774237424
 1 -14.64942821612161 -2.57073602620262 -0.47846605040504
 1  8.55807487548755  0.45463568876888 -0.05162251605160
 1 -8.65202037093709  1.95318697149715 -0.36797211761176
 1  11.19453518801880 -2.48470996699670 -2.05570842234223
 1  10.15897876427643 -1.03289939163916 -2.40813674767477
 1  11.51911120482048 -1.06157924802480 -2.93469941804180
 1  15.05520470077008  1.61885998579858  0.75356332523252
 1  9.41358113441344 -2.72328541024102  0.14454801230123
 1 -5.76047050805080 -1.10980813151315  0.53490088688869
 1 -7.29818871697170 -1.09197117031703  1.26540879327933
 1 -7.32383861906191 -1.69545799399940 -0.45263347814781
 1 -6.46888917541754  2.69797859295930 -0.56072927462746
 1  6.90331388038804 -4.00404382698270  1.41046074177418
 1  6.43552089728973 -4.23526871467147 -0.13679327052705
 1  8.25029492689269 -4.16836302090209  0.13397036433643
 1  6.53697212411241 -0.41942918231823 -0.43872599449945
 1 -4.22518475007501  0.54399406460646 -0.02243830143014
 1  4.49427303080308 -2.47823707670767 -0.01290895169517
 1 -4.40439648534853  3.62928090989099 -0.66926658215822
 1  4.45818589478948  0.27080441934193 -0.57547676507651
 1 -1.21491124932493  3.89954140084008 -1.69067733963396
 1 -1.31248408680868  4.15933309060906  0.25103314351435
 1 -2.67738722682268  4.57564998049805 -0.99106740044004
 1 -2.13896277667767  0.50314694019402 -0.10623535353535
 1  2.42798184028403  1.49799378857886 -0.11459847494750
 1  2.72290081778178 -2.74069047144714  1.22004038253825
 1  0.99804487578758 -2.23440273137314  0.40635935083508
 1  2.52300504990499 -3.08297608480848 -0.56987123012301
 1  0.32453833873387  2.41197103680368 -0.68936592809281
 1 -0.13176607260726 -0.72226239603960  0.03009235423542

