%nproc=4
%Mem=4GB
# td=(NStates=1) CAM-B3LYP/6-31G(d,p) 

TD

0 1
 8 -14.21507738293829 -1.97358574027403  0.72416267156716
 8  14.77610944774477  0.94280186678668  0.27437803370337
 6 -11.82237509710971  0.05561163606361  1.32882770277028
 6 -10.89635659815982  0.15826859785979  0.01304501730173
 6 -12.02009749034903 -1.38808329272927  1.52230007130713
 6 -12.76777017051705 -2.11562262706271  0.38141229212921
 6 -11.73766905580558 -0.50487796609661 -1.14149963986399
 6  11.08098142874287  0.90303194569457  1.17849812951295
 6 -11.00451192439244  0.74136587538754  2.41861891259126
 6 -13.04170033243324  0.95926157305731  1.09886096289629
 6  12.52389957045705  1.46808623512351  0.88524591079108
 6 -12.56251723762376 -1.53581144894489 -0.95409817851785
 6  13.56464808570857  0.43379105170517  0.39935725462546
 6  10.74041351565157 -0.00467987818782 -0.06934334923492
 6 -9.55124388828883 -0.14734758295830 -0.00400039243924
 6  13.11290926852685 -0.25859307870787 -0.88163374967497
 6  11.56771986078608 -0.57461250655066 -0.91153621242124
 6  10.20198708430843  2.20056936893689  1.32416512991299
 6  11.03079391189119  0.04230340574057  2.46933749504950
 6 -11.38240273777378 -0.00130848934893 -2.55009726792679
 6 -8.45630173047305  0.68611359375938 -0.22967659015902
 6  9.30533546284629 -0.42780055585559  0.02871295509551
 6  11.12794273977398 -1.35968893569357 -2.15539514421442
 6 -7.15930725362536  0.38328557035704 -0.13032512181218
 6  8.86609306570657 -1.68984878237824 -0.11129627062706
 6 -6.75823724522452 -1.04448320522052  0.03653654225423
 6  7.45788427592759 -2.13834670667067 -0.01748281058106
 6 -6.21355113111311  1.48926250075007 -0.27637949454945
 6  7.18690188438844 -3.57034075627563  0.18545876407641
 6  6.44065133413341 -1.18430871957196 -0.19304164656466
 6 -4.84319829352935  1.42197573677368 -0.41625253865387
 6  5.03448429432943 -1.43784162706271 -0.14728250845085
 6 -4.02735410781078  2.52303532973297 -0.58820000900090
 6 -2.57354779287929  2.58586654425443 -0.71123387118712
 6  4.13602756825683 -0.43740424652465 -0.22950246664666
 6  2.68122517111711 -0.69379385088509 -0.29095404800480
 6 -1.99616816701670  4.04544912751275 -0.88428757615762
 6 -1.80037712321232  1.52569531393139 -0.71063708010801
 6  1.81540008500850  0.42361392289229 -0.48689725162516
 6  2.21574489558956 -2.02849563686369 -0.13331096319632
 6 -0.37216947584758  1.43695501680168 -0.73463682348235
 6  0.43542837363736  0.37815948374837 -0.49600286108611
 1 -10.93780052155216  1.39455124042404 -0.50648249344934
 1 -12.72418589168917 -1.40342035573557  2.50997889258926
 1 -11.03899156875688 -1.75378457345735  1.66364964756476
 1 -12.63149678327833 -3.09928903620362  0.52029689178918
 1 -10.02162756405641  0.09086076167617  2.66352497639764
 1 -10.63094326092609  1.76369944694469  2.11006572847285
 1 -11.50142773507351  0.67000041904190  3.37535171297130
 1 -13.87869907170717  0.50963696599660  0.53060953125313
 1 -13.64084985558556  0.67491909930993  1.91936593859386
 1 -12.93645233063306  1.93883750555056  1.17410789408941
 1  12.34238160486049  2.13904885438544 -0.08855101190119
 1  12.71814624172417  2.00252429132913  1.76013361456146
 1 -13.19897337593759 -1.87808460496050 -1.81133532423242
 1  13.56683626842684 -0.27816756255626  1.13100343624362
 1 -9.23396576227623 -1.23273813281328  0.20122768276828
 1  13.65554069816982 -1.29772281158116 -1.05764092009201
 1  13.36520293779378  0.38485706360636 -1.60579050285029
 1  9.27480417801780  1.72313236503650  1.66762200960096
 1  9.86559842144214  2.62390499289929  0.19299621512151
 1  10.76341001430143  2.76485145684568  2.01400755175518
 1  11.73625646694670 -0.88459570817082  2.48689511091109
 1  10.03025799639964 -0.40256279727973  2.78940206830683
 1  11.18955985508551  0.65252304910491  3.47163210621062
 1 -10.35520801880188  0.35009492019202 -2.92456985268527
 1 -11.81458051435144  0.90961696019602 -2.79376644194419
 1 -11.79733757885788 -0.77119587088709 -3.27833559115912
 1 -14.64901817511751 -2.18446739933993 -0.09231743554355
 1  8.61266033403340  0.27022724792479  0.23398604480448
 1 -8.67529269816982  1.79402105490549 -0.21635695609561
 1  11.52662839733973 -2.31818331433143 -1.76279913141314
 1  10.21822468886889 -1.28649475117512 -2.34264019801980
 1  11.75441473517352 -1.20829391949195 -3.26744269236924
 1  14.99538871917192  1.34838293809381  1.19311728062806
 1  9.65903567986799 -2.35100818251825 -0.24667110961096
 1 -5.75114957595760 -1.35802295299530 -0.10532313551355
 1 -6.98401729982998 -1.42355432863286  1.19380163256326
 1 -7.48901513671367 -1.66440488868887 -0.52297051185118
 1 -6.82302458895890  2.57375617071707 -0.34192739443944
 1  7.38365191419142 -3.86285970857086  1.32586228192819
 1  6.01871921712171 -3.84201938973897 -0.19840943214321
 1  7.94175407280728 -4.27593377797780 -0.57069010171017
 1  6.71688011491149 -0.09214645404540 -0.52063418531853
 1 -4.34155638723872  0.45740540574057 -0.30739679727973
 1  4.59565316881688 -2.33718297129713  0.21602394159416
 1 -4.58046409210921  3.45540352215222 -0.90775043054305
 1  4.37280735693569  0.61959929882988 -0.43942315971597
 1 -1.21556131433143  4.12340378707871 -1.82145041694169
 1 -1.35407824622462  4.26598375567557  0.08137617781778
 1 -2.72814230233023  4.85531794729473 -0.72148044174417
 1 -2.24864374477448  0.42770939643964 -0.63763849384939
 1  2.36939598169817  1.23690767996800 -0.61205822092209
 1  2.55202373007301 -2.55523192559256  0.64094247274728
 1  0.97898296959696 -1.95713500460046 -0.44895618071807
 1  2.66865961536154 -2.48998678587859 -1.04465870887089
 1  0.18651453635364  2.58683852355236 -0.87414440594059
 1 -0.10861375737574 -0.56010618041804 -0.18578923392339

