%nproc=4
%Mem=4GB
# td=(NStates=1) CAM-B3LYP/6-31G(d,p) 

TD

0 1
 8 -14.03014889008901 -1.98306668836884  0.61283153845385
 8  14.75643748054805  1.10702828942894  0.37264786068607
 6 -11.75791865146515  0.05289136403640  1.35584040404040
 6 -10.94584154665467  0.30045281628163 -0.01465775297530
 6 -11.82687816841684 -1.50499498389839  1.50739858115812
 6 -12.65752914641464 -2.18543960876088  0.31649580048005
 6 -11.64270955985599 -0.40151763006301 -1.10641613151315
 6  10.98342167276728  1.01871351385139  1.12069234893489
 6 -10.76651812501250  0.53581532033203  2.50316736743674
 6 -13.02606876927693  0.69004465136514  1.46685776257626
 6  12.39745692619262  1.45751517801780  0.85850323652365
 6 -12.30239122502250 -1.56006387418742 -0.92942571127113
 6  13.48956057695769  0.46101377397740  0.52012933183318
 6  10.69533900820082 -0.16783619381938  0.07980156525653
 6 -9.48815757965797 -0.00449329752975 -0.00086007840784
 6  13.04613259085908 -0.21325854525453 -0.79641522782278
 6  11.65808889768977 -0.58032307760776 -0.81181624042404
 6  10.01388827442744  2.11108042004200  0.92914562796280
 6  10.94334516701670  0.20681985738574  2.43494405570557
 6 -11.29848434593459  0.16916855835584 -2.54753701190119
 6 -8.45381148144815  0.91208619101910 -0.25446906940694
 6  9.28126305560556 -0.46836461226123  0.10289037283728
 6  11.25490543604360 -1.52804577137714 -1.93890349504950
 6 -7.14883620652065  0.53569081088109 -0.28720080938094
 6  8.74882133853385 -1.80636043354335 -0.02268740974097
 6 -6.72502392389239 -0.84166292319232  0.05945883448345
 6  7.34291277877788 -2.15941881388139 -0.15712677497750
 6 -6.24149392539254  1.56956053055306 -0.51051290789079
 6  7.03205639983998 -3.61307502970297  0.03517373557356
 6  6.40395766476648 -1.19562985168517 -0.26516885928593
 6 -4.72167614131413  1.49369290849085 -0.29970088348835
 6  4.99759060496050 -1.54042188508851 -0.33891167136714
 6 -3.94919629202920  2.51309433563356 -0.63057424642464
 6 -2.59995043314331  2.70150810841084 -0.66166891469147
 6  4.00644460996100 -0.56034654075408 -0.34258377477748
 6  2.60432748134813 -0.70413488498850 -0.28509346194619
 6 -1.92306085628563  3.92761734433443 -0.98156730413041
 6 -1.78970605610561  1.59256200060006 -0.62336835323532
 6  1.72141068606861  0.39026058755876 -0.44869343124312
 6  1.98572189328933 -2.13666645394539 -0.00552818491849
 6 -0.35230748964896  1.48008933023302 -0.62636599639964
 6  0.30788561936194  0.35662733053305 -0.51752501330133
 1 -11.12507924942494  1.31154293959396 -0.15502734793479
 1 -12.35747922102210 -1.98080809450945  2.38938683338334
 1 -10.82956062566257 -2.04256345134513  1.74408769136914
 1 -12.28042167576758 -3.22113122042204  0.42478734083408
 1 -9.77421282258226  0.00330200580058  2.63854247814782
 1 -10.54618478507851  1.55859893689369  2.47262198409841
 1 -11.24151174347435  0.46353977297730  3.39577375517552
 1 -13.90026122792279  0.42440844314431  0.78275474577458
 1 -13.63697946854685  0.46802841024102  2.27878188018802
 1 -12.83434211961196  1.75840946274628  1.50203068636864
 1  12.45826319301930  2.13918886838684  0.08836667986799
 1  12.72094652175218  1.87689172807281  1.80839844104410
 1 -12.57946142474247 -2.10688748524852 -1.89580377107711
 1  13.47693727852785 -0.32049179497950  1.37807814371437
 1 -9.30296266196620 -1.13561842084208  0.12980054005401
 1  13.60563570767077 -1.16689972927293 -1.21171632763276
 1  13.44864128162816  0.56123470137014 -1.67207713151315
 1  9.03262996059606  1.93569362116212  1.41595684308431
 1  9.71922378397840  2.27822042444244 -0.17663074757476
 1  10.41865553885388  3.15831080278028  1.28927507850785
 1  11.68863170447045 -0.50730797939794  2.33753017441744
 1  9.97078204880488 -0.12557509850985  2.56839996809681
 1  11.24515541464146  0.98405620242024  3.33327827082708
 1 -10.09683218121812  0.08253816451645 -2.52271966766677
 1 -11.78656771307131  1.16768276677668 -2.52777984328433
 1 -11.95630347544754 -0.44943369466947 -3.35990374797480
 1 -14.54482775607561 -2.47540649324932 -0.29488769256926
 1  8.48282735073507  0.14748497369737  0.47349999619962
 1 -8.63649881878188  1.96317797059706 -0.24851017141714
 1  11.59945568006801 -2.50705220122012 -1.36454930643064
 1  10.13904677107711 -1.36835293699370 -2.23150908490849
 1  11.91405069876988 -1.37590068016802 -2.80541648974898
 1  15.05403458375838  1.66137423722372  1.15157312621262
 1  9.48591836813681 -2.61519460116012 -0.29700614311431
 1 -5.65796025702570 -0.88413556425643 -0.27633023622362
 1 -6.84945384348435 -1.04167614081408  1.13350560296030
 1 -7.43603983918392 -1.61529997819782 -0.29730794559456
 1 -6.76069835633563  2.54541333643364 -0.94323752545255
 1  6.91142469146915 -3.95246866946695  1.05901559725973
 1  6.26902424762476 -3.84772996079608 -0.79772936413641
 1  8.04775467286729 -4.05233141774177 -0.31572460516052
 1  6.61284971187119 -0.18025526492649 -0.36451857375738
 1 -4.21324355595560  0.57873753895389  0.16821076347635
 1  4.45480908440844 -2.58462771577158 -0.17249491029103
 1 -4.58961500720072  3.31517949974997 -0.93423307880788
 1  4.37852792899290  0.56155349424942 -0.35700491789179
 1 -1.51511126932693  3.76886833353335 -1.97491576347635
 1 -1.05142798119812  4.20069722702270 -0.51031299109911
 1 -2.69023851195120  4.71503391889189 -1.17833612731273
 1 -2.25244412481248  0.58720534603460 -0.51124585458546
 1  2.03926296839684  1.36370035923592 -0.68412542764276
 1  2.32515104280428 -2.55642204460446  0.88467684618462
 1  0.77417248854886 -2.06552584368437  0.09755847074707
 1  2.20617336673667 -2.69169695689569 -0.89260350335033
 1  0.22307819271927  2.50760059975998 -0.83004999649965
 1 -0.22962585858586 -0.65061523132313 -0.36823747874787

