%nproc=4
%Mem=4GB
# td=(NStates=1) CAM-B3LYP/6-31G(d,p) 

TD

0 1
 8 -13.91563743894389 -2.14825320702070  0.63214346964696
 8  14.84427626442644  0.68384597119712  0.25801639753975
 6 -11.69874273387339  0.01112718761876  1.21763658365837
 6 -10.93221018351835  0.31211398239824 -0.05406169336934
 6 -11.78629411001100 -1.41529601400140  1.46776461776178
 6 -12.59210260376038 -2.19598066286629  0.38498264916492
 6 -11.62291758065806 -0.46628410671067 -1.18670416031603
 6  11.08577190779078  0.87159880238024  1.00960123982398
 6 -10.93566503970397  0.54176591539154  2.48893594429443
 6 -13.09704586698670  0.59642528942894  1.33158423522352
 6  12.58461564206421  1.40790021652165  0.86693407960796
 6 -12.19611059695970 -1.75700356815682 -0.95076784548455
 6  13.44431605250525  0.24515218781878  0.51334865376538
 6  10.62569204350435 -0.08885829602960 -0.00904731963196
 6 -9.54065282918292 -0.05784863306331  0.08463847144714
 6  13.01856983458346 -0.33101032043204 -0.79983556985699
 6  11.49497258605860 -0.65384042934293 -0.87973303210321
 6  10.34596148174817  2.21505081708171  0.96334904830483
 6  11.09620045254525  0.29225840124012  2.43354391569157
 6 -11.32043654115412 -0.03300165866587 -2.63630588878888
 6 -8.53747984828483  0.85013999639964 -0.21213483598360
 6  9.19346427572757 -0.48393616941694  0.05763584738474
 6  11.19302924842484 -1.55101806860686 -2.05176478117812
 6 -7.06704802770277  0.51295853765377 -0.26533862316232
 6  8.77543399979998 -1.65133493099310 -0.17193233423342
 6 -6.65233665516552 -0.84868362526253 -0.04241135253525
 6  7.37920640814081 -2.05665853785379 -0.12017307960796
 6 -6.33270304630463  1.66345992049205 -0.49503135973597
 6  7.11392458665867 -3.50328405060506 -0.02598238003800
 6  6.32452972197220 -1.11143143184318 -0.30070241264126
 6 -4.85456943064306  1.55025856505651 -0.58478939233923
 6  4.89769061496150 -1.45987383028303 -0.00366814701470
 6 -4.04800617301730  2.70738376457646 -0.61322251125112
 6 -2.61193163126313  2.79977793539354 -0.67803055085509
 6  3.87390135563556 -0.50968147424742 -0.28266778317832
 6  2.56421346994699 -0.73652812431243 -0.13103805640564
 6 -2.03210176037604  4.26534111671167 -0.65530467786779
 6 -1.79740682618262  1.68375111951195 -0.51516753315332
 6  1.68799734473447  0.32239380088009 -0.40738930083008
 6  2.12685600670067 -2.10650343764376  0.28392075997600
 6 -0.47631989088909  1.70136145744574 -0.56853021282128
 6  0.24168899969997  0.47585925372537 -0.45467872867287
 1 -11.05176191769177  1.31399318461846 -0.52771461666167
 1 -12.07150062316231 -1.94646466016602  2.38819671437144
 1 -10.84229189878988 -1.86004519951995  1.53545682828283
 1 -12.28098173177318 -3.26333544084408  0.45113997609761
 1 -10.15325072637264 -0.18781710611061  2.48816744064407
 1 -10.49348951555156  1.64677775477548  2.37654237613761
 1 -11.56828442074207  0.49514293329333  3.29363354115412
 1 -13.67252845464546  0.10875687798780  0.40189665996600
 1 -13.69075484608461  0.26403801120112  2.21827582958296
 1 -13.23498218361836  1.67981160296030  1.14173465676568
 1  12.66804417111711  2.13765871537154 -0.02882503930393
 1  12.95781020812081  1.99563360226023  1.68442604380438
 1 -12.45732921152115 -2.26405320182018 -1.87790198089809
 1  13.64957454225423 -0.54150389618962  1.39399973587359
 1 -9.37951031673167 -1.06562142114211  0.36620418041804
 1  13.57068221232123 -1.22135517481748 -0.97670282628263
 1  13.26471288878888  0.32867144504450 -1.51549147294729
 1  9.34841153875387  1.97533758555856  0.77159240664066
 1  10.57178904050405  2.75797840024002 -0.15074815931593
 1  10.51737541084108  2.96266123782378  1.94780093109311
 1  11.79632247354736 -0.61397864646465  2.54341076247625
 1  10.04110908150815 -0.05336787778778  2.28150127822782
 1  11.33494439353935  0.78894669146915  3.26264120712071
 1 -10.32375487348735  0.14977488818882 -2.92696009170917
 1 -11.96923597989799  0.88014401290129 -2.77927499279928
 1 -11.66317416251625 -0.71795054635464 -3.25932368996900
 1 -14.26770004330433 -2.85157411001100 -0.00662886668667
 1  8.45031409940994  0.42114233943394  0.33950659685969
 1 -8.86628179707971  1.86691834463446 -0.55732105250525
 1  11.60615635013501 -2.54244574057406 -1.65695854735474
 1  10.11763462986299 -1.65344144584458 -2.29442537653765
 1  11.77832712641264 -1.31994508460846 -2.89530547864786
 1  15.05479465976598  1.48461656145615  0.93882185108511
 1  9.47574735103510 -2.38494157585759 -0.26588303080308
 1 -5.64218867986799 -1.10853800450045 -0.25087769096910
 1 -6.89957885598560 -1.13382535573557  0.97951020342034
 1 -7.35769200440044 -1.57675612381238 -0.44638285308531
 1 -6.92852513901390  2.46103489858986 -0.87455065676568
 1  7.16835038403840 -3.80935435803580  1.18475817151715
 1  6.05574291949195 -3.82346753455346 -0.47486707790779
 1  8.04945484288429 -4.21412759735974 -0.51048408110811
 1  6.68041646854685 -0.12429966936694 -0.75133725562556
 1 -4.51836406800680  0.64873453865387 -0.48563462106211
 1  4.75417902140214 -2.47194644764476  0.22242458165817
 1 -4.68758480418042  3.69290727252725 -0.66115577107711
 1  4.52813288948895  0.35900323922392 -0.77510672807281
 1 -1.45748550675068  4.45476692339234 -1.69687795969597
 1 -1.36714955335534  4.42575973327333  0.16166420662066
 1 -2.71021050915092  5.17683009850985 -0.69342763646365
 1 -2.51481036143614  0.87870449594959 -0.28041277127713
 1  2.23374241634163  1.38385237443744 -0.62829984508451
 1  2.99625815351535 -2.58660506290629  1.20734911341134
 1  1.03840891219122 -2.13326261736174  0.79787850275027
 1  2.07412016141614 -2.87149493669367 -0.58756299929993
 1  0.17676356125613  2.59216905660566 -0.69735672717272
 1 -0.45083797979798 -0.46708687848785 -0.31231188618862

