%nproc=4
%Mem=4GB
# td=(NStates=1) CAM-B3LYP/6-31G(d,p) 

TD

0 1
 8 -14.07641351655166 -1.92613099479948  0.52250250555056
 8  14.80117195399540  0.84381196779678  0.22739333523352
 6 -11.73099595919592  0.08980505540554  1.29324414441444
 6 -10.95877283978398  0.29912268326833 -0.05638192539254
 6 -12.01194667526753 -1.48282276667667  1.37121496279628
 6 -12.67201059455946 -2.10906197099710  0.11431558245825
 6 -11.65080036893689 -0.38658613691369 -1.15337082698270
 6  11.13095642624262  0.97744938743874  1.10960123982398
 6 -10.83079455265526  0.53954569336934  2.49126617731773
 6 -13.08206436883688  0.87484313121312  1.19413048984898
 6  12.49514669516952  1.48653808030803  0.86955434163416
 6 -12.29700068596860 -1.41772964076408 -1.09575234393439
 6  13.47471909280928  0.38826649924993  0.46254357325733
 6  10.69153862816282 -0.08151756195620 -0.04269068396840
 6 -9.50272903680368 -0.11096394459446  0.06115612321232
 6  12.96090406800680 -0.25640285968597 -0.89745533183318
 6  11.52750583938394 -0.47281232653265 -0.99398445724572
 6  10.11430831643164  2.11070038203820  1.00997371077108
 6  11.10444127662766  0.30734991039104  2.46719728102810
 6 -11.41958645614561  0.12991463296330 -2.46906916511651
 6 -8.51378747904791  0.75608059045905 -0.17408103060306
 6  9.31031596089609 -0.51536931273127 -0.05674559075908
 6  11.21607155265527 -1.26864983178318 -2.16368597329733
 6 -7.10045136803680  0.46453369516952 -0.11766385568557
 6  8.81258771517152 -1.75611540904090 -0.19317445844584
 6 -6.71732315381538 -0.94936369326933  0.15886877547755
 6  7.38289677717772 -2.14106697869787 -0.15429649194919
 6 -6.28786856285629  1.48337191169117 -0.35489734633463
 6  7.13134632883288 -3.58746246844684 -0.00146992879288
 6  6.45752302130213 -1.13881417011701 -0.29011135353535
 6 -4.86926089978998  1.36746028522852 -0.46146706010601
 6  5.09778062396240 -1.34865270817082 -0.07744552475248
 6 -4.07652902530253  2.59414244044404 -0.62459364836484
 6 -2.64322476057606  2.63535149274928 -0.73498624642464
 6  3.98587255275528 -0.46833733983398 -0.22824234063406
 6  2.66820386898690 -0.74824929642964  0.14293934133413
 6 -1.99524807500750  3.90540512311231 -1.19828897629763
 6 -1.73652073757376  1.41536428082808 -0.56468248464846
 6  1.78526707170717  0.34548611011101 -0.18223678557856
 6  2.13682700380038 -2.11903469076908  0.40296266416642
 6 -0.43290554945495  1.43659498079808 -0.39481284108411
 6  0.35648047884789  0.30488215601560 -0.15988924972497
 1 -10.84990173167317  1.52270405570557 -0.17148899409941
 1 -12.66033950705070 -1.53937395109511  2.20083797849785
 1 -11.04354202380238 -1.91625082008201  1.60905418801880
 1 -12.33820745434543 -3.26627573487349  0.08373323542354
 1 -10.05197059835984 -0.25833415781578  2.59227785168517
 1 -10.45167533413341  1.38252132913291  2.35795051695169
 1 -11.36392398469847  0.47604102310231  3.60933511131113
 1 -13.73512471427143  0.68266426872687  0.42512898319832
 1 -13.74874064466447  0.75081668906891  2.15403940594059
 1 -13.08224691009101  1.95914953675368  0.91154163746375
 1  12.40287765446545  2.12057700720072 -0.00568272507251
 1  12.67583201030103  2.21496553545354  1.66108370957096
 1 -12.77181065966597 -1.82819961646165 -1.95414960566057
 1  13.54838442324233 -0.35218496429643  1.14498483438344
 1 -9.21282364806481 -1.17967282628263  0.22476003600360
 1  13.35642078617862 -1.28828186748675 -1.02134729072907
 1  13.29843626112611  0.44306288418842 -1.78556848064806
 1  9.29832653025302  1.48769882168217  1.59562480988099
 1  9.86519838143814  2.29281188358836 -0.00246333083308
 1  10.36041971527153  2.97051202290229  1.64847099809981
 1  11.98673151445145 -0.50128737733773  2.66020244164417
 1  10.18392336293629 -0.25277781878188  2.75213834193419
 1  11.14813571267127  1.36280407720772  3.25924086708671
 1 -10.28665116311631  0.11674158485849 -2.72494989068907
 1 -11.58177723402340  1.07967396589659 -2.90651771707171
 1 -12.13562140724072 -0.43555230653065 -3.14213197079708
 1 -14.81812508580858 -2.14716366896690 -0.21374957875788
 1  8.62612168016802  0.26205643084308 -0.03511086488649
 1 -8.80381555045505  1.69503115591559 -0.18912423282328
 1  11.54618035253525 -2.24662615861586 -2.15680853235324
 1  10.11653451985199 -1.25897199889989 -2.24300023402340
 1  11.76135542924292 -0.99273236333633 -3.14628057615762
 1  15.10220940124012  1.53464156395640  0.99596756565657
 1  9.58948872517252 -2.48607168886889 -0.56792323482348
 1 -5.54427888888889 -1.23321047174717 -0.35050765396540
 1 -6.74078297639764 -1.27245921912191  1.09704195659566
 1 -7.50508674387439 -1.66329477767777 -0.47637585238524
 1 -6.79216150265027  2.45988478357836 -0.30583378507851
 1  6.71832538153815 -3.87913133573357  0.88977867356736
 1  6.39416676187619 -4.09862505030503 -0.68654824602460
 1  8.01392128952895 -4.14504068866887 -0.19479251195120
 1  6.69495792269227 -0.16345358475848 -0.30935305720572
 1 -4.22555478707871  0.34078374357436 -0.49743580118012
 1  4.71273487698770 -2.46381563456346  0.07386972617262
 1 -4.71211725742574  3.37440542234223 -0.70962061756176
 1  4.28680875707571  0.62093943284328 -0.65593481088109
 1 -1.20533029122912  3.91249269596960 -2.10707897979798
 1 -1.43598643704370  4.49907706500650 -0.26757871767177
 1 -2.81028051615162  4.67470988648865 -1.47663595729573
 1 -2.44206308670867  0.41800842634263 -0.63524825482548
 1  2.25095413751375  1.21102509170917 -0.11663867896790
 1  3.06522505020502 -2.79426582898290  1.09149752825283
 1  1.01217628892889 -1.88688797989799  0.87695641054105
 1  1.82783553295330 -2.71605939313931 -0.76289053205321
 1  0.22380826572657  2.43728356805681 -0.52537952945295
 1 -0.11623451945195 -0.51317148694869 -0.15002565756576

