%nproc=4
%Mem=4GB
# td=(NStates=1) CAM-B3LYP/6-31G(d,p) 

TD

0 1
 8 -14.07312318751875 -1.95400378207821  0.43150340564056
 8  14.77595943274327  0.80590817741774  0.33078367426743
 6 -11.65958881848185 -0.01726565166517  1.43102792279228
 6 -10.85897285978598  0.34294706570657  0.12923663646365
 6 -11.85126060666067 -1.59200368476848  1.50376821812181
 6 -12.61652504600460 -2.08210927572757  0.25423957485749
 6 -11.55006029492949 -0.26708418671867 -1.11038652855286
 6  11.00409373997400  1.02865450795079  1.10445072477248
 6 -10.86478795199520  0.35116685548555  2.66168321902190
 6 -13.00504666706671  0.77781342824282  1.43071414821482
 6  12.42347952845284  1.56939636613661  0.80184757095710
 6 -12.23628461436144 -1.40433830163016 -1.01771454015402
 6  13.38437005790579  0.34456212881288  0.46508382728273
 6  10.57021649594959  0.07586817661766 -0.03263967886789
 6 -9.41446020992099 -0.07294014221422  0.20679068666867
 6  12.93688166576658 -0.19344656405641 -0.87715330163016
 6  11.52358544734473 -0.48721376667667 -0.85374043284328
 6  10.06020290589059  2.25508482048205  1.13997671107111
 6  10.94560539303930  0.39254843024302  2.52145270657066
 6 -11.15147964546455  0.33194483598360 -2.49407166536654
 6 -8.44645074537454  0.80998598099810 -0.10032365486549
 6  9.18828375767577 -0.32964073987399 -0.01930184638464
 6  11.15700564606461 -1.41995496229623 -1.97938754345435
 6 -7.07919924282428  0.43518075987599 -0.20474256355636
 6  8.74616107250725 -1.72831262876288 -0.01526666766677
 6 -6.60839226072607 -0.90792954985499  0.05547843644364
 6  7.33429191669167 -2.12400527252725  0.02591152885289
 6 -6.19471924792479  1.47853142764276 -0.55757761436144
 6  7.20476367056706 -3.65952967516752  0.46427664586459
 6  6.25844311331133 -1.27999828852885 -0.31715405780578
 6 -4.80645461916192  1.45637917711771 -0.55420633403340
 6  4.97521836773677 -1.54276211911191 -0.28336611681168
 6 -3.94766613901390  2.54040706690669 -0.76357754675468
 6 -2.63673411151115  2.65777373497350 -0.77730047784778
 6  3.92859682518252 -0.58666917301730 -0.45515503190319
 6  2.55775282388239 -0.85372984448445 -0.40572552515252
 6 -1.88988753895390  3.95948053065307 -0.97259640704070
 6 -1.78168525402540  1.47126987138714 -0.42883890029003
 6  1.70134867986799  0.20160172167217 -0.60956951885189
 6  1.98723204430443 -2.27408019531953 -0.16497412951295
 6 -0.35668792769277  1.51727304860486 -0.72259561936194
 6  0.33012784358436  0.34532620042004 -0.53236649744974
 1 -10.83245998749875  1.35850763606361  0.22518067286729
 1 -12.56685015811581 -1.59655966966697  2.32026992169217
 1 -10.85150281988199 -2.19165836083608  1.78716199879988
 1 -12.37596122972297 -3.27316642394239  0.17227208930893
 1 -9.94602000330033  0.01034270987099  2.53240186408641
 1 -10.58316848344835  1.51418449544954  2.60324504640464
 1 -11.32184977727773  0.28335175417542  3.57884206200620
 1 -13.73796499829983  0.72206820912091  0.59951642194219
 1 -13.44942071267127  0.60396200360036  2.61799580158016
 1 -12.64428311371137  1.96070969276928  1.52048253155316
 1  12.54289165586559  2.24415936543654 -0.01778393519352
 1  12.78753318041804  1.89413345224522  1.62204980618062
 1 -12.77005048364837 -2.20167696419642 -1.74968915961596
 1  13.42450203500350 -0.31489123492349  1.21284162006201
 1 -9.05830819651965 -1.14476933593359  0.36544410441044
 1  13.42512765686569 -1.12555559485949 -1.13824898089809
 1  13.05288170567057  0.72804138203820 -1.49139906370637
 1  9.13176987458746  1.97563761556156  1.68747399479948
 1  10.00631249284928  2.60079268166817  0.00367728322832
 1  10.54644831813181  3.08905387708771  1.68822497349735
 1  11.71404424572457 -0.54419166776678  2.54153057445745
 1  10.08578354895490 -0.15395793679368  2.65394852295230
 1  11.00779167826783  1.13251104790479  3.45833077607761
 1 -10.00502300030003  0.66962687338734 -2.55281267696770
 1 -11.63844290059006  1.26921291979198 -2.51145821112111
 1 -11.51643948904890 -0.27175592689269 -3.34502225982598
 1 -14.52423569686969 -2.33678263086309 -0.35881408520852
 1  8.26481554955495  0.41047127232723  0.05162780898090
 1 -8.70553572247225  1.87835948874887 -0.26874219461946
 1  11.45453118761876 -2.38948044404440 -1.55342819431943
 1  10.31281414781478 -1.41449755145515 -2.22888882288229
 1  11.44556385008501 -0.97896098619862 -2.77858380648065
 1  15.01180036033603  1.37777587738774  1.21324929382938
 1  9.53862363866387 -2.38136121782178  0.06515007250725
 1 -5.57162162316232 -1.05120227092709 -0.42252485568557
 1 -6.44598349644964 -1.15783775697570  1.15997825022502
 1 -7.47425366056606 -1.48151659985999 -0.33715192999300
 1 -6.39246153265327  2.48036683178318 -0.72717591929193
 1  6.56582013101310 -3.59740316291629  1.43256295199520
 1  6.50411775697570 -4.44628981678168 -0.35949554075408
 1  8.22370226762676 -4.18120430503050  0.53139010631063
 1  6.45153358025803 -0.28113535293529 -0.57815993789379
 1 -4.17646987858786  0.51254091929193 -0.62417847544754
 1  4.48099170267027 -2.51066031903190  0.07849018821882
 1 -4.59077512321232  3.40621860366037 -1.06642629812981
 1  4.34265434163416  0.43856119501950 -0.52349156655666
 1 -1.15096485468547  4.02102354905491 -1.88380665256526
 1 -1.10383322172217  4.33266042334233 -0.06446840664066
 1 -2.65925541364136  4.61045346084608 -1.17779607330733
 1 -2.21689056945694  0.53539016451645  0.06921219121912
 1  2.34531357345735  1.12384637383738 -0.70241725682568
 1  2.15292382008201 -2.54453085548555  0.91817019551955
 1  0.86695176647665 -2.49527881898190 -0.68409969506951
 1  2.47349009840984 -2.85127291449145 -0.81378562156216
 1  0.12079796469647  2.45935577527753 -1.25037202870287
 1 -0.24854775077508 -0.58177834763476 -0.21473212821282

