%nproc=4
%Mem=4GB
# td=(NStates=1) CAM-B3LYP/6-31G(d,p) 

TD

0 1
 8 -14.19048492369237 -1.87402578427843  0.37192744804480
 8  14.80048188498850  0.92766035263526  0.09064966086609
 6 -11.82834569416942  0.02706878177818  1.30532535253525
 6 -10.94567152965297  0.26048881988199 -0.01574786198620
 6 -12.10198567916792 -1.44739922432243  1.39801764306431
 6 -12.78430182368237 -2.09381044584458  0.21469562046205
 6 -11.67330261916192 -0.27337481578158 -1.23047853775378
 6  11.19877320792079  0.94887653015302  1.06915719541954
 6 -11.05473694689469  0.40490222902290  2.54905195589559
 6 -13.10972713511351  0.92482812971297  1.26489756655666
 6  12.51106828732873  1.68471789828983  0.80550793699370
 6 -12.34866585248525 -1.45128299609961 -1.09525229392939
 6  13.51891351225123  0.53405107770777  0.33024034293429
 6  10.69562903720372  0.00177076687669 -0.05150156505651
 6 -9.56725548944894 -0.07060990919092  0.14695470307031
 6  12.99233721132113 -0.22159937933793 -0.92877846414641
 6  11.52147523632363 -0.50138518381838 -0.85455051385139
 6  10.10677756335634  2.17232654465447  1.19623233663366
 6  11.28258909140914  0.34083325872587  2.47356791809181
 6 -11.26463096059606  0.27081872337234 -2.58670092829283
 6 -8.54893099339934  0.73562854525453  0.01873825132513
 6  9.31782671197120 -0.47784556035604  0.09505958975898
 6  11.26473641914191 -1.55413838063806 -1.95650525522552
 6 -7.13121444434443  0.51140838263826 -0.15023711301130
 6  8.83504996139614 -1.72449224672467 -0.26656179717972
 6 -6.67672909440944 -0.94773353025303  0.10055294389439
 6  7.45074356185619 -2.13620649264926 -0.18467953025303
 6 -6.20917069306931  1.51588516301630 -0.26755861246125
 6  7.16850004420442 -3.62539626182618 -0.02018179998000
 6  6.42452972197220 -1.26543683238324 -0.23483582598260
 6 -4.79196317001700  1.45294883408341 -0.27820873427343
 6  5.00465131103110 -1.51130897379738 -0.08735651585159
 6 -4.05152652505251  2.54494752095210 -0.60142133113311
 6 -2.62556299439944  2.56049400700070 -0.70420316811681
 6  4.00992495799580 -0.59315982208221 -0.24795431183118
 6  2.65799284788479 -0.86491096259626 -0.08365331793179
 6 -2.11388993919392  3.81396597919792 -1.22001114851485
 6 -1.77288437393739  1.36821956635664 -0.55595161156116
 6  1.80996954195420  0.32992455395540 -0.31852041394139
 6  2.13763708480848 -2.11864465176518  0.35535790369037
 6 -0.32685494439444  1.46022734403440 -0.51420478027803
 6  0.39016384718472  0.26657832563256 -0.33243650445045
 1 -10.99598634013401  1.25001678697870 -0.22350419561956
 1 -12.54777825092509 -1.91232124582458  2.21152904760476
 1 -10.94583225282528 -1.90376957195720  1.39559284188419
 1 -12.66526015961596 -3.04384349164916  0.06118098019802
 1 -10.11173657495750 -0.42190051445145  2.82873149704971
 1 -10.38409857645765  1.48999207620762  2.50681540344034
 1 -11.56661425372537  0.23608702770277  3.53506768456846
 1 -14.06436763856385  0.52769877217722  0.54827129742974
 1 -13.81831760236024  0.87341894929493  2.04571857385739
 1 -12.91432011741174  1.89766338813881  0.91426190949095
 1  12.60397776447645  2.50852580208021  0.22159000220022
 1  12.97360178727873  2.36137017591759  1.73085068626863
 1 -12.71744522312231 -1.76335313181318 -2.05397958865887
 1  13.47102668746875 -0.27757750355036  1.12307264316432
 1 -9.38764112981298 -1.19195405440544  0.49385694569457
 1  13.68756390049005 -1.01486452575257 -1.25252040804080
 1  13.30089650715072  0.57016559445945 -1.67431735553555
 1  9.26311300890089  1.74341439323932  1.77665291269127
 1  9.92964482608261  2.64692729512951  0.08280519601960
 1  10.73426710001000  2.95216018771877  1.76718286928693
 1  11.94436727802780 -0.45737298589859  2.66312273367337
 1  10.27639260986098 -0.24244678567857  2.72862599069907
 1  11.45606650575057  1.10295809260926  3.26904184718472
 1 -10.19046154415442  0.27053696439644 -2.77985538123812
 1 -11.51396045234523  1.29050504900490 -2.81227829312931
 1 -12.01362920802080 -0.34203295459546 -3.28085584318432
 1 -14.76039931323132 -2.26304525712571 -0.53568177197720
 1  8.52423149114911  0.53590381558156  0.17569021522152
 1 -8.66953212211221  1.64010566336634 -0.39941526192619
 1  11.41045678017802 -2.64878637463746 -1.74423727522752
 1  10.25251811821182 -1.40565666736674 -2.36221215521552
 1  12.09608890259026 -1.54590768086809 -2.93517946604661
 1  15.25059423972397  1.34714281408141  0.73180114901490
 1  9.59727950425042 -2.50023310501050 -0.30558700120012
 1 -5.59826428742874 -1.14286143684368 -0.09811241444144
 1 -6.80316921502150 -1.13589556275628  1.30310256265627
 1 -7.24949118431843 -1.61153960216022 -0.59294750955096
 1 -6.66851913841384  2.57171596669667 -0.15457865956596
 1  7.01029457845784 -3.74441786438644  1.07843753945395
 1  6.14386173137314 -3.78810399819982 -0.39676926812681
 1  7.95167506490649 -4.37332351695169 -0.66477951065106
 1  6.83089151605161 -0.15432267166717 -0.33941606350635
 1 -4.34177640924092  0.64354401960196  0.01084502690269
 1  4.89823342684269 -2.48129738273827  0.24212655185519
 1 -4.78137418311831  3.51018900070007 -0.90199985548555
 1  4.31774185038504  0.35841318021802 -0.65818503590359
 1 -1.30214997319732  4.02456390309031 -2.21249952185219
 1 -1.46185902430243  4.49730688798880 -0.65743770357036
 1 -2.95049453755376  4.73242565806581 -1.44754304800480
 1 -2.13639251965196  0.52415904140414 -0.47039176917692
 1  2.27507654975498  1.21912590179018 -0.40512752785279
 1  2.70249877757776 -2.45894229662966  1.22646102460246
 1  1.12778785008501 -2.19757904900490  0.72158087298730
 1  2.32661541094109 -2.89492727992799 -0.41883612661266
 1  0.16004188908891  2.33234307400740 -0.64997198869887
 1 -0.37908080408041 -0.55340551035103 -0.19013966896690

