%nproc=4
%Mem=4GB
# td=(NStates=1) CAM-B3LYP/6-31G(d,p) 

TD

0 1
 8 -14.10876675187519 -2.15989437113711  0.24656491179118
 8  14.77043888068807  1.04256184278428 -0.07647705180518
 6 -11.85822868246825  0.10474654955496  1.25154997499750
 6 -11.06178314081408  0.46357912891289  0.01952566536654
 6 -12.03059854045405 -1.36972145654565  1.39348719001900
 6 -12.70913430693069 -2.16759782458246  0.15701985288529
 6 -11.46776206510651 -0.35962344064406 -1.22091758165817
 6  11.13104643524352  0.91142278477848  1.12572285198520
 6 -11.11697317051705  0.59643138193819  2.46516356705671
 6 -13.18546470887089  0.77950359725973  1.18389946674667
 6  12.56451363186319  1.52364179067907  0.79447683388339
 6 -12.16073705960596 -1.50343821162116 -1.13722649134914
 6  13.45988760966097  0.57040471307131  0.15967328622862
 6  10.65715518981898 -0.07804721492149  0.00119370447045
 6 -9.46673543744375  0.03410056185619  0.11778178577858
 6  12.94460243784378  0.02156493709371 -1.15443102940294
 6  11.50824391319132 -0.54102914821482 -1.01220627942794
 6  10.17444433003300  2.21951126312631  1.20224293769377
 6  11.15463629612961  0.21945112051205  2.49807036833683
 6 -11.21882638013802  0.22653429492949 -2.58103036123612
 6 -8.46482258255826  0.83019800220022 -0.10957457995800
 6  9.27102203150315 -0.45473324912491  0.15884596839684
 6  11.03363330883088 -1.33511647844784 -2.25662526722672
 6 -7.09743106600660  0.53541078287829 -0.09133122242224
 6  8.73788024442444 -1.71617141464146 -0.02605774677468
 6 -6.74366578807881 -0.84926368326833  0.43595648424842
 6  7.44331281878188 -2.20762363436344  0.04850378807881
 6 -6.18628840484048  1.46042961746175 -0.36741859845985
 6  7.22772596679668 -3.73617733993399  0.21799201740174
 6  6.34980224922492 -1.37730801950195  0.04419207680768
 6 -4.81487546124612  1.39952349154915 -0.43004391779178
 6  4.98349919581958 -1.61787963086309  0.08732095189519
 6 -4.00984235663566  2.54393741994199 -0.71619280828083
 6 -2.57116755485549  2.54659261686169 -0.66389913771377
 6  3.99373333883388 -0.68171867796780 -0.20453997039704
 6  2.63150019861986 -0.83531800330033 -0.18627357995800
 6 -1.96967551775178  3.90006458905891 -0.91687083448345
 6 -1.75704278977898  1.40062280668067 -0.55846186258626
 6  1.83309185418542  0.21329289078908 -0.30175873777378
 6  2.08792211331133 -2.17779056635664  0.20379274717472
 6 -0.33712597149715  1.48223954525453 -0.43068642844284
 6  0.42141697249725  0.30542221002100 -0.24053731453145
 1 -10.85568230973097  1.68215000030003 -0.23696554175418
 1 -12.70827430053005 -1.65173518721872  2.33081097579758
 1 -11.03769143874387 -1.81684087908791  1.58937221982198
 1 -12.34618825242524 -3.19056816411641  0.34250911301130
 1 -9.92569797109711  0.48726040164016  2.37940656455646
 1 -11.20868103470347  1.84924800180018  2.71230595249525
 1 -11.64176176847685  0.28881230023002  3.52142632043204
 1 -13.77391859365937  0.57025302760276  0.30231670197020
 1 -13.80769654025403  0.75895750315032  2.02886688868887
 1 -12.95782446784678  1.91180480228023  1.27551803510351
 1  12.26227359405941  2.48797374687469  0.11346919011901
 1  12.96119054615462  1.87818185708571  1.71745934713471
 1 -12.77127060566057 -1.90920771727173 -1.95170936163616
 1  13.34012359715972 -0.25171491729173  0.72193252915292
 1 -9.13595596129613 -0.92118697769777  0.27091465146515
 1  13.58475361946195 -0.72412545184518 -1.64379953595360
 1  12.95904232173217  0.84915349324932 -2.06608653245324
 1  9.18333503110311  2.06329638143814  1.66192143954395
 1  9.99064092569257  2.59077167956796  0.04745166066607
 1  10.71691536483648  3.11363633533353  1.60010616161616
 1  11.80347318861886 -0.76970421902190  2.51159758115812
 1  10.10839581018102 -0.15346788778878  2.71558468656866
 1  11.42581348044804  0.82101989878988  3.16177112011201
 1 -10.27608010601060  0.36439635033503 -2.74400179587959
 1 -11.62479153545355  1.30899689818982 -2.62089915521552
 1 -11.53056090119012 -0.25812456375638 -3.34253201080108
 1 -14.40647392069207 -2.29053800640064 -0.62794099789979
 1  8.65003407140714  0.42479270447045  0.48272091829183
 1 -8.59118428732873  1.90341199399940 -0.27940326072607
 1  11.67041277577758 -2.41219271527153 -2.35276812831283
 1  9.95283815021502 -1.43065916761676 -2.61472740674067
 1  11.58286758045805 -0.95138822892289 -3.18089403750375
 1  15.26871605190519  1.18817691749175  0.89304727362736
 1  9.63136291259126 -2.43627670937094 -0.20271671417142
 1 -5.86061052205221 -1.05067221792179  0.45307270407041
 1 -7.12905180328033 -1.07944991819182  1.36354860726073
 1 -7.18681491669167 -1.72410085828583 -0.12816103090309
 1 -6.45606789328933  2.54078287338734 -0.51227442914291
 1  7.18742229122912 -3.83776719931993  1.28188788448845
 1  6.22673001820182 -4.05833102090209 -0.22148173937394
 1  8.17330722812281 -4.28888507310731 -0.08076110881088
 1  6.69537796469647 -0.29472671207121 -0.17881000290029
 1 -4.45629786138614  0.30278994419442 -0.55700175777578
 1  4.78494209770977 -2.53104235723572  0.33793613281328
 1 -4.41418746444644  3.38257623942394 -0.71082073757376
 1  4.32563263946395  0.34215155405540 -0.44641385878588
 1 -1.54196395459546  3.89429087578758 -2.08505677757776
 1 -0.89874271267127  4.12869002630263 -0.26281824162416
 1 -2.61454094219422  4.86107852335233 -1.02194048774877
 1 -2.42685156555656  0.41654828032803 -0.37730246024602
 1  2.35242428452845  1.26707069626963 -0.28811582668267
 1  2.24751327902790 -2.39926632903290  1.25968434693469
 1  0.92229730103010 -2.24880417151715 -0.15562684778478
 1  2.57520026942694 -3.03213100030003 -0.40267451045104
 1  0.06393227812781  2.51385122482248 -0.46616360786079
 1 -0.36911980798080 -0.53089325912591 -0.37020767576758

