%nproc=4
%Mem=4GB
# td=(NStates=1) CAM-B3LYP/6-31G(d,p) 

TD

0 1
 8 -13.91688756395640 -2.13997237893789  0.79553980928093
 8  14.73915575237524  0.95280286688669  0.36132672857286
 6 -11.77000986058606  0.03579965486549  1.24621944194419
 6 -10.97254421692169  0.29440221122112 -0.11742803000300
 6 -11.89005448604861 -1.40614509890989  1.51826966826683
 6 -12.52470586408641 -2.16592765756576  0.42175632653265
 6 -11.66983227212721 -0.45485296359636 -1.24353984388439
 6  11.02453578417842  0.91202284478448  1.13524380408041
 6 -10.92353382658266  0.59643138193819  2.42112916361636
 6 -13.02643880628063  0.81103675057506  1.17954903170317
 6  12.43345052555255  1.48867829432943  0.92989037523752
 6 -12.34201518741874 -1.53303117091709 -0.95919868856886
 6  13.40610223112311  0.39226689928993  0.56700401930193
 6  10.62359183348335 -0.09951936213621  0.06101968706871
 6 -9.51800056395640 -0.06791964016402  0.01273128072807
 6  12.93345132273227 -0.11631885128513 -0.82375796209621
 6  11.56447953675367 -0.54562960826083 -0.90580563936394
 6  9.97343422902290  2.11998131013101  1.01455416881688
 6  10.78166899939994  0.34741391679168  2.64307486878688
 6 -11.33363786128613 -0.02088044654465 -2.67845010321032
 6 -8.52054815511551  0.88123310571057 -0.14220784328433
 6  9.27568249754976 -0.47503527932793  0.06447653145315
 6  11.23217316281628 -1.27225019181918 -2.22153175787579
 6 -7.12389371227123  0.65610285208521 -0.02932502180218
 6  8.75536199259926 -1.75541533903390 -0.12194733573357
 6 -6.54676609810981 -0.76954571147115  0.18505139373937
 6  7.38300678817882 -2.19357222922292 -0.20298136043604
 6 -6.18917869386939  1.59247282178218 -0.24222607920792
 6  7.01744493869387 -3.61673539573957 -0.03111289308931
 6  6.36462373137314 -1.29723001170117 -0.39464180658066
 6 -4.72785675937594  1.56170971017102 -0.32916382978298
 6  5.00219106500650 -1.61258910181018 -0.30795857605761
 6 -3.94527589999000  2.75247827402740 -0.62023321232123
 6 -2.53083352145214  2.67038499609961 -0.72983573137314
 6  3.94306827232723 -0.70399090519052 -0.45762527892789
 6  2.56235328392839 -0.81562603410341 -0.26461141374137
 6 -1.90407895809581  4.01751633423342 -1.20014916231623
 6 -1.80932801830183  1.45302804720472 -0.53656967336734
 6  1.74698324332433  0.29720128162816 -0.37470603250325
 6  2.12027534863486 -2.28094088138814  0.05683805170517
 6 -0.34955721462146  1.53740506180618 -0.48109146894689
 6  0.36390122092209  0.34001566936694 -0.38027128792879
 1 -11.09990673217322  1.51625341064106 -0.30917276247625
 1 -12.45266873997400 -1.45358537223722  2.40593848854886
 1 -10.76986465606561 -1.89805900090009  1.72700598319832
 1 -12.10636427002700 -3.19863897119712  0.45851071317132
 1 -10.00740614191419  0.05744742034203  2.73766239013901
 1 -10.46542670927093  1.70700377737774  2.31906662856286
 1 -11.55042263456346  0.72991641064106  3.34278845664566
 1 -13.70106130793079  0.41006700900090  0.38321479177918
 1 -13.39104487508751  0.60966257365737  2.13859786178618
 1 -12.87304598999900  1.83569719151915  1.33210369366937
 1  12.39736710341034  2.31179612911291  0.18974681788179
 1  12.83477790489049  1.78668270717072  2.00165776697670
 1 -12.98988246684669 -2.12443924042404 -1.78481267196720
 1  13.46389597439744 -0.37911765756576  1.34152448834883
 1 -9.15168753445345 -1.04366922592259  0.12660022002200
 1  13.56882202630263 -0.99010204950495 -0.87044220022002
 1  13.29656607410741  0.76303488138814 -1.55872579637964
 1  9.11533823142314  1.52383243504351  1.57032227962796
 1  9.74289615121512  2.52352495489549  0.10252716821682
 1  10.26804047734773  2.74930990269027  1.64645079607961
 1  11.44685752705271 -0.42675992459246  2.81538796019602
 1  9.90970594119412 -0.07839038003800  2.68366149424942
 1  11.02662356145614  1.13310110691069  3.46984192719272
 1 -10.24403690169017  0.16642655335534 -2.67447484318432
 1 -11.90650970727073  0.87501349984999 -2.92600966626663
 1 -11.50394823992399 -0.63443219451945 -3.45096285388539
 1 -14.44349762306231 -2.42439139173917 -0.02696089988999
 1  8.42527159515951  0.38336856205621  0.24272691889189
 1 -8.80010517941794  1.92811446424643 -0.41939726012601
 1  11.58697443194320 -2.34276577257726 -2.22467531903190
 1  10.14209707610761 -1.04419052075208 -2.40530646464646
 1  11.94960425412541 -0.71294438453845 -3.11908785688569
 1  14.99629881018102  1.50415851565156  1.17416538543854
 1  9.58432820912091 -2.48299138083808 -0.35688213071307
 1 -5.49560402140214 -0.94901205190519 -0.04717732093209
 1 -6.78996789488949 -1.24781675487549  1.10495274767477
 1 -6.83394963016302 -1.45616406460646 -0.46921513631363
 1 -6.43643593009301  2.56244503960396 -0.51363456515652
 1  6.73381693069307 -3.67297071967197  0.97923761946195
 1  6.19255660086009 -3.94069925772577 -0.56068565976598
 1  7.83530342774277 -4.38605479007901 -0.32311534423442
 1  6.77813624052405 -0.32462970237024 -0.58892101400140
 1 -4.19223145474547  0.55402506770677 -0.29607566516652
 1  4.66063966746675 -2.70260951395140 -0.15420308110811
 1 -4.48968501420142  3.54842282408241 -0.75935559105911
 1  4.28386846304630  0.26462380128013 -0.94652386978698
 1 -1.28157791599160  4.00531197789779 -2.13006127802780
 1 -1.31145398379838  4.23588074537454 -0.33172513231323
 1 -2.70212970107011  4.65353776927693 -1.22990128382838
 1 -2.26185506590659  0.67679430493049 -0.10854558455846
 1  2.39256829892989  1.12649663886389 -0.53457047214721
 1  2.55381390909091 -2.37404380678068  1.02182056055606
 1  1.05522059335934 -2.20827011811181 -0.23218450355035
 1  2.65132788218822 -2.91894968216822 -0.58863310631063
 1  0.21019690459046  2.41692153185319 -0.97946493799380
 1 -0.05574847084708 -0.50930109990999 -0.26603725872587

