%nproc=4
%Mem=4GB
# td=(NStates=1) CAM-B3LYP/6-31G(d,p) 

TD

0 1
 8 -14.21907778297830 -1.88524690639064  0.46551680698070
 8  14.66516835363536  1.03549113571357  0.20929152505251
 6 -11.80972383198320  0.19454552945295  1.29183400340034
 6 -11.02135909840984  0.37983075407541 -0.03758004520452
 6 -11.99403488408841 -1.32168665306531  1.47395523682368
 6 -12.74541793529353 -2.03050411521152  0.31222537343734
 6 -11.55372066096610 -0.34819229752975 -1.24023951385139
 6  11.07998132873287  0.97022866536654  1.11186146584658
 6 -11.06721819501950  0.63367510631063  2.49959701040104
 6 -13.10023618601860  0.96574222112211  1.17558863566357
 6  12.40815799629963  1.59677910441044  0.75128251445145
 6 -12.33617460336034 -1.45496336413641 -1.06483925262526
 6  13.37741936283628  0.51287896049605  0.41641896079608
 6  10.67716719101910  0.00464105390539  0.05873945904590
 6 -9.51319008290829 -0.02537538573857  0.05528553615362
 6  12.98432641024102  0.00350313091309 -0.91855744204420
 6  11.52159524832483 -0.42748779407941 -0.96568162696270
 6  10.16503338893889  2.21360067206721  1.23011572497250
 6  11.03390422292229  0.34359353475348  2.53507406870687
 6 -11.19907440494049  0.18884052555256 -2.55347760596060
 6 -8.41299740004001  0.78145312771277 -0.17315093759376
 6  9.28458338763876 -0.52209998579858  0.16284636843684
 6  11.11104104960496 -1.19651261806181 -2.17069667436744
 6 -7.04873619651965  0.37691493329333 -0.04325641494149
 6  8.83202965936594 -1.72155195269527 -0.11138627962796
 6 -6.60368178967897 -1.01278003490349  0.25301819041904
 6  7.46495498299830 -2.19156202820282 -0.10761182348235
 6 -6.09705948194819  1.40714428892889 -0.33647550415042
 6  7.26735993019302 -3.67334105630563  0.08227844604460
 6  6.38066533553355 -1.35884617331733 -0.24796713911391
 6 -4.74420839453945  1.31857539673967 -0.18548946234623
 6  5.01955280118012 -1.67189503240324 -0.16141392159216
 6 -3.95003637603760  2.37417044324432 -0.53144433343334
 6 -2.60403084118412  2.58165612321232 -0.65734848264826
 6  4.04442840834083 -0.74510501660166 -0.30955047144714
 6  2.63993104170417 -0.87258172967297 -0.28010296289629
 6 -1.99759831003100  3.88450303290329 -1.16386553395340
 6 -1.77179426492649  1.44277702210221 -0.35078109450945
 6  1.82541108610861  0.19973153465347 -0.65779434133413
 6  2.05748907000700 -2.30167295459546  0.00940330823082
 6 -0.35480773967397  1.38609993129313 -0.61730509030903
 6  0.42544737553755  0.26148781658166 -0.33085634643464
 1 -11.10485722722272  1.41052283758376 -0.19331117631763
 1 -12.72638611171117 -1.45989600330033  2.45257315201520
 1 -11.06400407000700 -1.83074226922692  1.55732901550155
 1 -12.41277491109111 -2.96871597889789  0.45496035813581
 1 -10.01291669296930  0.14768644424442  2.68687731163116
 1 -10.73116328292829  1.75363844084408  2.65047976987699
 1 -11.58583617591759  0.24688810781078  3.39352353015301
 1 -13.76350755255526  0.63523952625263  0.31788825912591
 1 -13.70084585518552  0.84461606900690  2.16540054205420
 1 -12.82081076647665  1.94935855765577  1.12356283958396
 1  12.50873824052405  2.21378632813281 -0.26086824362436
 1  12.92141656875688  2.10009404830483  1.60345794699470
 1 -12.72165564416442 -2.00932772927293 -2.06957114781478
 1  13.41454103890389 -0.07582732853285  1.15890622652265
 1 -9.16222858855886 -1.05330018901890  0.02388994899490
 1  13.72027717181718 -1.08675171447145 -1.24060921692169
 1  13.22061847934794  0.69754833273327 -1.78786871067107
 1  9.08365506310631  2.02656270807081  1.60303555095510
 1  10.02480434203420  2.65101770417042  0.23606052155216
 1  10.50733440674067  2.92951792349235  1.92496864786479
 1  11.68581142244224 -0.48544579317932  2.46764318571857
 1  10.08059302990299 -0.11979452045205  2.71083421152115
 1  11.12629352845284  1.02197999479948  3.42366730973097
 1 -10.15418791679168 -0.04630471977198 -2.98395579127913
 1 -11.55961501780178  1.33869986848685 -2.60271733703370
 1 -11.79975782088209 -0.22720147144714 -3.41621937953795
 1 -14.58535180848085 -2.15200415301530 -0.36856506030603
 1  8.48690775877588  0.13179340454045  0.73835648184818
 1 -8.56508167706771  1.84957661046105 -0.23605892629263
 1  11.11425716021602 -2.25605710171017 -2.18619147064707
 1  9.97809067546755 -1.27793389508951 -2.21979791379138
 1  11.64536383008301 -0.84698778887889 -3.07667361546155
 1  14.91489066936694  1.57758585838584  0.91185915481548
 1  9.61590136643664 -2.59127220892089 -0.55100154265427
 1 -5.51741620262026 -1.06878402910291  0.42707010381038
 1 -6.72131102920292 -1.44450642384238  1.31760401280128
 1 -7.04972120732073 -1.67185563376338 -0.36021423622362
 1 -6.55498778527853  2.32910170527053 -0.52757595929593
 1  7.10205375437544 -3.74115753835384  1.22721241694169
 1  6.31083842904290 -3.85936112391239 -0.27323691489149
 1  8.28239813721372 -4.19496568116812 -0.38919195189519
 1  6.40238866576658 -0.26793403280328 -0.58235035693569
 1 -4.20245247684768  0.34183384858486 -0.00636669426943
 1  4.65076868036804 -2.70021927492749 -0.10105776657666
 1 -4.55239128482848  3.21553953575358 -0.77442709820982
 1  4.14984506070607  0.33792113101310 -0.53215243264326
 1 -1.45015477367737  3.53913536023602 -2.20692896479648
 1 -1.28252109050905  4.39357651495150 -0.46430839063906
 1 -2.92057154525453  4.44897731323132 -1.45482377607761
 1 -2.29459834023402  0.73115974147415 -0.00639536953695
 1  2.41890093219322  1.22206619581958 -0.74719173427343
 1  2.10470899859986 -2.47112351475148  1.09336771527153
 1  0.99979505080508 -2.50630992209221 -0.36830811591159
 1  2.69799254865487 -3.14387217441744 -0.49637388038804
 1  0.21203708860886  2.25566540624062 -0.86612360386039
 1  0.09218632263226 -0.74653482328233 -0.07694834983498

