%nproc=4
%Mem=4GB
# td=(NStates=1) CAM-B3LYP/6-31G(d,p) 

TD

0 1
 8 -13.92886876207621 -2.17064544624462  0.51556181148115
 8  14.84790662746275  0.75066265286529 -0.06418582268227
 6 -11.67004986458646 -0.10199412451245  1.25190001000100
 6 -10.96208317081708  0.24477724872487 -0.00609689688969
 6 -11.79747522812281 -1.48723320772077  1.36151399269927
 6 -12.66197959145915 -2.13086415121512  0.15374952585259
 6 -11.58237352625263 -0.39183666196620 -1.22643813371337
 6  11.19489281988199  1.07095873837384  0.97960824052405
 6 -10.95191666486649  0.36708844764476  2.39841689238924
 6 -13.03516967936794  0.63591923882388  1.30544162096210
 6  12.59540672117212  1.54394382088209  0.61196858305831
 6 -12.39738072397240 -1.50958882668267 -1.10060282898290
 6  13.49302092299230  0.26931460406041  0.28248556745675
 6  10.62835230953095 -0.09281869206921 -0.00032644754475
 6 -9.42481124502450 -0.07031988018802 -0.06186617901790
 6  12.98107608520852 -0.41795901530153 -0.86970255655566
 6  11.49919300810081 -0.70864590989099 -0.91207626642664
 6  10.27683456905691  2.29733904590459  0.98510122352235
 6  11.21339217171717  0.32779195459546  2.32692325362536
 6 -11.39312380988099  0.26518816031603 -2.57689994819482
 6 -8.50092619291929  0.83182816521652 -0.27456107860786
 6  9.25851078037804 -0.44339211501150  0.10241032483248
 6  10.96305625112511 -1.62497546434643 -1.92849245394539
 6 -7.05147647054705  0.51303854565457 -0.24912700200020
 6  8.76880333673367 -1.69392919041904  0.03541840084008
 6 -6.61931335283528 -0.96797555445545  0.09010189878988
 6  7.32753124062406 -2.11704457645765  0.06991592929293
 6 -6.19320909690969  1.50591416591659 -0.46076793339334
 6  6.99752294649465 -3.59924364656466 -0.16612639443944
 6  6.39819708870887 -1.14894518321832  0.07483514111411
 6 -4.75390936463646  1.54168770797080 -0.43459437283728
 6  4.95864671057106 -1.40324816771677  0.05140736053605
 6 -4.05115648804880  2.63679670587059 -0.70318150715071
 6 -2.66975741384138  2.78863682128213 -0.64057680548055
 6  3.96012997849785 -0.48952945904590 -0.05675519191919
 6  2.55157220582058 -0.65371984348435  0.01440648804881
 6 -2.02808135833583  4.08886346894689 -0.94319346674667
 6 -1.80163724922492  1.67866061046105 -0.26599261566157
 6  1.67618616361636  0.41593315481548 -0.18757731963196
 6  2.01018433953395 -2.09916270357036  0.24837720562056
 6 -0.41138339723972  1.65327664896490 -0.40704406420642
 6  0.30246507730773  0.42452412021202 -0.13645690649065
 1 -11.11733847534753  1.14024580988099 -0.20138198339834
 1 -12.16363983708371 -2.05589560326033  2.37780567526753
 1 -10.82656032563256 -1.98845804080408  1.39031231383138
 1 -12.17631126472647 -3.18190729802980  0.09416427852785
 1 -9.92759816111611 -0.12923124752475  2.65217384128413
 1 -10.81356152275228  1.55941901890189  2.35277999989999
 1 -11.45620321262126  0.10130354935494  3.27249142694269
 1 -13.84320552235223  0.47313331563156  0.49485595589559
 1 -13.59323509410941  0.27024863226323  2.23949795179518
 1 -13.04921360676068  1.72652627442744  1.43502398569857
 1  12.62240960766077  2.18130307980798 -0.25635779257926
 1  12.96044047114711  2.18487252615262  1.30423802500250
 1 -12.93477695629563 -1.96263305980598 -2.09649384008401
 1  13.55765535033503 -0.53614336013601  1.19087942384238
 1 -8.99518188388839 -1.05598045704570 -0.22082452245224
 1  13.74645979007901 -1.33656669596960 -0.89189434543454
 1  13.15136155365537  0.17678625652565 -1.96694661846185
 1  9.22167886548655  2.08366841864186  1.20857610501050
 1  10.28236009760976  2.55847845024502 -0.14894797929793
 1  10.63764743804380  3.00894586628663  1.66626277727773
 1  11.95010785208521 -0.29498674727473  2.60294671607161
 1  10.02222719331933 -0.10215275627563  2.64516764486449
 1  11.47251815091509  1.24625242204220  3.07357230023002
 1 -10.16300879887989  0.40777068776878 -2.70271766746675
 1 -11.90548960526053  1.15268126662666 -2.74627169246925
 1 -11.58639648474847 -0.35759451075108 -3.50319807740774
 1 -14.45086836013602 -2.59529848244825 -0.26712491629163
 1  8.78639770777078  0.51220144534453  0.56621926812681
 1 -8.64301947084708  1.83781543434343 -0.37108242864286
 1  10.98592432693269 -2.77271876787679 -1.59338218971897
 1  9.97734060046005 -1.19687578927893 -2.42067800180018
 1  11.43598289198920 -1.44996808690869 -2.97502345044504
 1  15.30371955225523  1.10535863566357  0.84812278117812
 1  9.41083085938594 -2.51458454015402 -0.01286772927293
 1 -5.47431189218922 -0.87424457515752  0.08159555635564
 1 -7.37887678577858 -1.07411938513851  0.98103035543554
 1 -6.80962719791979 -1.55384383258326 -0.73497171197120
 1 -6.67276956345635  2.40629942504250 -0.52482568426843
 1  6.82250579957996 -4.26942036463646  0.89268896459646
 1  5.90242758795880 -3.66977216501650 -0.71946153735373
 1  7.76331622902290 -4.26885306990699 -0.67697072977298
 1  6.80005843274327 -0.14497173657366  0.12131000910091
 1 -4.26968920052005  0.64482414761476  0.06141008340834
 1  4.54700830433043 -2.46648590159016  0.00368270747075
 1 -4.54721076677668  3.64033201500150 -0.81498115361536
 1  4.25817589378938  0.44009134803480 -0.08988820622062
 1 -1.73714347254726  3.90085153185318 -1.96771504340434
 1 -1.38105094349435  4.38548570587059 -0.15203716351635
 1 -2.68655814391439  4.79432184768477 -1.04499279297930
 1 -2.34147302770277  0.71648827432743 -0.40532526252625
 1  2.06834587668767  1.40757474667467 -0.53460047514751
 1  2.63618214591459 -2.59790619301930  1.12412079057906
 1  0.99341441274127 -1.96105539663966  0.49896861176118
 1  2.01178392779278 -2.71936972417242 -0.53998824182418
 1 -0.01110522562256  2.54415425512551 -0.73018000950095
 1 -0.46434933093309 -0.41989215901590 -0.00497115211521

