%nproc=4
%Mem=4GB
# td=(NStates=1) CAM-B3LYP/6-31G(d,p) 

TD

0 1
 8 -14.16231210641064 -1.81575995769577  0.46095635093509
 8  14.85019685648565  0.94785237183718  0.14999559545955
 6 -11.79875273487349  0.11099717461746  1.30847566756676
 6 -10.96121308380838  0.39326209720972 -0.00368665586559
 6 -12.11216669726973 -1.33838832323232  1.51601944324432
 6 -12.74759815331533 -2.04694575937594  0.30537468836884
 6 -11.50473576247625 -0.40317779607961 -1.17231272117212
 6  11.22606593719372  0.99937157965797  1.15693597329733
 6 -10.99646111931193  0.63405514431443  2.46227327802780
 6 -13.10447661006101  0.93650929782978  1.23532460926093
 6  12.52827000750075  1.53877330383038  0.82973035923592
 6 -12.33448443434344 -1.53349121692169 -1.00265303400340
 6  13.51014263516352  0.51059873247325  0.31914923382338
 6  10.71117059135914  0.01131172097210  0.06230981608161
 6 -9.58142690659066 -0.07991083928393  0.14142415001500
 6  12.98456643424342 -0.10337755715572 -0.92336792309231
 6  11.51549463826383 -0.52788783408341 -0.89859491829183
 6  10.20767765336534  2.16679599159916  1.25611832523252
 6  11.10436126862686  0.22766194159416  2.49595015631563
 6 -11.08983348084809  0.14006564806481 -2.50397265546555
 6 -8.49288538883888  0.67622260466047 -0.17617123962396
 6  9.28326325562556 -0.41076885268527  0.08509859365937
 6  11.19184913041304 -1.28843180998100 -2.10725032973297
 6 -7.07437876077608  0.35714295609561 -0.15873796309631
 6  8.75490194659466 -1.61996179367937  0.00980583958396
 6 -6.75081650315032 -1.04235299219922  0.12430531913191
 6  7.47357584508451 -2.10701357335734 -0.08592965526553
 6 -6.24278405440544  1.40680425492549 -0.26233809040904
 6  7.12759595379538 -3.60863458565857  0.01419163736374
 6  6.38242551155115 -1.21644193289329 -0.22962530493049
 6 -4.86571054475448  1.38672221142114 -0.35023593699370
 6  4.93595444134413 -1.56597444034403 -0.19387716791679
 6 -4.00856222862286  2.49825285148515 -0.61185237423742
 6 -2.58127856595660  2.48732669026903 -0.77917066486649
 6  4.01640560606061 -0.55713621972197 -0.31940145654565
 6  2.62882993159316 -0.81273574507451 -0.26173112571257
 6 -1.82792134233423  3.80131471407141 -1.06577572497250
 6 -1.85455254075408  1.31628437283728 -0.56954297069707
 6  1.78059660466047  0.34942650415041 -0.30990955285529
 6  2.08029135023502 -2.11745453275328 -0.08061569366937
 6 -0.44300655955596  1.31220254155416 -0.53186654645465
 6  0.39074390519052  0.22254392219222 -0.33460672147215
 1 -10.95807254875488  1.49098088338834 -0.34211605680568
 1 -12.76817029012901 -1.50559057275728  2.42983087778778
 1 -11.22000967056706 -1.96894608960896  1.54258754135414
 1 -12.64744837843784 -3.21333044034403  0.33459832193219
 1 -10.02881828312831  0.29750142574257  2.45598422232223
 1 -10.65656582318232  1.63400647764776  2.38504322622262
 1 -11.46379397169717  0.41618503750375  3.46834101190119
 1 -13.60312151395139  0.65388139043904  0.42284875517552
 1 -13.99968573917392  1.14039564696470  1.93925792779278
 1 -12.77120580598060  1.99849347114711  0.86510699399940
 1  12.36029339603960  2.14698964846485 -0.01217337413741
 1  12.95083951105110  2.07706174507451  1.62186978817882
 1 -12.72770624922492 -1.97405420192019 -1.74062825352535
 1  13.50043962876288 -0.36133587938794  1.19063939983998
 1 -9.64418678437844 -1.13217807680768  0.54943250325033
 1  13.61850699479948 -0.94966800610061 -1.10298545454545
 1  13.17300371787179  0.46313489138914 -1.79796972077208
 1  9.31575827342734  1.74222427422742  1.60898614601460
 1  10.04718658025803  2.47671027342734  0.24339125462546
 1  10.44986866016602  2.93256822852285  1.94226037703770
 1  11.75568841014102 -0.56764401300130  2.56277269866987
 1  10.04178914951495 -0.01145368636864  2.65958908700870
 1  11.35771667076708  0.89172696949695  3.36925186818682
 1 -10.02659515751575  0.05514542524252 -2.65218261396140
 1 -11.23567262356236  1.34721071957196 -2.55429249454946
 1 -11.79499734483448 -0.13617236853685 -3.33650140774077
 1 -14.58658193149315 -2.09591854445445 -0.26385458925893
 1  8.55651471947195  0.38793901910191  0.41506415261526
 1 -8.73485865476548  1.69815146794679 -0.68832415281528
 1  11.77643337783778 -2.29388088408841 -2.13082593409341
 1  10.15310817721772 -1.40380648234824 -2.11416735073507
 1  11.55398469216922 -0.83375646574657 -2.95072102020202
 1  15.04541372167217  1.67520562036204  0.83777174607461
 1  9.49234901120112 -2.38089117081708 -0.41425786828683
 1 -5.67098155915592 -1.23913106380638 -0.17877048024802
 1 -6.98728762686269 -0.90323229642964  1.36382863526353
 1 -7.43190942614261 -1.61315976417642 -0.37559577437744
 1 -6.85350763726373  2.22149094419442 -0.34867806950695
 1  6.63561711071107 -4.07866128872887  1.03729342504250
 1  6.29081642684268 -3.94776996479648 -0.63302289348935
 1  8.08702860026003 -3.93670985558556 -0.04868790149015
 1  6.61204963186319 -0.17953519291929 -0.42643476537654
 1 -4.41571380298030  0.34448411361136 -0.11716777437744
 1  4.65598920242024 -2.55407466046605  0.07363970317032
 1 -4.50130617631763  3.44024200600060 -0.71079073457346
 1  4.16858693489349  0.44656199509951 -0.31476069346935
 1 -1.12971272947295  3.73078452515252 -1.95988426032603
 1 -1.47868070647065  4.23692084938494 -0.13370533033303
 1 -2.77716720482048  4.58128054355435 -1.23567186088609
 1 -2.14868374877488  0.41039766526653 -0.39982471247125
 1  2.13077211931193  1.33832782198220 -0.73893090819082
 1  2.13733226092609 -2.69848625102510  1.01786016451645
 1  0.89987505880588 -2.03362265336534 -0.39355064016402
 1  2.45401815121512 -2.90678846604660 -0.75345958895890
 1  0.12231811671167  2.28007784748475 -0.73925091659166
 1 -0.07069996599660 -0.72354252405241 -0.20981163616362

