%nproc=4
%Mem=4GB
# td=(NStates=1) CAM-B3LYP/6-31G(d,p) 

TD

0 1
 8 -14.23780965616562 -1.62211059275928  0.55746600190019
 8  14.76307814461446  1.10124771137114  0.47095769166917
 6 -11.73614647424743  0.13947002190219  1.36396121612161
 6 -10.93363032553255  0.35669844084408  0.11455516831683
 6 -12.12028750935093 -1.37519200360036  1.66471431273127
 6 -12.80382377587759 -1.96419748454845  0.39799395029503
 6 -11.61704699359936 -0.29934741304130 -1.02988847874788
 6  11.05062839343934  0.99370101260126  1.23356363606361
 6 -10.94517599079908  0.68142988178818  2.63705075577558
 6 -13.01014717711771  0.97419306620662  1.32524360116012
 6  12.44596177667767  1.52875230173017  1.04824221042104
 6 -12.38424941084108 -1.32174004180418 -0.87944071277128
 6  13.46650827172717  0.55825349794979  0.53146046494649
 6  10.64289376367637  0.03208379817982  0.10518410351035
 6 -9.44561332523252 -0.11607445564556  0.22273228082808
 6  13.03440141774177  0.06685946654665 -0.86557214351435
 6  11.56914000280028 -0.30724576987699 -0.88066312511251
 6  10.03873075867587  2.13802311431143  1.34267698109811
 6  10.86632746524652  0.18449762516252  2.56356691799180
 6 -11.40041453895390  0.26317795929593 -2.37015927412741
 6 -8.51354745504551  0.73960894329433 -0.04598822132213
 6  9.33164809410941 -0.42282005780578  0.15309539333933
 6  11.24357430293029 -1.22918588538854 -2.07703730843084
 6 -7.03628495139514  0.44179142094209 -0.09994208350835
 6  8.75455191159116 -1.59308910641064 -0.11113625462546
 6 -6.66371779327933 -0.98578733563356  0.10366325492549
 6  7.44342282978298 -2.12105497749775 -0.14464552685269
 6 -6.14812458845885  1.29753332783278 -0.43784564116412
 6  7.29388258245825 -3.59199292149215  0.02426264446445
 6  6.46015328432843 -1.26417670637064 -0.28073041544154
 6 -4.68121209490949  1.23167670687069 -0.55683659705971
 6  5.00206105200520 -1.57287513041304 -0.15985376557656
 6 -3.94417578997900  2.37492051825183 -0.75632682168217
 6 -2.57350778887889  2.51451940954095 -0.94120686848685
 6  4.05839980548055 -0.71324183028303 -0.50336985338534
 6  2.64263131173117 -0.90755522702270 -0.56780173277328
 6 -1.89075762596260  3.76989157175718 -1.09695884328433
 6 -1.81876896239624  1.23068581298130 -0.92385840224022
 6  1.75006355135514  0.18483004450445 -0.68564712661266
 6  2.21078439953995 -2.29847263456346 -0.24685231733173
 6 -0.41196345524552  1.19201052235224 -0.88124148394840
 6  0.39060389118912  0.06593826162616 -0.79177243804380
 1 -10.96892363386339  1.46672845814581 -0.11244308950895
 1 -12.71450492359236 -1.67883789748975  2.43786168086809
 1 -11.11987965756576 -1.93121231623162  1.65225850845085
 1 -12.68271190479048 -3.18161726902690  0.30822568466847
 1 -10.29913531483149 -0.25149347374737  2.95046367026703
 1 -10.36523669026903  1.50733381038104  2.41324604650465
 1 -11.81909950225022  0.70444386338634  3.48655283308331
 1 -13.70394159595959  0.82491849414941  0.38500497079708
 1 -13.86249201980198  0.53654526192619  2.03547754975498
 1 -13.01775046044604  2.01875549734974  1.51182166546655
 1  12.49203657035704  2.45704065356536  0.29439728292829
 1  12.60843527062706  1.88050208910891  2.01830943214321
 1 -12.65736921552155 -1.84337113361336 -1.68519270997100
 1  13.51850143494350 -0.42198194399440  1.37609794569457
 1 -9.17272963866387 -1.17005186418642  0.52391995199520
 1  13.91540668476848 -0.78876191549155 -1.06504166016602
 1  13.21143756125612  1.11622019991999 -1.42277220102010
 1  8.85042173977398  2.02839289108911  1.56361160856086
 1  10.20807266886689  2.84870747314731  0.43804071957196
 1  10.31309498279828  2.82146711841184  2.11631778277828
 1  11.57661050235024 -0.58361561016102  2.94363078447845
 1  9.79551452205220 -0.21591413241324  2.75888901700170
 1  11.26713761286129  0.82932072887289  3.54624956795680
 1 -10.38875137313731  0.20672058275828 -2.46384378007801
 1 -11.70420947724772  1.22134813331333 -2.35333239853985
 1 -11.79636748184818 -0.38080683198320 -3.04393215081508
 1 -14.77894116741674 -1.74952390499050 -0.27074527832783
 1  8.57190625862586  0.15719594479448  0.23498614481448
 1 -8.94862003090309  1.67797945074507 -0.35731105150515
 1  11.69380511501150 -2.23765526152615 -1.88050090159016
 1  10.17727059345935 -1.27791389308931 -2.14139007300730
 1  11.63754304800480 -0.75973906400640 -2.96130207830783
 1  15.02668184848485  1.38447654745475  1.32862083098310
 1  9.57112688898890 -2.46800988268827 -0.06820326282628
 1 -5.52776723772377 -1.23069021972197  0.23266066286629
 1 -6.92144104220422 -1.31634360756076  1.21779403180318
 1 -7.03323955915592 -1.67053550175017 -0.56629484428443
 1 -6.84642692919292  2.12378117321732 -0.62029523122312
 1  6.63605715471547 -3.90978440104010  0.86886658235824
 1  6.69600694589459 -4.08904409220922 -0.92943253445345
 1  8.27243714111411 -4.12304848944895  0.05713268056806
 1  6.78994742164216 -0.29646688608861 -0.68781090299030
 1 -4.26400863246325  0.40462012721272 -0.55186124372437
 1  4.72265586908691 -2.64085333833383  0.02713505270527
 1 -4.61771781748175  3.26931491329133 -0.74591424692469
 1  4.31843191939194  0.42142948184818 -0.73041225862586
 1 -1.04820457865787  3.60919236593659 -1.93388166006601
 1 -1.55313815221522  4.13531068836884 -0.07053901370137
 1 -2.54770425852585  4.69179159465947 -1.35494378807881
 1 -2.49263814421442  0.22058868436844 -0.76150088008801
 1  2.17620666276628  1.19954394359436 -0.44849186428643
 1  2.26632516021602 -2.51597800020002  0.85985436393639
 1  1.15857092839284 -2.41544083518352 -0.18621990709071
 1  2.79860260966097 -3.05328311551155 -0.74843908690869
 1  0.10548643354335  2.19489932963296 -1.17040403190319
 1 -0.22350524652465 -0.95105527532753 -0.83351400640064

