%nproc=4
%Mem=4GB
# td=(NStates=1) CAM-B3LYP/6-31G(d,p) 

TD

0 1
 8 -14.25670154535453 -1.71152953465346  0.58230848614861
 8  14.71168300510051  1.12478006460646 -0.02948235233523
 6 -11.77484034363436  0.18700477537754  1.25804062406241
 6 -11.04996195869587  0.39821259225923 -0.15870215741574
 6 -12.02856833743374 -1.33289777417742  1.42606044734473
 6 -12.78270166366637 -2.04160522532253  0.25277942884288
 6 -11.74660994989499 -0.39670714901490 -1.30391588148815
 6  11.13750708130813  1.04719636213621  1.06862714241424
 6 -10.79659113231323  0.67331907070707  2.41849890059006
 6 -13.07714387678768  1.07957360426043  1.29136021282128
 6  12.51710889138914  1.58083751025102  0.83411079727973
 6 -12.46503748964897 -1.45229309710971 -1.05960872957296
 6  13.51123274417442  0.55885355795580  0.25975329422942
 6  10.69459893419342  0.02059264906491 -0.03118953385339
 6 -9.62970173407341 -0.08343119131913 -0.15456544894489
 6  13.00855883348335  0.03490627122712 -1.02938852515252
 6  11.57711079987999 -0.47994303960396 -0.96258131693169
 6  10.13594047964797  2.23213252525253  1.14810752415242
 6  11.17960879337934  0.39665884128413  2.35109567086709
 6 -11.44966946444645  0.20287192869287 -2.69370162836284
 6 -8.59828592889289  0.77152213461346 -0.28255187768777
 6  9.31809673897390 -0.49344712051205  0.06915699949995
 6  11.15675562106211 -1.15786875367537 -2.14308391309131
 6 -7.18824014691469  0.42935017681768 -0.28973106240624
 6  8.94612106850685 -1.77217701520152 -0.14662980398040
 6 -6.89238065956596 -1.04723348024802 -0.02626973837384
 6  7.51432992049205 -2.24440731273127 -0.06680774307431
 6 -6.18822859885989  1.42656623112311 -0.40243209980998
 6  7.32969616381638 -3.72560628282828  0.27031724992499
 6  6.44525179417942 -1.32933322202220 -0.07902024442444
 6 -4.82428640234023  1.30989452865287 -0.32963387678768
 6  5.15000584648465 -1.59296713961396 -0.16888466866687
 6 -3.94877625002500  2.33974700090009 -0.54174536353635
 6 -2.51660209830983  2.39366732433243 -0.45936868466847
 6  4.10142410791079 -0.67645815191519 -0.24198371477148
 6  2.67425447404740 -0.95534000550055 -0.13515846844684
 6 -1.88204675487549  3.72691727432743 -0.75062420982098
 6 -1.75654273977398  1.30281302570257 -0.28910492689269
 6  1.87048559355936  0.17262882438244 -0.23179174107411
 6  2.13467678877888 -2.24666745404540  0.16891925982598
 6 -0.38114037293729  1.39807112841284 -0.38253161296130
 6  0.41210604140414  0.25975764356436 -0.10212347314731
 1 -11.04169091059106  1.43183496879688 -0.37939978517852
 1 -12.53886735983598 -1.48317833153315  2.37941583628363
 1 -11.12465013461346 -1.92084127912791  1.36239952255225
 1 -12.77116074967497 -3.00639974727473  0.33714857695770
 1 -9.99799520082008 -0.19650797519752  2.47027565146515
 1 -10.50310047664767  1.70959403640364  2.33208793069307
 1 -11.45967355965597  0.31488490749075  3.30244442224222
 1 -13.88159936173617  0.75996199849985  0.57797426772677
 1 -13.43296906750675  0.93436504390439  2.37368137013701
 1 -12.70546923232323  2.18132175397540  1.21486196949695
 1  12.33394076077608  2.35269021852185  0.10561840504050
 1  12.99342376947695  2.01459549844985  1.63038063926393
 1 -12.70880435903590 -2.08616541304130 -1.76688087878788
 1  13.68776836163616 -0.14676442224223  1.02525286118612
 1 -9.37594996069607 -1.08358321732173 -0.04339677967797
 1  13.69969511361136 -0.80516355565557 -1.47230238623862
 1  13.03726014351435  1.15107368526853 -1.65404532833283
 1  9.12112881048105  1.98250830263026  1.62195744314431
 1  9.94978684028403  2.92275487788779  0.38749566506651
 1  10.54714838813881  2.88919389108911  1.93065921692169
 1  11.76273911521152 -0.46048329692969  2.69921634303430
 1  10.15949091969197 -0.24319686068607  2.52149527762776
 1  11.19500039913991  1.11982977977798  3.18835377837784
 1 -10.47045954395440  0.07109702040204 -3.08874627032703
 1 -11.66979603590359  1.28667466596660 -2.78364542984298
 1 -12.18809665476548 -0.53525227652765 -3.43607136473647
 1 -14.92499577287729 -1.81490044264426 -0.16079428322832
 1  8.64888395639564  0.17412763796380  0.57454010021002
 1 -8.60835600450045  1.86630828362836 -0.36288160856086
 1  11.56657239173918 -2.15508700470047 -2.07860071157116
 1  9.92167503390339 -1.42479858155816 -2.28888482248225
 1  11.42225151885189 -0.74020711081108 -3.16339228732873
 1  15.18149733003300  1.35320342014201  0.85732370127013
 1  9.80240001630163 -2.56075915761576 -0.19153559605961
 1 -5.89271373237324 -1.24337148784879  0.04677207400740
 1 -7.37476637473747 -1.45192716591659  0.97875012741274
 1 -7.20850708590859 -1.69826827502750 -0.77793600840084
 1 -6.71060334683468  2.36522531763176 -0.62750595229523
 1  6.39971352035203 -3.91882530513051  1.15414511021102
 1  6.77409475467547 -4.20692588038804 -0.56030562176218
 1  8.25290518791879 -4.34398058265827  0.55948291559156
 1  6.83569199609961 -0.19721696109611 -0.36992911481148
 1 -4.44664689628963  0.16368603380338 -0.03478953655366
 1  4.81292489598960 -2.66589584258426  0.06660900010001
 1 -4.41371741744174  3.31919990179018 -0.71129078457846
 1  4.26121619781978  0.36371371027103 -0.42771198859886
 1 -1.46732649084909  3.88174962166217 -1.90744901680168
 1 -0.99385222362236  3.94454161146115 -0.20995295509551
 1 -2.71819130723072  4.63606602210221 -0.75422371607161
 1 -2.23488236863686  0.30389701520152 -0.32862759275928
 1  2.29534857695770  1.22989697889789 -0.41464847994799
 1  1.84311283898390 -2.42082848524853  1.48868724722472
 1  0.95736080738074 -2.31235052615261 -0.48341962706271
 1  2.90871362076208 -3.28803659085909 -0.18057230023002
 1  0.04906079097910  2.30109994969497 -0.68825581708171
 1 -0.06791968796880 -0.71365153495350  0.05948529352935

