%nproc=4
%Mem=4GB
# td=(NStates=1) CAM-B3LYP/6-31G(d,p) 

TD

0 1
 8 -14.17427330253025 -1.79530791249125  0.61080133543354
 8  14.90900273707371  0.94270185678568  0.10374096999700
 6 -11.75151801140114 -0.01484540964096  1.27236205620562
 6 -10.93853081558156  0.30603337433743 -0.05771205840584
 6 -11.90553603420342 -1.42257674207421  1.39297713901390
 6 -12.71598499199920 -2.11043210801080  0.35172932383238
 6 -11.68612390129013 -0.43473095139514 -1.21278676857686
 6  11.10225355595559  0.92851449394939  1.11872215191519
 6 -10.94563603680368  0.57177891669167  2.51028807950795
 6 -13.05299146154615  0.91588723562356  1.25718679547955
 6  12.66561374187419  1.44418384488449  0.95988337453745
 6 -12.49807079297930 -1.51311917971797 -1.03611638033803
 6  13.62729435033503  0.36568424102410  0.45095241414141
 6  10.72172164646465  0.01777236703670  0.05782936803680
 6 -9.54768353225323 -0.11399424762476  0.00883089068907
 6  12.99292727032703 -0.23126034543454 -0.90636622292229
 6  11.57268035683568 -0.46289133443344 -0.86063112191219
 6  10.37164405000500  2.17593690569057  1.12142485588559
 6  11.05496632913291  0.24429360476048  2.43850441174117
 6 -11.41249574707471  0.20022166366637 -2.45441769997000
 6 -8.51740784108411  0.63774875727573 -0.31531515401540
 6  9.23907883718372 -0.38809658545855  0.02176226002600
 6  11.14851479697970 -1.22278524532453 -2.12268187288729
 6 -7.04691601450145  0.40837807960796 -0.30036212551255
 6  8.76465292169217 -1.63008280578058 -0.18659380038004
 6 -6.57746916841684 -1.05945470237024  0.11659454805481
 6  7.39220770827083 -2.05647851985199 -0.16555761806181
 6 -6.26462623862386  1.47569114361436 -0.55057691429143
 6  7.07853104730473 -3.52583630583058  0.10233045124512
 6  6.37287455645565 -1.18336862556256 -0.22727506990699
 6 -4.85861983568357  1.42621616081608 -0.50130104350435
 6  4.95288613451345 -1.48700654355436 -0.16514429462946
 6 -4.04429580198020  2.55241826802680 -0.63371456045605
 6 -2.62545298339834  2.58763672127213 -0.74260700850085
 6  4.02196616211621 -0.59657016311631 -0.27522703910391
 6  2.54813186178618 -0.77944241574157 -0.16385133773377
 6 -1.81869041924192  3.89631421402140 -0.92350149754975
 6 -1.86027311281128  1.44833757815782 -0.41860787718772
 6  1.73418196319632  0.29164072557256 -0.34359292119212
 6  1.97900122122212 -2.19103189048905  0.26121848974897
 6 -0.44492675157516  1.44933625492549 -0.45488884868487
 6  0.35253008380838  0.27301896969697 -0.22760602140214
 1 -11.12103884538454  1.38195998129813 -0.10923276847685
 1 -12.45983945704570 -1.80735074877488  2.39572746744674
 1 -10.70462813241324 -1.80118931393139  1.52823610621062
 1 -12.57192082568257 -3.21391049834983  0.27144200630063
 1 -9.94294969626963  0.07593926952695  2.85578420232023
 1 -10.86073624022402  1.68220129712971  2.33210793269327
 1 -11.67568516081608  0.83804722372237  3.33544772257226
 1 -13.77716891869187  0.54760076237624  0.59246571687169
 1 -13.50094586518652  0.59618122552255  2.21800580258026
 1 -13.02018070347034  2.03265688748875  1.18403888718872
 1  12.59615698239824  2.14180913041304  0.05078292149215
 1  13.03834826192619  1.81292533143314  1.81865946714671
 1 -13.05262874147415 -1.91855865236524 -1.76474066476648
 1  13.61377096189619 -0.24750449624962  1.24461479737974
 1 -9.36372873857386 -1.30332519151915  0.09799735973597
 1  13.65471061516152 -1.00681372067207 -1.15805096109611
 1  13.33672008950895  0.53651222912291 -1.65138506230623
 1  9.37262395999600  2.12012206400640  1.54391963936394
 1  10.15592745434543  2.55808841124112  0.07649456495650
 1  10.96584025732573  2.76755172687269  1.76672282328233
 1  11.78146098739874 -0.48467571617162  2.66001242264226
 1  10.04762973357336 -0.21666420742074  2.38597172527253
 1  11.26900779987999  1.13042083888389  3.20117506050605
 1 -10.34888738673867  0.55204511521152 -2.47717511321132
 1 -11.95487454375438  1.07258325682568 -2.51614868016802
 1 -11.76407425252525 -0.22327107840784 -3.44485224282428
 1 -14.67840111341134 -2.34940389298930 -0.09605780958096
 1  8.70108917691769  0.41514173937394  0.23601624782478
 1 -8.79925509440944  1.65582723552355 -0.57313263366337
 1  11.59122485698570 -2.24099559555956 -2.01073392489249
 1  10.00386325272527 -1.48279438113811 -2.20154608860886
 1  11.61742103580358 -0.90012310241024 -3.09158510661066
 1  15.27582676297630  1.33734183398340  0.96300426932693
 1  9.60350012631263 -2.23253633533353 -0.29452589508951
 1 -5.47641210221022 -0.92515966666667 -0.08195079827983
 1 -6.52434133223322 -1.17862983618362  1.20904315671567
 1 -7.08885512071207 -1.89844829302930 -0.41474968976898
 1 -6.94115640214021  2.35147394249425 -0.71213441514151
 1  6.61386493549355 -3.73648707130713  1.08577827352735
 1  6.57503484868487 -3.93202839063906 -0.78040763196320
 1  8.05976587398740 -4.18695488008801  0.14013098039804
 1  6.64793322022202 -0.27737497689769 -0.29568169006901
 1 -4.41197342894289  0.41143080828083 -0.40889694729473
 1  4.57485108860886 -2.40323957695770  0.06666900610061
 1 -4.71073711941194  3.43194117591759 -0.91294094959496
 1  4.33760383658366  0.38549588848885 -0.60322954035404
 1 -1.35700545874588  3.86515796249625 -1.84611288318832
 1 -1.05899873827383  3.83665082238224 -0.16366832663266
 1 -2.35069455755576  4.85192760826083 -0.85902419611961
 1 -2.31955083548355  0.48824545004500 -0.15737046704670
 1  2.15899494159416  1.13710769997000 -0.70018703380338
 1  2.36498502620262 -2.51147755015502  1.20367874637464
 1  0.88358342964296 -2.11342063316332  0.09504821972197
 1  2.44121687108711 -2.96697448464846 -0.41571581458146
 1  0.20189607450745  2.35399523922392 -0.65079207070707
 1 -0.18718161416142 -0.62750292009201 -0.09759041404140

