%nproc=4
%Mem=4GB
# td=(NStates=1) CAM-B3LYP/6-31G(d,p) 

TD

0 1
 8 -14.10103597879788 -2.05005338703870  0.26450670597060
 8  14.91276311311131  0.58878646524652  0.16645724162416
 6 -11.99378223782378  0.17185326022602  1.15524034403440
 6 -11.08977594009401  0.27771054205421 -0.13127941514151
 6 -11.98174365496550 -1.39527401180118  1.36309415071507
 6 -12.71158455195520 -2.27030809560956  0.23345749664966
 6 -11.47888317721772 -0.51945942424242 -1.24413990389039
 6  11.20345367596760  1.04837648014801  0.97755803550355
 6 -11.21698317151715  0.53567530633063  2.37397444814481
 6 -13.27341350375037  0.79359500640064  1.01795287208721
 6  12.67154433493349  1.34303372987299  0.74158154435444
 6 -12.15402638853885 -1.66401426922692 -1.14286705540554
 6  13.60503212411241  0.15203287588759  0.41748906780678
 6  10.77936741104110 -0.00840025022502 -0.11989840474047
 6 -9.63243200710071 -0.10499334753475  0.02124213181318
 6  13.17280525812581 -0.42197941734173 -1.02483807010701
 6  11.63973706250625 -0.70261530683068 -1.00375543434343
 6  10.38662554815482  2.29613892589259  0.86435914931493
 6  11.06310714321432  0.43926310171017  2.27867842914291
 6 -11.19882437993799 -0.01414977347735 -2.73764602280228
 6 -8.54130023032303  0.79338432083208  0.06319269676968
 6  9.37212214151415 -0.45115289108911 -0.11779169536954
 6  11.25368531403140 -1.56843981078108 -2.14943454815482
 6 -7.16914823772377  0.49157639943994  0.05985389608961
 6  8.77689414581458 -1.64042383988399 -0.09415455645565
 6 -6.72349377087709 -0.87641639853985  0.51024391299130
 6  7.35907439493949 -2.04048692069207 -0.14632569486949
 6 -6.26552632863286  1.48024159865987 -0.20159201580158
 6  7.07895108930893 -3.50133385558556  0.16054627282728
 6  6.36778404740474 -1.07250753945395 -0.08337067946795
 6 -4.86326029972997  1.45370891009101 -0.26216713011301
 6  4.98617946384638 -1.38156599949995  0.07080930073007
 6 -4.07451882428243  2.63696672287229 -0.34170535953595
 6 -2.71267170527053  2.55508346594659 -0.49152189999000
 6  4.05926989248925 -0.41625213131313 -0.13742325872587
 6  2.57186423502350 -0.57082155365537 -0.10898585118512
 6 -2.14359290949095  3.85932051465147 -0.89743889128913
 6 -1.80694778027803  1.53944668906891 -0.36649266566657
 6  1.77835638063806  0.48241980348035 -0.22532109400940
 6  2.09742306340634 -2.07342012931293 -0.00462809490949
 6 -0.42266452535254  1.62929425072507 -0.30226358615862
 6  0.41782661346135  0.57523919171917 -0.17709096989699
 1 -11.07077381888189  1.28946073137314 -0.50968281348135
 1 -12.67162063516352 -1.64783479717972  2.18918681338134
 1 -11.09866753635364 -1.91559075407541  1.40431371397140
 1 -12.58298193179318 -3.35786489378938  0.26188105020502
 1 -10.26983238453845 -0.02961128552855  2.54317294119412
 1 -10.92081224782478  1.66829990699070  2.28679340124012
 1 -12.16890448274827  0.33209662866287  3.09723390119012
 1 -13.90972217401740  0.57606360866087  0.11672814311431
 1 -13.92399817041704  0.51495310271027  1.78525252725272
 1 -13.25966465186518  1.91925554735474  1.16058654195420
 1  12.92887025372537  1.84522947244724 -0.27937009380938
 1  13.10081450855085  1.91547558645865  1.69764736593659
 1 -12.36083956255626 -2.41971876837684 -2.04180837153715
 1  13.64681426622662 -0.71596134193419  1.23249358525853
 1 -9.42600496619662 -1.10676553555356  0.25761332133213
 1  13.77738288238824 -1.29399243854385 -1.23052820882088
 1  13.31858827632763  0.30602918081808 -1.66506643044304
 1  9.38528522612261  2.38862891469147  1.44262951035103
 1  10.14076593819382  2.65448805120512 -0.16350943544354
 1  10.84202787608761  3.35682065376538  1.06122227322732
 1  11.66620946224623 -0.56481372997300  2.27383380478048
 1  10.06571154175417  0.18898635763576  2.49174230233023
 1  11.35388628772877  1.21356915371537  2.96368131113111
 1 -10.07072957095710 -0.01142123142314 -2.85127252295230
 1 -11.66349540584059  0.96021201970197 -2.97820488578858
 1 -11.55461330643064 -0.54611336263626 -3.74669242684268
 1 -14.46998027132713 -2.53432238483848 -0.56023422722272
 1  8.66649571757176  0.45151537673767 -0.06976433023302
 1 -8.63465863476348  1.81803345614561 -0.45501082148215
 1  11.56984271877188 -2.64320581658166 -1.96461931343134
 1  10.14609747614761 -1.40515661736174 -2.41013694769477
 1  11.71323061676168 -1.40993408350835 -3.01634758285829
 1  15.21501068136814  1.10186828662866  1.02907087598760
 1  9.42354213051305 -2.39907298899890 -0.23354979747975
 1 -5.72210667166717 -0.78736588728873  0.85138253505351
 1 -7.30400929902990 -1.03349532273227  1.52257450985099
 1 -6.99248548374837 -1.62770121832183 -0.16270448524853
 1 -6.61142342884289  2.42214100920092 -0.39443264496450
 1  6.50117366636664 -3.49204262686269  1.04086378207821
 1  6.45737308250825 -3.99029421722172 -0.61051064226423
 1  8.00004990239024 -4.04273045764576  0.13594056135614
 1  6.60812923982398 -0.04445168456846 -0.05897801970197
 1 -4.43238547014701  0.48262792799280 -0.12688874647465
 1  4.40962456595660 -2.47703695669567 -0.06921458225823
 1 -4.61523756945695  3.65262324412441 -0.49922957845785
 1  4.56539661586159  0.73654099299930 -0.05497471487149
 1 -1.72894265246525  3.78662010871087 -1.99145741764176
 1 -1.21987482588259  4.21567872517252 -0.28482044184418
 1 -2.88279776787679  4.68543095859586 -0.81515980968097
 1 -2.30877975837584  0.56898352385239  0.08176344634464
 1  2.28242728482848  1.31348533773377 -0.49451646674667
 1  2.97488601630163 -2.55041144354436  0.78696707520752
 1  0.89487455875588 -1.99645893699370  0.52044075897590
 1  1.95972872227223 -2.65853364056406 -1.03136737973797
 1 -0.05531964706471  2.59514935463546 -0.60707769926993
 1 -0.12946584258426 -0.52906307610761 -0.37218787378738

