%nproc=4
%Mem=4GB
# td=(NStates=1) CAM-B3LYP/6-31G(d,p) 

TD

0 1
 8 -14.26288216341634 -1.89072745444544  0.44503475877588
 8  14.88294013081308  0.85940352695270 -0.07094649874987
 6 -11.85338819841984  0.15542161706171  1.22412723272327
 6 -11.08598556105611  0.39111188218822 -0.10038632583258
 6 -12.11153663426343 -1.43922840724072  1.41547938923892
 6 -12.84385777927793 -1.98668973377338  0.17647179807981
 6 -11.66393168206821 -0.36055353365337 -1.32453794369437
 6  11.21055438603860  1.10257189968997  1.02038231793179
 6 -11.08344981818182  0.63247498629863  2.45465251595160
 6 -13.12993915631563  0.99943559045905  1.14442551935194
 6  12.67252443294329  1.54485391189119  0.77525491169117
 6 -12.40922190809081 -1.46592446024602 -1.13312608130813
 6  13.52502412331233  0.40761843444344  0.26799411831183
 6  10.71569104340434  0.16222681248125 -0.10325674057406
 6 -9.62612137603760 -0.08567141534153 -0.11673166556656
 6  13.03498147574757 -0.17711493089309 -1.05523110941094
 6  11.57415050385038 -0.54733977927793 -0.94709976877688
 6  10.34503138873887  2.29469878187819  1.05341805520552
 6  11.07632846534653  0.42566174157416  2.39071963326333
 6 -11.30459495699570  0.22686432793279 -2.71420367856786
 6 -8.59115521582158  0.78490347274727 -0.20025364786479
 6  9.37502243154315 -0.31892966876688 -0.00098001420142
 6  11.10032997849785 -1.45194816161616 -2.05451505620562
 6 -7.13580490339034  0.38456569836984 -0.12122421172117
 6  8.77117357375738 -1.57902770027003 -0.15529067006701
 6 -6.79975139663966 -1.05964472137214  0.16129901850185
 6  7.52084057155716 -2.06728960096010  0.05537447514751
 6 -6.27016679267927  1.37251082558256 -0.24157601420142
 6  7.26257945214521 -3.52984670687069 -0.04298408020802
 6  6.42170943994399 -1.24027431613161  0.01516917451745
 6 -4.83778775247525  1.30851439063906 -0.27077799119912
 6  5.08398924482448 -1.58525636853685 -0.01343912411241
 6 -3.99244061646165  2.41201422762276 -0.47494868386839
 6 -2.60706114421442  2.44511246884688 -0.55486823462346
 6  4.08362232773277 -0.55313581968197 -0.07880739713971
 6  2.68471552015202 -0.85093956545655 -0.02515746834683
 6 -1.92999154935494  3.83332791539154 -0.73711285868587
 6 -1.82328941444144  1.35812855725573 -0.44624064046405
 6  1.78974751975197  0.17794935643564 -0.07641620352035
 6  2.26490981208121 -2.30077286458646  0.12914528242824
 6 -0.41362362126213  1.28286960826083 -0.45247860766077
 6  0.38720355115512  0.13955562336234 -0.17233049384938
 1 -11.00848759025902  1.53049483478348 -0.30615246044604
 1 -12.84196766986699 -1.42364237793779  2.24610250495049
 1 -11.16502417201720 -2.00490968596860  1.71202448504851
 1 -12.79436306990699 -3.04521362866287  0.31663652575258
 1 -10.10576597789779  0.27214889048905  2.61237986188619
 1 -10.77028719531953  1.79292236923692  2.44091881378138
 1 -11.51147874017402  0.69291271027103  3.49758393619362
 1 -13.75451665346535  0.87092309460946  0.24187065736574
 1 -13.64444021462146  0.84643625102510  2.15747974997500
 1 -12.85350403580358  1.96022964476448  1.05911639493949
 1  12.43025039173917  2.33085803530353 -0.01401355815582
 1  13.13082750985098  2.16203024192419  1.56178377957796
 1 -12.48366184478448 -2.09174597109711 -1.99939413011301
 1  13.52181176597660 -0.43479322512251  1.06010634653465
 1 -9.47108947464747 -1.04727958695870  0.24545210521052
 1  13.45681082518252 -0.99146218551855 -1.42840799679968
 1  13.29611602910291  0.57793637153715 -1.88963888768877
 1  9.20305700330033  2.16439649144914  1.60086533393339
 1  10.36344820642064  3.11547414981498  0.16398331383138
 1  10.87816148944894  2.99396436813681  1.75261141214121
 1  11.64021686298630 -0.57628487708771  2.33039946134613
 1  9.92664763536354  0.22409986898690  2.61945507360736
 1  11.40826172527253  0.85404320112011  3.21294623762376
 1 -10.27832033003300  0.04430434113411 -2.86229362506251
 1 -11.68722777907791  1.27320331883188 -2.86127319261926
 1 -11.78024586968697 -0.52887163846385 -3.49443720132013
 1 -14.75322859615962 -2.04968392099210 -0.33491169496950
 1  8.62064113211321  0.52802302750275  0.06798944514451
 1 -8.59218438733873  1.84810646344634 -0.57892321272127
 1  11.37301303580358 -2.59078057405741 -1.99693254475448
 1  9.94258712511251 -1.08125422712271 -2.03926986098610
 1  11.60297959165917 -1.13486657675768 -2.83931988008801
 1  15.35420460076008  1.10220832063206  0.83893186208621
 1  9.61985176147615 -2.19971305300530 -0.23091953445345
 1 -5.73256771777178 -1.22339949064906 -0.17198980218022
 1 -6.91173007110711 -1.29294126732673  1.27597985038504
 1 -7.47698393359336 -1.79232768096810 -0.38765698049805
 1 -6.56704899139914  2.51258005310531 -0.45067826952695
 1  7.10326387538754 -3.96434985758576  0.94998469416942
 1  6.39880722592259 -3.85496068386839 -0.63686327752775
 1  8.13014291169117 -4.10185637023702 -0.41817485018502
 1  6.54401282818282 -0.07253449284929  0.21211909000900
 1 -4.21222345394539  0.32640230543054 -0.01570762836284
 1  4.70179378287829 -2.43851310431043  0.26841918111811
 1 -4.70652669836984  3.18836681848185 -0.81393104860486
 1  4.40253032923292  0.47049438833883 -0.15099431683168
 1 -1.30071983018302  3.58605005170517 -1.71912018391839
 1 -1.19903274167417  4.04631178847885 -0.03745570537054
 1 -2.64184367246725  4.57292970847085 -0.99944823852385
 1 -2.40270915131513  0.45373199869987 -0.21165589558956
 1  2.34482352445245  1.11398538773877 -0.35630264536454
 1  2.69452798049805 -2.56652305470547  1.24410278877888
 1  1.10198526982698 -2.38694798589859 -0.03763504860486
 1  2.70743349274927 -2.99792757995800 -0.61267551055106
 1  0.21093697859786  2.13929376907691 -0.65572256375638
 1 -0.21901479747975 -0.73713388318832 -0.09853050805081

