%nproc=4
%Mem=4GB
# td=(NStates=1) CAM-B3LYP/6-31G(d,p) 

TD

0 1
 8 -14.06141201640164 -1.92778115981598  0.33497375267527
 8  14.74479631643164  1.14460204680468 -0.08896830093009
 6 -11.82842570217022  0.06650272517252  1.24449926992699
 6 -11.01805876837684  0.34315708670867 -0.05170145734573
 6 -12.07821330193019 -1.38724320872087  1.42005984728473
 6 -12.65405879937994 -2.10962202700270  0.23302745364536
 6 -11.49462475137514 -0.43087056535654 -1.22152764266427
 6  11.07330066066607  0.85351699419942  1.09330961066107
 6 -11.14663613681368  0.65245698449845  2.47993504420442
 6 -13.22864902730273  0.88005365226523  1.07413849064906
 6  12.46854403490349  1.58926835333533  0.80256764296430
 6 -12.20520150605061 -1.58234610241024 -1.10410317901790
 6  13.45974759565957  0.58701637423742  0.33549086798680
 6  10.62632210651065 -0.10078948914891 -0.01560797569757
 6 -9.51786054995500  0.01030818261826  0.12750275787579
 6  12.95223320092009 -0.07198441784178 -0.90093567986799
 6  11.46542963176318 -0.44694974027403 -0.99487454625463
 6  10.12647953355336  2.09508882088209  1.28253096649665
 6  11.12695352785279  0.13205238063806  2.42340290159016
 6 -11.10011450895090  0.03099474097410 -2.57244950315032
 6 -8.53449955025503  0.89961494389439 -0.06216983948395
 6  9.30970589988999 -0.51098887468747  0.10095017881788
 6  11.10349029452945 -1.31103407020702 -2.20280988568857
 6 -7.08944026692669  0.59749699149915 -0.00580266956696
 6  8.92402885928593 -1.78649844734473 -0.18963410441044
 6 -6.72840426192619 -0.91292004890489  0.38620150875087
 6  7.41676016351635 -2.19633250525052 -0.04849591189119
 6 -6.18402817881788  1.52993656815682 -0.28108996559656
 6  7.18371156535654 -3.60014373657366  0.27641785998600
 6  6.41435870487049 -1.25425571427143 -0.19916225862586
 6 -4.80137411111111  1.46056959615962 -0.29247016041604
 6  5.04209505540554 -1.54369221212121  0.03744596439644
 6 -3.95984735713571  2.53879690589059 -0.56463765276528
 6 -2.61078151625162  2.65484344194419 -0.66441918971897
 6  4.04559852535253 -0.77413791989199 -0.22733224962496
 6  2.60645769436944 -0.84966943844384 -0.18214316691669
 6 -1.98628717891789  3.91589617221722 -1.01115026242624
 6 -1.78353543904390  1.48527127152715 -0.49259527592759
 6  1.79328787378738  0.24992655415542 -0.49028759065907
 6  2.07908122922292 -2.18360114741474  0.19442181008101
 6 -0.40741300020002  1.40584190549055 -0.56392975277528
 6  0.44481931273127  0.24995666346635 -0.43441670247025
 1 -10.99974671617162  1.31501328662866 -0.40923276847685
 1 -12.61119459255926 -1.63635364906491  2.42287018171817
 1 -11.04532220182018 -1.94299349434944  1.30839412201220
 1 -12.57600123372337 -3.25269437673767  0.43475833793379
 1 -10.15751115241524  0.17493916951695  2.29208783268327
 1 -10.89508967556756  1.74661773877388  2.40270499239924
 1 -11.57911550385039  0.39133255225523  3.44371854965496
 1 -13.59865106690669  0.49345534783478  0.13599006930693
 1 -13.67610338093809  0.64203581098110  1.92380638263826
 1 -13.05965465086509  1.95223884568457  0.92615309860986
 1  12.38716608330833  2.24707965746575 -0.05399755655566
 1  12.83096752385238  2.18292233113311  1.85454305550555
 1 -12.53762724132413 -2.04733152965296 -2.01919611031103
 1  13.73402298709871 -0.21826157195720  1.08190852675268
 1 -9.30146251195120 -1.00968582758276  0.36404396439644
 1  13.57630277437744 -0.82510554985499 -1.09898505450545
 1  13.21795821332133  0.67319589748975 -1.81936185998600
 1  9.38082478007801  1.78073812561256  1.85154040144014
 1  9.80199206080608  2.63130573297330  0.35123203870387
 1  10.66357003030303  2.75277024872487  1.96367251825183
 1  11.80613345464547 -0.83711095969597  2.37933435483548
 1  10.24861983258326 -0.46700924192419  2.64403753185319
 1  11.54882578167817  0.78304610141014  3.10279522252225
 1 -10.06686918491849  0.07973788448845 -2.64336173187319
 1 -11.71652070837084  1.02466846534653 -2.74149121442144
 1 -11.31909975507551 -0.64425317661766 -3.38769652725273
 1 -14.48402167546755 -2.22481143374337 -0.57617582138214
 1  8.58153722172217  0.09833005820582  0.57818046424642
 1 -8.85311047994800  1.92182383518352 -0.34090941134113
 1  11.24034976947695 -2.45418691469147 -1.93027587908791
 1  10.09630249664967 -1.31051715341534 -2.73888982298230
 1  11.80041933563356 -1.01470456055606 -3.01713766186619
 1  15.18729791009101  1.40013811361136  0.64381235013501
 1  9.47080685698570 -2.72408549024902 -0.35310175267527
 1 -5.60215467646765 -0.78308545924592  0.21427882468247
 1 -6.91328022612261 -1.01525349854986  1.44585683808381
 1 -7.24433066826683 -1.51276972517252 -0.37999621442144
 1 -6.66364865136514  2.52821161626163 -0.49039224092409
 1  7.02712626162616 -4.03920734333433  1.40526022172217
 1  6.26956430163016 -3.75037022482248 -0.44573416461646
 1  8.12267216461646 -4.27079326392639 -0.16595962866287
 1  6.64568299519952 -0.28520575997600 -0.41493361526153
 1 -4.47386961856186  0.37208687388739  0.16142008440844
 1  4.65223882738274 -2.43633288628863  0.00303264246425
 1 -4.58817486318632  3.42285026682668 -0.48610826632663
 1  4.33018309450945  0.37382472137214 -0.68252747014701
 1 -1.17704746294630  3.78808025472547 -1.84828310021002
 1 -1.33853669206921  3.99923708100810 -0.21389334913491
 1 -2.60266975507551  4.58637105260526 -1.15559385308531
 1 -2.24427330773077  0.59724635013501 -0.16617134713471
 1  2.33301234333433  1.18669265846585 -0.72917993309331
 1  2.87608613631363 -2.72627903030303  0.98231661016102
 1  1.00045511681168 -2.33678296939694  0.59280799569957
 1  2.08334108350835 -2.76489427662766 -0.87114135713571
 1  0.07898378327833  2.49070891059106 -0.61234822632263
 1 -0.02824572057206 -0.61483165296530 -0.10689134413441

