%nproc=4
%Mem=4GB
# td=(NStates=1) CAM-B3LYP/6-31G(d,p) 

TD

0 1
 8 -14.09881575677568 -1.87627600930093  0.37332758805881
 8  14.91400323712371  0.75083266986699  0.39085968186819
 6 -11.83524638423842  0.03103917881788  1.33650847084708
 6 -10.96631359385939  0.31319409040904 -0.07347363456346
 6 -12.04592007260726 -1.44425891029103  1.39387722902290
 6 -12.74441783528353 -2.03629469426943  0.22529668056806
 6 -11.53885917481748 -0.36718419671967 -1.12161765166517
 6  11.07875120572057  1.08934057655766  0.97362764246425
 6 -11.01473294649465  0.63466520532053  2.46830388108811
 6 -13.17269343174317  0.76489213611361  1.33784486128613
 6  12.51929911041104  1.58732815931593  0.77026441264126
 6 -12.38535952185219 -1.40283815161516 -1.10323309200920
 6  13.42971459235924  0.43170084268427  0.48577589648965
 6  10.69024849914991  0.01572216201620  0.05226881198120
 6 -9.42550131403140 -0.10067291549155  0.04117412501250
 6  13.07260523812381 -0.16711393079308 -0.79580516681668
 6  11.64672776157616 -0.53331837713771 -0.85854091289129
 6  10.09856674227423  2.30785009700970  0.77214992839284
 6  10.92950378287829  0.51912108750875  2.41532209350935
 6 -11.41472597009701  0.37947958945895 -2.46850910911091
 6 -8.57108320862086  0.82264724712471  0.06587296479648
 6  9.30448537783778 -0.45475325112511 -0.04414433063306
 6  11.28437838333833 -1.45077804460446 -2.07920752545255
 6 -7.14942626552655  0.45307254905491 -0.04186627592759
 6  8.75037149354936 -1.69739953745375 -0.19248438943894
 6 -6.74136555805581 -0.99418817571757  0.08708159675968
 6  7.45195368286829 -2.12529540154015 -0.07267833013301
 6 -6.26835661166117  1.48339191369137 -0.28598045464546
 6  7.16287948214821 -3.53316703890389  0.04183440164016
 6  6.32283955295529 -1.24388467716772 -0.15538788118812
 6 -4.87892186588659  1.38398193739374 -0.47593850725073
 6  5.11499234513451 -1.50450829372937 -0.20679846004600
 6 -4.02131350375037  2.42482550875087 -0.58089927892789
 6 -2.62029246734673  2.48197615521552 -0.66407915571557
 6  4.00971493699370 -0.58698920502050 -0.30766028242824
 6  2.66079312791279 -0.86099057055706 -0.22111706430643
 6 -1.93351190139014  3.80658524112411 -1.01098024542454
 6 -1.76966405190519  1.43148589298930 -0.48602461886189
 6  1.83814235923592  0.21809337083708 -0.37653621552155
 6  2.19551287238724 -2.26045883318332  0.07749011691169
 6 -0.36095835473547  1.36849817111711 -0.58854221402140
 6  0.43571840264026  0.22907457525753 -0.30985424622462
 1 -10.80828757025703  1.38276006130613 -0.07537938313831
 1 -12.55086855995599 -1.57958797249725  2.32500039473947
 1 -11.00497816741674 -1.87117631263126  1.48173145574557
 1 -12.32656629022902 -3.07831693899390  0.09283414551455
 1 -9.86600200150015  0.52396407200720  2.39173779767977
 1 -11.15720588718872  1.73092616961696  2.65330005190519
 1 -11.54112170447045  0.13012643164316  3.40490466826683
 1 -13.90451165296530  0.69030503280328  0.57347381768177
 1 -13.54513028362836  0.66847845524552  2.25088909090909
 1 -12.89286797219722  1.87713133493349  1.30442092539254
 1  12.65000236693669  2.26926187568757 -0.09350150695070
 1  12.74095852295229  2.14490852975297  1.77728532973297
 1 -12.92188566716672 -1.76031282778278 -1.85182937363736
 1  13.37144672947295 -0.32767251305131  1.37084742064206
 1 -9.21681404710471 -1.10394525352535  0.19824738473847
 1  13.69466461056106 -0.98431147044704 -0.89112426842684
 1  13.22684910241024  0.64459303720372 -1.48446837063706
 1  9.12407910551055  2.08246829862986  1.00246549394940
 1  10.05200706230623  2.72592519491949 -0.14909799429943
 1  10.31395506880688  3.06042101380138  1.52505865686569
 1  11.53883672497250 -0.18456570517052  2.56285270667067
 1  9.81973694429443  0.13605106410641  2.50864399249925
 1  11.18564946404640  1.30195799259926  3.15425036803680
 1 -10.33771626962696  0.40587049774977 -2.71556895259526
 1 -11.81272032833283  1.31284728322832 -2.50742780808081
 1 -11.94490233533353 -0.00044879617962 -3.21395915351535
 1 -14.51820509380938 -2.41809076167617 -0.32119032283228
 1  8.63502257025702  0.16955718091809  0.15564821102110
 1 -8.80424559345935  1.89474112691269 -0.16985230563056
 1  11.69736547104710 -2.54622611861186 -2.00224307580758
 1  10.23094596099610 -1.43793989568957 -2.08975490949095
 1  11.81088038173817 -1.09476256635664 -2.89039498759876
 1  14.96568574887489  1.11871997179718  1.24496246514652
 1  9.54948472477248 -2.54735781748175 -0.32415885838584
 1 -5.64646910791079 -0.95330248094810  1.10660805760576
 1 -7.92818171627163 -1.49750172337234  0.75254750715072
 1 -6.30931716691669 -1.72408085628563 -1.15349356415642
 1 -6.60450273677368  2.60685948104811 -0.10940414211421
 1  6.57333088208821 -3.60892431503150  0.92130182588259
 1  6.31180852605261 -3.89874506230623 -0.64055364656466
 1  8.13052294969497 -4.12111829642964  0.19019598689869
 1  6.89794822172217 -0.27208444784478 -0.31628375027503
 1 -4.32462469406941  0.31988165336534 -0.40302636023602
 1  4.76568017151715 -2.49919917291729 -0.13862152295229
 1 -4.58873491919192  3.43684166596660 -0.66203585908591
 1  4.31447152335233  0.52864020292029 -0.49426864426443
 1 -1.43079283748375  3.79332077877788 -1.88472674457446
 1 -1.31814465286529  4.13836099339934 -0.05200716051605
 1 -2.67710719881988  4.60313272877288 -1.20222851655165
 1 -2.25706458685869  0.49682630813081  0.04311958195820
 1  2.27244628672867  1.16380036923692 -1.05138215331533
 1  2.44927345504550 -2.37813421582158  0.97998637713771
 1  1.09902497379738 -2.47648693979398  0.12034074897490
 1  2.43450620002000 -3.03466125332533 -0.54229847284728
 1  0.06852273717372  2.21982182188219 -1.05795278677868
 1 -0.13956685268527 -0.60285045484548  0.05668501350135

