%nproc=4
%Mem=4GB
# td=(NStates=1) CAM-B3LYP/6-31G(d,p) 

TD

0 1
 8 -14.09560543574357 -2.03038141984198  0.66111636693669
 8  14.69028086488649  0.82727031363136  0.31673226912691
 6 -11.74560742034203 -0.12476640174017  1.42967778777878
 6 -10.97040400290029  0.34267703870387  0.13166687948795
 6 -11.91902738333833 -1.71695618001800  1.56785462676268
 6 -12.65408880238024 -2.21385245004500  0.29138328922892
 6 -11.59416470537054 -0.45439291759176 -1.06569205910591
 6  11.05626895749575  0.96943858635864  1.19199947964796
 6 -10.93685515871587  0.43489522832283  2.61431848254825
 6 -13.01342750515052  0.64351999889989  1.41809288608861
 6  12.49440662116212  1.43963338983898  0.90928831503150
 6 -12.25579656555656 -1.53712157995800 -0.90746351505151
 6  13.41131275217522  0.34643231583158  0.39024634353435
 6  10.62542201650165  0.02631322112211  0.03665725082508
 6 -9.45978474237424  0.05353250505051  0.13906391399140
 6  12.99599757735773 -0.20634785418542 -0.93704929122912
 6  11.48738182698270 -0.45899094439444 -0.89349440824082
 6  10.11545843144314  2.14321363336334  1.24841755515552
 6  10.90737156965696  0.23209238463846  2.53131369266927
 6 -11.32932743024302  0.20270191169117 -2.45757801600160
 6 -8.49176527682768  0.99650463286329 -0.27675129762976
 6  9.25717064636464 -0.35876365216522  0.12833291709171
 6  11.16026597209721 -1.39606257305731 -2.09764936963696
 6 -7.10892221512151  0.60102734453445 -0.38783087238724
 6  8.79432588898890 -1.63187298479848 -0.15751089208921
 6 -6.62739416091609 -0.75857461436144  0.00844373297330
 6  7.40933942144214 -2.13075594759476 -0.08027909020902
 6 -6.19709948594859  1.53131670617062 -0.59416127272727
 6  7.12556575077508 -3.64479820202020  0.12621283948395
 6  6.28853612261226 -1.28049833853385 -0.06675901830183
 6 -4.71179515321532  1.55828936813681 -0.55619653305331
 6  4.92236308220822 -1.54506234913491 -0.06409418961896
 6 -3.94871624402440  2.71360438663866 -0.79667085608561
 6 -2.53996443454345  2.71649960756076 -0.94158690649065
 6  4.00236420192019 -0.56970747684768 -0.19810932733273
 6  2.56610365896590 -0.74699917141714 -0.24055900850085
 6 -1.83316186638664  4.04588917151715 -1.03904305170517
 6 -1.73109019451945  1.56396914131413 -0.77601361776178
 6  1.79164770977098  0.27048861036104 -0.46031459335934
 6  2.08386170727073 -2.22785557285729 -0.07226485858586
 6 -0.37249950885088  1.49408072937294 -0.78350170997100
 6  0.37077190799080  0.35642731053105 -0.55963922472247
 1 -11.15483222472247  1.34964674997500 -0.20003184838484
 1 -12.50047352045204 -1.78325833953395  2.42233012771277
 1 -10.90499816941694 -1.86715591059106  1.92968625122512
 1 -12.62537617121712 -3.36667577487749  0.12970783288329
 1 -9.93411881318132 -0.07487581198120  2.74700332423242
 1 -10.71557172377238  1.50425350235023  2.58558328022802
 1 -11.63753134543454  0.24360777977798  3.41778595639564
 1 -13.67075827762776  0.44238024032403  0.62557902820282
 1 -13.56484225482548  0.76937854525453  2.32871687368737
 1 -13.23291197659766  1.90579420122012  1.52997348064806
 1  12.59135650235024  2.13868881838184  0.14927277047705
 1  12.94076850395039  1.79989402830283  1.94827242844284
 1 -12.72338581718172 -1.98772556905691 -1.79256344704471
 1  13.44859444424442 -0.45864561036104  1.12885322122212
 1 -9.23768613431343 -0.97817267626763  0.48781634163416
 1  13.43773891799180 -1.17104014331433 -1.21100625662566
 1  13.14040045754576  0.52492107000700 -1.64486441024102
 1  9.07348404600460  1.92073212501250  1.51972722012201
 1  10.18618047964797  2.51273387578758  0.46883379887989
 1  10.59268294159416  2.86650162186219  1.99069522052205
 1  11.59880272157216 -0.60461771037104  2.65463188458846
 1  9.85089005960596 -0.06882942394239  2.71102423052305
 1  11.18772967206721  0.86983478027803  3.53670861386139
 1 -10.32097459545955  0.60771068176818 -2.41211860756076
 1 -11.94974403070307  1.15047104560456 -2.61900896619662
 1 -11.40126797189719 -0.73818256955696 -3.21418917651765
 1 -14.44080735403540 -2.85487444004400  0.01524332053205
 1  8.36471553955395  0.33107333253325  0.60626327252725
 1 -8.91190635953595  1.82241389418942 -0.76704202460246
 1  11.28584431893189 -2.59196069206921 -1.79063191469147
 1  10.22439530593059 -1.42473857555756 -2.34587052105210
 1  11.96033532723272 -1.18702179227923 -3.01443739183918
 1  14.94351353165317  1.22084018381838  1.18166613551355
 1  9.58492826912691 -2.33669675137514 -0.47279372187219
 1 -5.57160162116212 -0.97517466816682 -0.05072767596760
 1 -7.00898979707971 -1.01894386758676  0.87986023842384
 1 -7.13444968016802 -1.37559600780078 -0.66090430523052
 1 -6.67251953845385  2.47518631373137 -0.88565176687669
 1  6.88838238723872 -3.65785920852085  0.99789948564857
 1  6.38499584478448 -4.00583577137714 -0.76567615881588
 1  8.07568746614661 -4.23995017961796  0.08999596689669
 1  6.48868729562956 -0.24561180058006 -0.15741786368637
 1 -4.16653888548855  0.80747041224122 -0.67463352095209
 1  4.62087569106911 -2.66283553655366 -0.11648930973097
 1 -4.37946399209921  3.65012299409941 -1.09623927942794
 1  4.35393546974697  0.58836617551755 -0.26448566596660
 1 -1.23195295349535  4.08559000570057 -1.99534780668067
 1 -1.21480431883188  4.08179533683368 -0.25337729752975
 1 -2.50681016911691  4.97763017851785 -1.15486378007801
 1 -2.14544342474247  0.43315994149415 -0.71590632063206
 1  2.20217926002600  1.34381837103710 -0.50324733983398
 1  2.38620714841484 -2.78795519791979  0.73038141664166
 1  0.97840291159116 -1.95242453355336 -0.05350663576358
 1  2.44077682708271 -2.83950173737374 -0.84540878387839
 1  0.40100598549855  2.29896973667367 -0.81234822632263
 1 -0.19620251625163 -0.59938010781078 -0.21323197819782

