%nproc=4
%Mem=4GB
# td=(NStates=1) CAM-B3LYP/6-31G(d,p) 

TD

0 1
 8 -14.16094196939694 -2.04154253595360  0.32508276357636
 8  14.75155699249925  0.95274286088609 -0.09054845894589
 6 -11.81285414501450  0.06430250515051  1.28981380138014
 6 -10.97559452195220  0.34858762976298 -0.04479076627663
 6 -12.07424290489049 -1.49135361976198  1.22765060636064
 6 -12.73335672917292 -2.09496056085609  0.08649280018002
 6 -11.69028431733173 -0.24684216251625 -1.23826931683168
 6  11.15084841544154  0.96384802730273  1.03517379707971
 6 -11.04703617681768  0.38490022882288  2.56222327302730
 6 -13.21555771817182  0.72544819171917  1.20589166596660
 6  12.54736191669167  1.54834426092609  0.62102948914891
 6 -12.30586157205721 -1.38858672647265 -1.15997876657666
 6  13.49721134203420  0.38295596819682  0.26610392929293
 6  10.64543401770177  0.01824241404140 -0.08628504340434
 6 -9.56344510841084 -0.07019986818682  0.00667067466747
 6  13.01180915851585 -0.27978519791979 -1.01956754305431
 6  11.50331342014201 -0.53566861216122 -0.93039809860986
 6  10.14978186378638  2.22383169516952  1.09620233363336
 6  11.23292412491249  0.33241241664166  2.33362392369237
 6 -11.33349784728473  0.40202184368437 -2.52765502370237
 6 -8.53718981928193  0.78663364576458 -0.10631425392539
 6  9.33390832013201 -0.54037181298130  0.06437652145215
 6  11.01259120462046 -1.39371233803380 -2.17925753045305
 6 -7.14463578647865  0.49634687648765 -0.10082217151715
 6  8.84102055845585 -1.73898369586959 -0.10443558455846
 6 -6.58847026852685 -0.93370212711271  0.22431532013201
 6  7.43114160166017 -2.15744861686169  0.14397333503350
 6 -6.16249602560256  1.47332090659066 -0.28962081868187
 6  7.19779297349735 -3.61616533873387  0.37510772897290
 6  6.41255852485248 -1.17809809850985  0.02769042664266
 6 -4.78514248794879  1.42875641484148 -0.42388330173017
 6  5.03059390529053 -1.48684652755276  0.16215843564356
 6 -4.01119249164916  2.49598262446245 -0.62848403740374
 6 -2.61396183428343  2.51799975757576 -0.61278402620262
 6  4.03524749024903 -0.54387489358936 -0.22479199559956
 6  2.64377142574257 -0.81895636713671 -0.12790774337434
 6 -1.86186473667367  3.80262484508451 -0.95841498889889
 6 -1.77508459395940  1.44314705910591 -0.26463247964796
 6  1.81575012001200  0.29149071057106 -0.46515507740774
 6  2.12518583968397 -2.03828661596160  0.34449681758176
 6 -0.34245650455046  1.51395271657166 -0.43200656045605
 6  0.44350918171817  0.39055072287229 -0.25622888368837
 1 -10.84953169466947  1.50160194549455 -0.21520336553655
 1 -12.70013348644864 -1.62344235793579  2.26820471517152
 1 -11.09456712631263 -2.00848004300430  1.30759404200420
 1 -12.39487312091209 -3.27686679397940  0.07966282838284
 1 -10.25990139143915 -0.46342466686669  2.86312493639364
 1 -10.70770093669367  1.39659273627363  2.37222194409441
 1 -11.81840943324332  0.41646506550655  3.44136831463146
 1 -13.77573877567757  0.47436343864386  0.25959242954295
 1 -13.78000377097710  0.51533314071407  1.93852785478548
 1 -12.98696738213821  1.91694531633163  0.97179766306631
 1  12.56922428912891  2.15401035053505 -0.21916407320732
 1  13.09036346344634  2.08901294019402  1.38220582178218
 1 -12.75795927452745 -1.64383117961796 -2.11037522822282
 1  13.57760734553455 -0.16869661546155  1.18226856275628
 1 -9.38487085278528 -1.11285614461446  0.20241780178018
 1  13.45913105720572 -1.19945298459846 -1.29695485148515
 1  13.19390580808081  0.29843842174217 -1.98721864566457
 1  9.20476717431743  2.04457450925093  1.51710695809581
 1  9.94333619521952  2.71429403180318  0.26556347184719
 1  10.66037971127113  3.02650762246225  1.80192634363436
 1  11.73388622992299 -0.70921817041704  2.23598001940194
 1  10.26474144474447  0.04176163516352  2.62395552365237
 1  11.56900779987999  0.88400619741974  3.28215315831583
 1 -10.05966846484649  0.61039094979498 -2.53058045374537
 1 -11.93665272157216  1.27457345584558 -2.55531259655966
 1 -11.76185403050305 -0.29600835213521 -3.16271402900290
 1 -14.43339661296130 -2.43682263486349 -0.58600680448045
 1  8.61111017901790  0.10707093229323  0.39710235643564
 1 -8.91864703360336  1.87366901970197 -0.28595391579158
 1  11.46907264176418 -2.30487198319832 -2.16997984948495
 1  9.97033990039004 -1.32419852155216 -2.33616955095510
 1  11.57609690339034 -0.94927801790179 -2.94571051915192
 1  14.89881906220622  1.37037513731373  0.64086205510551
 1  9.47377715401540 -2.62735581728173 -0.45022146464646
 1 -5.47162162316232 -1.22620977167717  0.20870826762676
 1 -7.01153005110511 -1.30867284048405  1.09555180758076
 1 -6.84592082728273 -1.70120856905691 -0.51692990779078
 1 -6.57907019351935  2.54047284238424 -0.35068827052705
 1  7.15922947194719 -3.82824624722472  1.40537023272327
 1  6.26641398659866 -3.71120630843084 -0.19821941314131
 1  8.16795669306931 -4.17184336893689 -0.07192022472247
 1  6.49546797369737 -0.18294553395340 -0.59313143504350
 1 -4.18243047464746  0.41446111131113 -0.55185124272427
 1  4.67046064956496 -2.35901515451545  0.51156349554956
 1 -4.58924497019702  3.54500248204820 -0.72087174267427
 1  4.45257533373337  0.34921226012601 -0.48434765216522
 1 -1.22135189338934  3.75461690839084 -1.81160943284328
 1 -1.23621646004600  4.08837599489949 -0.23761572137214
 1 -2.63091257935794  4.60937335283528 -1.08855714941494
 1 -2.40914979537954  0.67945457095710  0.06193146314631
 1  2.46953599569957  1.15276926612661 -1.06010302540254
 1  2.18448697639764 -2.39334573697370  1.39281766026603
 1  0.97891296259626 -2.17661695279528  0.31939065396540
 1  2.42655540494049 -2.81533932113211 -0.19114335733573
 1  0.09982586748675  2.26153599329933 -0.87937492899290
 1 -0.06888978497850 -0.59128929872987  0.00249959495950

