%nproc=4
%Mem=4GB
# td=(NStates=1) CAM-B3LYP/6-31G(d,p) 

TD

0 1
 8 -14.07020289548955 -1.96696507820782  0.56095635093509
 8  14.76455829262926  0.97757534413441  0.31644224012401
 6 -11.82995585518552  0.16400247514751  1.37084190419042
 6 -10.92142910541054  0.32284505550555 -0.03857014421442
 6 -11.98217369796980 -1.28253273767377  1.48580642194219
 6 -12.61313470697070 -2.02510357515752  0.45262941384138
 6 -11.64775006390639 -0.31897937623762 -1.23733922382238
 6  11.00095342594259  1.15140678317832  1.08679895959596
 6 -11.04300577377738  0.72522426122612  2.48455550625063
 6 -13.16323248564857  0.88435408230823  1.10884196099610
 6  12.51744892539254  1.57421684818482  0.89204659085909
 6 -12.27900888678868 -1.48767663546355 -0.90098286698670
 6  13.43441506240624  0.50954862746275  0.47422474137414
 6  10.62872234653465 -0.05494490469047  0.15076866196620
 6 -9.52840160406041 -0.04414726292629 -0.02107209960996
 6  12.93264124172417 -0.03257047644764 -0.89482506880688
 6  11.44357744654465 -0.35163020832083 -0.82509756855686
 6  10.12874976057606  2.29148846084608  0.92150486388639
 6  10.85667650015001  0.50174935033503  2.57869843114311
 6 -11.27430192769277  0.12274391589159 -2.50726298449845
 6 -8.47373347364737  0.77471245364536 -0.11411503400340
 6  9.23446837613761 -0.52994076987699  0.11430151395140
 6  11.18177812331233 -1.31388435523552 -2.12154175887589
 6 -7.05844716761676  0.48485572737274 -0.11742383168317
 6  8.74143059945995 -1.77720751825183 -0.19554469546955
 6 -6.64978640014001 -0.93656241314131  0.26943983258326
 6  7.38149663716372 -2.26020889288929 -0.05002606490649
 6 -6.17063683968397  1.46510008450845 -0.42215407200720
 6  7.25041823602360 -3.75868959115912 -0.14560434223422
 6  6.36439370837084 -1.39968025672567 -0.06982932533253
 6 -4.72898687238724  1.38973251245124 -0.31967288068807
 6  4.96631747764776 -1.54672251515152 -0.09813759395940
 6 -3.92671404380438  2.46331935813581 -0.67507869686969
 6 -2.57758819691969  2.55608356595660 -0.52788553635364
 6  4.01913587908791 -0.68024853095310 -0.41641115751575
 6  2.59556660526053 -0.90590506200620 -0.38883383598360
 6 -1.86247479767977  3.81240582318232 -0.78913806120612
 6 -1.78187527302730  1.33399614401440 -0.44067008340834
 6  1.75326387138714  0.18877043854385 -0.56024458635864
 6  2.17917123822382 -2.30466325362536 -0.37977560966097
 6 -0.35410766966697  1.37932925422542 -0.58200155995600
 6  0.45497032783278  0.29706137393739 -0.41764502530253
 1 -10.91884862636264  1.53222500780078 -0.23343518871887
 1 -12.61423489658966 -1.24765477917792  2.41308920362036
 1 -10.92676034563456 -1.68043723872387  1.28038132073207
 1 -12.36680031363136 -3.03280238753875  0.43816867896790
 1 -9.98982438373837  0.31110278587859  2.55597422132213
 1 -10.61410157675768  1.77515059205921  2.25332005390539
 1 -11.55870346264626  0.91831525052505  3.34024820262026
 1 -13.81488269006901  0.41172717501750  0.35131160146015
 1 -13.76993276387639  0.74298590599060  2.07642164416442
 1 -12.93838252365236  1.98887250905090  0.90831131443144
 1  12.48169553625362  2.40479542904290  0.33852169536954
 1  12.84300872797280  2.02091613051305  1.85455305650565
 1 -12.86951042964296 -2.03534033053305 -1.88696288698870
 1  13.54920450525053 -0.25724547034703  1.14363469936994
 1 -9.25449781548155 -1.10997585658566  0.11482904290429
 1  13.46830197429743 -1.00658369766977 -0.90748590459046
 1  12.89731614911491  0.54263284118412 -1.61006092989299
 1  9.17666436403640  2.18720877267727  1.51421666906691
 1  10.01470333193319  2.68820142254225 -0.16777986248625
 1  10.44312798609861  3.25411038273827  1.38585473647365
 1  11.53406624792479 -0.23904115271527  2.71847826922692
 1  9.79258422902290 -0.05662820382038  2.72875600370037
 1  10.86278717781778  1.36501429822982  3.40706564956496
 1 -10.21261375937594  0.15595550625063 -2.49880727642764
 1 -11.69924898119812  1.16827282578258 -2.56734379967997
 1 -11.52278012311231 -0.57486623792379 -3.43942169976998
 1 -14.40239351265127 -2.30108906150615 -0.27503570737074
 1  8.44509357735773  0.18162838803880  0.40681332753275
 1 -8.69574474337434  1.97121877467747 -0.18241356175618
 1  11.42620835533553 -2.37706920292029 -1.72111496299630
 1  10.14485735213521 -1.46770287198720 -2.28389432343234
 1  11.99448874257426 -1.12422551265126 -2.90655660376038
 1  14.98095727602760  1.58704680448045  1.13701167006701
 1  9.67183695999600 -2.43356643834383 -0.33114955745575
 1 -5.53829829082908 -1.16686383708371  0.29115651245125
 1 -7.13909280738074 -0.95366733993399  1.28593084548455
 1 -7.11429766496650 -1.85865431363136 -0.39672788758876
 1 -6.71193347984798  2.28352714781478 -0.82480568226823
 1  6.76253980298030 -4.34006742934293  0.69944964066407
 1  6.66277362256226 -4.39409459725973 -1.09463905510551
 1  8.26069596699670 -4.16764294889489 -0.26058909160916
 1  6.69297772467247 -0.38417565696570 -0.46435855775578
 1 -4.32122435403540  0.41753141834183  0.14223816621662
 1  4.74349795329533 -2.68768802180218  0.06773911311131
 1 -4.45161120682068  3.34352233403340 -1.00169982548255
 1  4.27632770897090  0.25836317521752 -0.63689290669067
 1 -1.60402016021602  3.74117556425643 -1.80983925582558
 1 -1.06612945134513  4.12023918121812 -0.08002996279628
 1 -2.56624611271127  4.60195261076108 -0.93811210491049
 1 -2.34657353775378  0.35361198669867 -0.19105383538354
 1  2.39305834793479  1.24326831603160 -0.85886290139014
 1  1.82227075477548 -2.46868327072707  0.89208758725873
 1  1.08256332763276 -2.60401969306931 -0.77796908200820
 1  3.18170091949195 -3.10843863106311 -0.76410065306531
 1  0.07333321822182  2.35051489118912 -0.96362335383538
 1  0.19339644364436 -0.63767393719372 -0.13751440644064

