%nproc=4
%Mem=4GB
# td=(NStates=1) CAM-B3LYP/6-31G(d,p) 

TD

0 1
 8 -14.12395827102710 -1.94461284298430  0.45933618891889
 8  14.76324816161616  1.02550013661366 -0.05522492659266
 6 -11.72749560916092  0.11599767466747  1.25481030103010
 6 -10.96804376687669  0.31486425742574 -0.03983027022702
 6 -11.95399087968797 -1.44226871127113  1.50600844214421
 6 -12.69114250775078 -2.14010507530753  0.22355650655066
 6 -11.72246753565356 -0.38990646894689 -1.32230772067207
 6  11.20676400700070  0.96409805230523  1.09737001670167
 6 -10.98799027222722  0.67657939673967  2.46495354605461
 6 -13.12555871827183  0.80873652055206  1.23709478627863
 6  12.56610379087909  1.46009543604360  0.74172155835584
 6 -12.38528951485149 -1.49800766856686 -1.15870863956396
 6  13.53117473837384  0.41735940854085  0.15008232713271
 6  10.72699217351735 -0.02321173137314 -0.06517293219322
 6 -9.56237500140014 -0.05617846604660 -0.06623661606161
 6  12.92421039863986 -0.03072029142914 -1.14814040034003
 6  11.51922501130113 -0.37372241754175 -1.12637769656966
 6  10.14819170477048  2.01984129612961  1.27133984738474
 6  11.18782961546155  0.28039721512151  2.43173373467347
 6 -11.45822031953195  0.19646128762876 -2.65107736593659
 6 -8.48618471877188  0.69085406780678 -0.17900152265227
 6  9.32873780308031 -0.44277205300530  0.11682176597660
 6  10.91023096859686 -1.12693566036604 -2.21844144884488
 6 -7.08041936483648  0.41570881268127 -0.17287937723772
 6  8.73660011641164 -1.74310410791079 -0.01762690369037
 6 -6.71794321582158 -0.91833058995900 -0.00208732013201
 6  7.49565805330533 -2.18616148814881  0.06628556625663
 6 -6.24134391039104  1.54020759525953 -0.40040189678968
 6  7.11181437563756 -3.71507522972297  0.15725594379438
 6  6.45286255525552 -1.30945123382338 -0.02251459385939
 6 -4.79663363706371  1.44372791199120 -0.30166107950795
 6  5.03542438833883 -1.60996883978398  0.16051827162716
 6 -3.95678705110511  2.51005403160316 -0.68746993599360
 6 -2.58663910201020  2.65000295789579 -0.66537928572857
 6  3.99534349984999 -0.60689119521952  0.02512299589959
 6  2.72073912251225 -0.86861133263326 -0.04081903450345
 6 -1.90818936913691  3.92105668826883 -1.10450959835984
 6 -1.77250433593359  1.56050879527953 -0.31900791719172
 6  1.80038858385839  0.27479904140414 -0.24026258815882
 6  2.09118243934393 -2.22771555885589  0.24249661756176
 6 -0.33455571447145  1.42513383468347 -0.38299165896590
 6  0.44350918171817  0.31356302410241 -0.26336959775978
 1 -11.03376011751175  1.35066685198520 -0.04279612481248
 1 -12.80380385348535 -1.59347936163616  2.46004389908991
 1 -10.95003267286729 -1.88784797979798  1.70020330293029
 1 -12.58393202680268 -3.31231033833383  0.12003686578658
 1 -10.02176757805781  0.28683035863586  2.38662728662866
 1 -10.81936210281028  1.65563864086409  2.24330905280528
 1 -11.57826541884188  0.35458887788779  3.48610278807881
 1 -13.57603880568057  0.84082008430843 -0.01225475517552
 1 -13.86771254185419  0.31721332873287  1.95423942594259
 1 -12.84560324572457  1.91382500430043  1.46491697499750
 1  12.49309667636764  2.29622457195720  0.18310615381538
 1  12.92791721882188  1.73643768266827  1.65289289048905
 1 -12.72349582818282 -1.95856265276528 -2.03567775847585
 1  13.56249583438344 -0.57349709550955  0.79026936283628
 1 -9.37665003070307 -1.12332719171917  0.21758931893189
 1  13.62089723382338 -0.93714675397540 -1.61338649464946
 1  13.08937535503550  0.94564314221422 -1.78245816961696
 1  9.18235493309331  1.71474152595260  1.88458370577058
 1  9.70812267386739  2.57818042044204  0.25184209970997
 1  10.55046872017202  3.02990796249625  1.94687083808381
 1  11.86748959025903 -0.60237748634863  2.81474789618962
 1  10.28393336393639 -0.10724326532653  2.74932806090609
 1  11.42868376747675  1.10800859765977  3.30490543354335
 1 -10.42052455045505  0.30239014971497 -2.59818721442144
 1 -11.51928098439844  1.37570356885689 -2.69796686198620
 1 -11.98383622872287 -0.33934268556856 -3.48154591219122
 1 -14.35571884518452 -1.92412136473647 -0.29367757155716
 1  8.65915498349835  0.29508973417342  0.66222886908691
 1 -8.49746491539154  1.83852550535053 -0.32617793819382
 1  11.30377611211121 -2.12285378137814 -2.23861671317132
 1  9.74834770117012 -1.37990409210921 -2.07456339033903
 1  11.31800109380938 -0.73808689878988 -3.23300924902490
 1  15.25029420972097  1.30970907070707  0.73791176007601
 1  9.58471824812481 -2.54122720442044 -0.04189063156316
 1 -5.56611107210721 -1.30815796649665  0.15587298409841
 1 -7.20589948804881 -1.44550652385239  0.85407766016602
 1 -7.17728396359636 -1.55362381058106 -0.77056527132713
 1 -6.89692197869787  2.49242803790379 -0.56840004170417
 1  6.36314986398640 -3.93230665326533  0.99062875857586
 1  6.76907425262526 -4.03156834463446 -0.72308189938994
 1  8.07545744314431 -4.46078226282628  0.44599156645665
 1  6.59056748364836 -0.03255049444944 -0.07532965486549
 1 -4.49804203580358  0.40445011021102 -0.31951800940094
 1  4.70378398189819 -2.59034828782878  0.55986832603260
 1 -4.54445049074907  3.48785676747675 -0.62599225472547
 1  4.45031510771077  0.34217155605561 -0.25924514191419
 1 -1.14613437163716  3.92272371907191 -2.07565583748375
 1 -1.23874671307131  4.43026018331833 -0.41279323912391
 1 -2.61227071517152  4.71601401690169 -1.50653894759476
 1 -2.24859373977398  0.69138576407641  0.16771204120412
 1  2.27022606470647  1.11618560776078 -0.58488550365037
 1  2.41670019771977 -2.74455085748575  1.35628400690069
 1  1.01568663996400 -2.20351964306431  0.22973168806881
 1  2.55252800220022 -3.04409219641964 -0.54754899789979
 1  0.33485937083708  2.39953979367937 -0.71479847134713
 1 -0.19569246524652 -0.61142131193119 -0.02068272327233

