%nproc=4
%Mem=4GB
# td=(NStates=1) CAM-B3LYP/6-31G(d,p) 

TD

0 1
 8 -14.20353622882288 -2.11381976367637  0.56492674797480
 8  14.91009284608461  0.96449403600360 -0.28392779687969
 6 -11.74145700530053  0.02436851175118  1.19310413041304
 6 -11.02309927242724  0.33419619061906 -0.09554584178418
 6 -11.94228970957096 -1.46218070247025  1.40455829712971
 6 -12.83142653615362 -2.06281734653465  0.27983213411341
 6 -11.70964625352535 -0.39113659195920 -1.31743723362336
 6  11.26136946754675  1.05436707920792  1.05223550325032
 6 -10.93557503070307  0.56676841564156  2.55334238493849
 6 -12.96699286168617  0.75323096999700  1.11655273207321
 6  12.66780396089609  1.50115954245425  0.66994438063806
 6 -12.41669265516552 -1.39938780658066 -1.08650141884188
 6  13.56950857175718  0.40654832743274  0.20739805870587
 6  10.80007948224823 -0.06402581278128  0.00228381348135
 6 -9.55683444734473 -0.09289213741374 -0.14763475587559
 6  13.03479145674567 -0.14723194259426 -1.10123570987099
 6  11.55022811161116 -0.59432447774777 -0.91023608240824
 6  10.25919280488049  2.27665697769777  1.16788950235023
 6  11.24349518201820  0.43981315671567  2.45206576787679
 6 -11.41842634013401  0.14271591309131 -2.67487974617462
 6 -8.55017111741174  0.77149213161316 -0.31910553305331
 6  9.26872180148015 -0.33110088588859  0.03675375917592
 6  11.03291323682368 -1.56172913971397 -1.97268687338734
 6 -7.14065538843884  0.46016325812581 -0.23605569486949
 6  8.73676013241324 -1.62990278777878  0.12420727972797
 6 -6.52245366686669 -0.90742949984998 -0.10008712011201
 6  7.41131961946195 -2.08672154415442  0.13512244994499
 6 -6.25561533753375  1.52068564306431 -0.42278413501350
 6  7.13498669286929 -3.57227094929493  0.33524374257426
 6  6.30875814481448 -1.27903819251925 -0.07588993139314
 6 -4.79327330103010  1.50346388558856 -0.20202111551155
 6  4.96948779467947 -1.61126896979698  0.07754997479748
 6 -3.95659703210321  2.59190221642164 -0.43411460046005
 6 -2.59429986808681  2.67616557415742 -0.46213896169617
 6  3.92728669416942 -0.68508901500150 -0.14370388678868
 6  2.54371141974197 -0.95488996049605 -0.27885283788379
 6 -2.01169972017202  4.05079966256626 -0.65412455985599
 6 -1.80760784628463  1.51878462286229 -0.36097211361136
 6  1.73190173517352  0.24811637313731 -0.25519408130813
 6  1.94323764486449 -2.30803359065907 -0.05816344844484
 6 -0.38673093199320  1.50303162446245 -0.40252361216122
 6  0.41632646344634  0.34711637943794 -0.29668292909291
 1 -10.92095883738374  1.57695948124813 -0.10944278947895
 1 -12.50290376347635 -1.67247726142614  2.25708360306031
 1 -10.97998566816682 -1.99286848184818  1.46329961256126
 1 -12.58777241084108 -3.09894900220022  0.29247410951095
 1 -10.00168556985699 -0.06027435183518  2.52067069096910
 1 -10.87863803040304  1.74229730673067  2.44054877677768
 1 -11.57997558985899  0.39165258425843  3.47072124992499
 1 -13.63590479227923  0.59913591589159  0.17885435573557
 1 -13.60600637123713  0.65802741014101  2.01720572257226
 1 -12.83066175157516  1.86173979577958  1.05555603890389
 1  12.50527789448945  2.12230718021802 -0.13649580638064
 1  13.34841926902690  1.80657469636964  1.52732033323332
 1 -13.09191266986699 -1.96784358085809 -1.81845603630363
 1  13.67962754755476 -0.50045979177918  0.90961129702970
 1 -9.31053341904190 -1.11551641064106  0.04057161716172
 1  13.58139328342834 -1.05122816211621 -1.30227538353835
 1  13.01732815031503  0.65914449234924 -1.82158208200820
 1  9.32852955055506  1.80600065186519  1.67196244364436
 1  10.31991385298530  2.79078168056806  0.18307522302230
 1  10.58555222852285  3.02980795249525  1.71415756675668
 1  11.93439628092809 -0.40542779137914  2.78721514291429
 1  10.20599557015701  0.21886934593459  2.68760188828883
 1  11.30355125422542  1.16012380918092  3.09532447544754
 1 -10.32645514351435  0.26030594129413 -2.86806420212021
 1 -11.93848290459046  1.12670866936694 -2.86074313961396
 1 -11.81466931203120 -0.39809856115612 -3.40440819841984
 1 -14.47187046034603 -2.42795174777478 -0.30006821062106
 1  8.54390345834583  0.51177140234023  0.04725737193719
 1 -8.68196336523653  2.05629728252825 -0.34349967036704
 1  11.32306804130413 -2.53822531853185 -1.69224207570757
 1  9.97225009140914 -1.48123422512251 -2.09601553555356
 1  11.53341263496350 -1.23970706080608 -2.86068201630163
 1  15.69469865016502  1.06256435623562  0.55966393529353
 1  9.41611138743874 -2.56812989468947 -0.13221966446645
 1 -5.44801926292629 -1.05436258695870 -0.35496810001000
 1 -6.58896779487949 -1.39492146534654  0.94062631503150
 1 -7.08397463266327 -1.63503195139514 -0.92616083088309
 1 -6.77453974047405  2.53169196429643 -0.79630283198320
 1  6.75417896689669 -3.73203662626263  1.45820551625162
 1  6.25679302450245 -3.79630481828183 -0.34844443564356
 1  8.18468836623662 -3.99362554715472  0.22032900020002
 1  6.56274470137014 -0.26802404180418 -0.20961308320832
 1 -4.46693892549255  0.56340600580058  0.07367130953095
 1  4.67778138163816 -2.72810206320632  0.18919125832583
 1 -4.51941798749875  3.36444442624262 -0.76810646614661
 1  4.33768384458446  0.22990032893289 -0.22624184158416
 1 -1.16426618481848  3.93044449114912 -1.47285555745575
 1 -1.39301213961396  4.40263742104211  0.15157319751975
 1 -2.72336182428243  4.83070548604860 -0.71744003770377
 1 -2.11768064846485  0.43437006250625 -0.17410214021402
 1  2.49602864496450  1.22286627582758 -0.38964597969797
 1  2.14110263796380 -2.76736313871387  1.01701007950795
 1  0.96066113741374 -2.18132742384238 -0.21360264536454
 1  2.44324707410741 -2.98591637883788 -0.67111135413541
 1  0.08670455535554  2.33850369006901 -0.37359435093509
 1 -0.03739663566357 -0.57049721952195 -0.15181583658366

