%nproc=4
%Mem=4GB
# td=(NStates=1) CAM-B3LYP/6-31G(d,p) 

TD

0 1
 8 -14.05642151735174 -2.16215459715972  0.52814306960696
 8  14.84211604840484  0.72823040964096  0.18469906580658
 6 -11.76485934553455 -0.01534545964596  1.32405722572257
 6 -11.01453841634163  0.21655442644264 -0.03538982618262
 6 -11.94292977357736 -1.51029551395139  1.47974581588159
 6 -12.66919031253125 -2.26176724152415  0.36125027592759
 6 -11.52553784268427 -0.61264874317432 -1.24469995989599
 6  11.11127445804580  0.86366800930093  1.16403668336834
 6 -10.91059253245325  0.67334907370737  2.53254030473047
 6 -13.13327949034903  0.71680732763276  1.20463153995400
 6  12.64056123662366  1.19481890839084  0.86112349854985
 6 -12.21010199609961 -1.75158302610261 -0.97814058275828
 6  13.52469409030903  0.12373004560456  0.28927624652465
 6  10.62007148144814 -0.16786619681968  0.08228181328133
 6 -9.58324708860886 -0.06487933613361  0.11158116571657
 6  13.00103808140814 -0.34464168356836 -1.00579616591659
 6  11.49247233603360 -0.50223526882688 -0.96074113291329
 6  10.25286217181718  2.05565487748775  1.10975368876888
 6  11.00241107360736  0.13429260466047  2.47477803910391
 6 -11.07901239873987 -0.22166052455246 -2.61258351655166
 6 -8.56030213051305  0.75304028642864 -0.13597722022202
 6  9.27358228752875 -0.45901367716772  0.19737982178218
 6  11.03484342984298 -1.17064003080308 -2.14478408310831
 6 -7.12158348124813  0.59789703150315 -0.16525861516152
 6  8.69778623502350 -1.68019781728173 -0.04842998399840
 6 -6.56422784428443 -0.81415017191719  0.13042593119312
 6  7.27789627712771 -2.07625049704971 -0.13155421772177
 6 -6.21709148514852  1.62568614311431 -0.37069892649265
 6  7.06309950415041 -3.49166288848885  0.15902612081208
 6  6.28573584258426 -1.07000728942894 -0.14859720212021
 6 -4.84541851555156  1.55559909910991 -0.37151806520652
 6  4.95147599349935 -1.39405724862486 -0.03541132133213
 6 -4.08426979937994  2.70155318151815 -0.63330451945195
 6 -2.68218865696570  2.84052200980098 -0.66069881768177
 6  3.96589055455546 -0.40175068116812 -0.24005352175218
 6  2.63901094969497 -0.55240971247125 -0.22194714731473
 6 -2.02902145234523  4.19373395599560 -0.99937908530853
 6 -1.74736182168217  1.68152089648965 -0.58318433483348
 6  1.73401194619462  0.50210177167717 -0.51815037693769
 6  2.18214153525353 -2.03470625792579  0.17903027092709
 6 -0.41409366826683  1.65622694399440 -0.67869122892289
 6  0.34567939873987  0.48213988178818 -0.53804706550655
 1 -10.94970171167117  1.32226401170117 -0.37524937013701
 1 -12.44609808290829 -1.53538355205521  2.43427132183218
 1 -10.76545421502150 -2.02007120212021  1.78278156075608
 1 -12.14401803540354 -3.25344445174517  0.31295615771577
 1 -9.91274667596760  0.12072374797480  2.52300092399240
 1 -10.77184735133513  1.77322039903990  2.50147486938694
 1 -11.32139973227323  0.39181260026003  3.72485666346635
 1 -13.78297949974997  0.61209721202120  0.25207167746775
 1 -13.76080185078508  0.53346495389539  2.11377537953795
 1 -13.02241092649265  1.96267988978898  1.20641112441244
 1  12.54782214891489  2.12478742824282  0.15659350255025
 1  13.05772019911991  1.36121015991599  2.00605820702070
 1 -12.67183066166617 -2.30318711521152 -1.76216040674067
 1  13.71434101890189 -0.73070281608161  0.87610794669467
 1 -9.39689205490549 -1.30328518751875  0.20155771577158
 1  13.47220236433643 -1.27907094639464 -1.36895205120512
 1  13.23905032253225  0.53209178707871 -1.81108103190319
 1  9.22658935653565  1.86691674347435  1.28286353375338
 1  10.21143300490049  2.68530113251325  0.25746266176618
 1  10.40673434673467  2.60493546524652  2.13644979597960
 1  11.72947578887889 -0.79424667326733  2.54622104350435
 1  9.94592956355635 -0.29882242324232  2.48967209530953
 1  11.27742864196420  0.85794359115912  3.12911785478548
 1 -10.00408290629063 -0.28106819611961 -2.55955335103510
 1 -11.37231628792879  0.77035303380338 -2.79465653095310
 1 -11.50623846894689 -0.85924467576758 -3.32706046364636
 1 -14.39260253355336 -1.98519747234724 -0.51224942874287
 1  8.74382345034503  0.25799602480248  0.58604125032503
 1 -8.80048521742174  1.90434208700870 -0.27060238063806
 1  11.16476221072107 -2.20705220122012 -2.38121097259726
 1  9.79913277967797 -0.92112821452145 -2.21792772677268
 1  11.50561985568557 -0.83453654375438 -3.10403635173517
 1  15.41607078737874  0.63846194599460  1.13105107400740
 1  9.49719949624962 -2.42502558425843 -0.36391283378338
 1 -5.51642610361036 -0.82415956665667  0.05842323912391
 1 -6.68308720682068 -1.11477345054506  1.17137939033903
 1 -7.13172940814081 -1.53221166936694 -0.43488170297030
 1 -6.53179546604660  2.57449624472447 -0.88087128882888
 1  7.19838338733873 -3.43639706230623  1.47575727142714
 1  5.93997134233423 -3.95387057485749 -0.12121171237124
 1  7.77133703110311 -4.27757394199420 -0.25275830853085
 1  6.58696712361236  0.00760352095210 -0.51557367926793
 1 -4.28569080068007  0.70472013721372  0.03628757115712
 1  4.71212481598160 -2.39185843884388  0.49121146034603
 1 -4.48849489518952  3.56065404720472 -1.02984263976398
 1  4.36855693189319  0.58455579447945 -0.59058827622762
 1 -1.23984374257426  3.95518696539654 -1.74098237013701
 1 -1.37686052445245  4.44189134643464 -0.18237019681968
 1 -2.73326281438144  4.93675609110911 -1.25819411311131
 1 -2.21945082548255  0.75181180668067 -0.21387611761176
 1  2.31262030413041  1.41550553975398 -0.90823783888389
 1  2.32058058575858 -2.28379478187819  1.09379775827583
 1  1.03344841614161 -2.10163945504550  0.03397211211121
 1  2.72968571797180 -2.87486527372737 -0.42387663066307
 1  0.00311619651965  2.60739057875788 -0.86615360686069
 1 -0.22307520352035 -0.46896706650665 -0.47766842184218

