%nproc=4
%Mem=4GB
# td=(NStates=1) CAM-B3LYP/6-31G(d,p) 

TD

0 1
 8 -14.06949282448245 -1.98163654535454  0.62789304460446
 8  14.64438627542754  1.00612819941994  0.32955355125513
 6 -11.76126898649865  0.02966904180418  1.28355317531753
 6 -10.95781274377438  0.28815158615862 -0.11241752895290
 6 -11.97294277487749 -1.39024350875088  1.57347518881888
 6 -12.77633102660266 -2.09818088288829  0.35500965186519
 6 -11.59494478337834 -0.52368984728473 -1.20463595349535
 6  11.01378470907091  0.90889253175318  1.15085536523652
 6 -10.87100857405741  0.63438517731773  2.48652570327033
 6 -13.20465662806281  0.87093274017402  1.17870894769477
 6  12.42096927742774  1.46199562606261  0.99432681888189
 6 -12.32556354225423 -1.64301216901690 -0.98721148984899
 6  13.45989761066107  0.41505917851785  0.45963328222822
 6  10.61838131243124 -0.06592600280028 -0.00990740564056
 6 -9.53597236113611  0.01776892869287 -0.01032102450245
 6  13.03347132473247 -0.16084330373037 -0.87920350665066
 6  11.59957304610461 -0.56876192149215 -0.92802786158616
 6  10.19353623922392  2.19445875787579  1.14981769516952
 6  10.87193802630263  0.27109628502850  2.58423898519852
 6 -11.20653515101510 -0.03295165366537 -2.57761001920192
 6 -8.53103920422042  0.86673165556556 -0.18851247374737
 6  9.25340026932693 -0.43850162596260  0.00487057085709
 6  11.38484843034303 -1.28328129492949 -2.16938654335434
 6 -7.05595691859186  0.56751399319932 -0.10974306360636
 6  8.86149260566057 -1.74035383288329 -0.12670781178118
 6 -6.70916233773377 -0.85664442134213  0.37087997659766
 6  7.40073856135614 -2.16269914191419 -0.17949901220122
 6 -6.16260603660366  1.54346792129213 -0.39455131173117
 6  6.99654284848485 -3.63008673087309 -0.06548633043304
 6  6.36873414241424 -1.31011129982998 -0.38229057145715
 6 -4.76401037473747  1.45103864306431 -0.31971288468847
 6  5.03936478237824 -1.53538138103810 -0.32676045624562
 6 -3.97450882328233  2.56034906110611 -0.68241943094309
 6 -2.57665810391039  2.62865082268227 -0.76848959675968
 6  4.01729569506951 -0.63070357645765 -0.47615713211321
 6  2.62041909050905 -0.73993846534653 -0.21447640024002
 6 -2.00973952415242  4.00151473407341 -1.02422156955696
 6 -1.80229731523152  1.43649639403940 -0.46597261366137
 6  1.86578512351235  0.36351791329133 -0.40535909780978
 6  2.10043336443644 -2.15207799509951  0.12601496939694
 6 -0.38508076697670  1.47503882518252 -0.59196255605561
 6  0.50219505030503  0.32435410321032 -0.27580084088409
 1 -11.31714845634563  1.26368815411541 -0.45895774097410
 1 -12.58193166626662 -1.55762577627763  2.41771966666667
 1 -10.97934560416042 -2.07405660066007  1.58777205980598
 1 -12.55451908550855 -3.07234634193419  0.47121198329833
 1 -9.92677807910791 -0.08613693809381  2.75858448234824
 1 -10.52400256685669  1.69404248124813  2.24780950285028
 1 -11.56706429872987  0.78520193919392  3.38888306610661
 1 -13.76830803260326  0.77526352865287  0.38945541584158
 1 -13.74313008360836  0.49880148754875  2.13752775477548
 1 -13.03361204660466  1.97207082888289  1.33573405670567
 1  12.69282664936494  2.40847579707971  0.19777762096210
 1  12.66221064816482  1.91318535743574  2.21159876107611
 1 -12.74926840544055 -1.95560235673567 -1.88771296199620
 1  13.43060264506451 -0.39149889568957  1.31097143304330
 1 -9.23397576327633 -0.93951881088109  0.30054761476148
 1  13.56043118721872 -0.97837087638764 -1.07588274427443
 1  13.67924434193419  0.59731830973097 -1.43475339913991
 1  9.31452815041504  1.96109616141614  1.36429167656766
 1  10.27117897949795  2.80610321272127  0.10301721722172
 1  10.64635830913091  2.76114108580858  1.71388753975398
 1  11.64610745204521 -0.59569681828183  2.78686510791079
 1  9.89131410201020 -0.16225876687669  2.61672480058006
 1  11.12617351645164  1.04512230903090  3.41135607860786
 1 -10.14921741974197  0.39215912661266 -2.64580197589759
 1 -11.78445750205021  0.91784778327833 -2.91889895519552
 1 -11.31457930303030 -0.92833158445845 -3.20653841144114
 1 -14.54706798009801 -2.22044099669967 -0.24983318711871
 1  8.44033310131013  0.31258148334833  0.11698434463446
 1 -8.80645581448145  1.96626827962796 -0.57487280768077
 1  11.55067080158016 -2.29832132813281 -2.08823167466747
 1  10.40056292269227 -1.27211331303130 -2.90180611461146
 1  11.93445273897390 -0.73030612071207 -2.78248419651965
 1  14.87482666296630  1.47013511331133  1.14890285918592
 1  9.53243301960196 -2.55415849754975 -0.35607204970497
 1 -5.64020848184818 -1.04855200590059  0.01606900370037
 1 -6.92999189728973 -0.81951392459246  1.59342159455946
 1 -7.30481671687169 -1.66545499369937 -0.11596981178118
 1 -6.55430771727173  2.56535533063306 -0.88835203690369
 1  6.35999954895489 -3.95363878647865  0.90216991269127
 1  6.38425577077708 -4.14039922772277 -0.87631722292229
 1  7.80180007740774 -4.41678786338634 -0.27249028172817
 1  6.49874830173017 -0.37076431583158 -0.76270839273927
 1 -4.36004823642364  0.55621528672867 -0.03847990559056
 1  4.67230083358336 -2.59035828882888 -0.29757741854185
 1 -4.73725977167717  3.30166814861486 -1.00341999749975
 1  4.39630970717072  0.35332267116712 -0.74824404180418
 1 -1.24535429362936  4.07441888858886 -1.91222949484949
 1 -1.45538837723772  4.16963412071207 -0.09129108890889
 1 -2.60466995509551  4.52996541204120 -1.29600789448945
 1 -2.16525540594059  0.47645427092709 -0.18227295729573
 1  2.32576161826183  1.19679366856686 -0.64467148224822
 1  2.54093262096210 -2.48753515591559  1.16991537003700
 1  0.98046311761176 -2.06212550365036  0.25668438333833
 1  2.49429217861786 -3.17794558175818 -0.58607285028503
 1  0.24916080098010  2.25716555625563 -0.81948894039404
 1 -0.25395829182918 -0.61956212601260  0.13600294529453

