%nproc=4
%Mem=4GB
# td=(NStates=1) CAM-B3LYP/6-31G(d,p) 

TD

0 1
 8 -14.22653852905290 -1.83752213391339  0.44545480078008
 8  14.88122995979598  0.85531311791179  0.11495209110911
 6 -11.75796865646565  0.04147022192219  1.25881070107011
 6 -11.00313727622762  0.32510528152815 -0.08007429462946
 6 -11.98511399199920 -1.46583106750675  1.42628046934693
 6 -12.67444083758376 -2.04993605840584  0.23213736463646
 6 -11.56348163706371 -0.43896137443744 -1.21397688758876
 6  11.10555388598860  1.02595423792379  1.05808608830883
 6 -10.95304677787779  0.61879361816182  2.46213326402640
 6 -13.12543870627063  0.94315996289629  1.37712878967897
 6  12.59296647714772  1.45149457595760  0.86972435863586
 6 -12.27134812071207 -1.60675854365437 -1.13659642834283
 6  13.47279890079008  0.39219689228923  0.37315463436344
 6  10.74886436073607 -0.03235264546455 -0.00736715161516
 6 -9.48882764666467 -0.06543939213921  0.00041004860486
 6  13.00403838143814 -0.22653987338734 -0.85889147544754
 6  11.49423251205121 -0.45554059935994 -0.99637469626963
 6  10.23264014961496  2.19447875987599  1.10133284668467
 6  11.01455228772877  0.25135431083108  2.48959952125213
 6 -11.18751324882488  0.11078271977198 -2.53087534573457
 6 -8.53441954225423  0.78337331973197 -0.07568119061906
 6  9.23567849714972 -0.36416419221922  0.05365544934493
 6  11.14448439393939 -1.38230119691969 -2.13392299699970
 6 -7.11784310721072  0.46980422222222 -0.14111620092009
 6  8.85920237663766 -1.62321211871187 -0.12187732873287
 6 -6.72884430593059 -1.04352310921092  0.14946783538354
 6  7.35206369386939 -2.02568544054405 -0.14468553085309
 6 -6.18925870187019  1.48429200370037 -0.26768862546255
 6  7.09162235643564 -3.56656037823782  0.05804602280228
 6  6.37010427942794 -1.16907719641964 -0.26785912831283
 6 -4.79319329302930  1.38847238643864 -0.44791570497050
 6  5.00355120102010 -1.46293413631363 -0.05387316751675
 6 -4.04095546794679  2.51642466866687 -0.56528771777178
 6 -2.60036047414741  2.60353831143114 -0.64403715151515
 6  4.02716668216822 -0.49817032313231 -0.28432794919492
 6  2.62055910451045 -0.76905137663766 -0.14696964956496
 6 -1.98006655685569  3.85423000560056 -1.05103425082508
 6 -1.83675076057606  1.44611735613561 -0.51812782918292
 6  1.76603514851485  0.27772933443344 -0.32869143104310
 6  2.15749907100710 -2.18785157245725  0.21143351125113
 6 -0.43057531643164  1.32484380568057 -0.44142750255026
 6  0.39114394519452  0.23795546334633 -0.26193945474547
 1 -11.29851659315931  1.47633941924192 -0.34274611981198
 1 -12.71727520062006 -1.47693770747075  2.26015391009101
 1 -11.10063773337334 -2.05190438543854  1.62122540514051
 1 -12.55246888048805 -3.15631473877388  0.30665552765277
 1 -10.04819022032203  0.05373704930493  2.80893951785179
 1 -10.85078524512451  1.58691176817682  2.11706642854285
 1 -11.58037562986299  0.45339875887589  3.37839201700170
 1 -13.75240644244424  0.31319732203220  0.58105457575758
 1 -13.65958172877288  0.69124073147315  2.35151915391539
 1 -12.92623130853085  1.92132575437544  1.28546903020302
 1  12.57975534223422  2.29346429592959 -0.01815397219722
 1  13.06354078117812  1.86760079897990  1.83866146734673
 1 -12.66490996959696 -2.14123091959196 -1.91627581828183
 1  13.29118870367037 -0.41047079287929  1.21762209810981
 1 -9.20088245394540 -0.97201206020602  0.11077863786379
 1  13.75167031113111 -1.04098713801380 -0.96902205820582
 1  13.23093951145115  0.51018959685969 -1.64870479427943
 1  9.24078077567757  2.09837988978898  1.77262250965097
 1  10.03419528112811  2.53348595099510  0.08373528902890
 1  10.73188686198620  3.07483245494549  1.46828297929793
 1  11.73311615291529 -0.55490273887389  2.40059648104810
 1  9.90898586918692 -0.28142068306831  2.55805893399340
 1  11.25279617871787  0.87855565236524  3.20179512251225
 1 -10.03376587458746  0.17720763146315 -2.55886328202820
 1 -11.53912296859686  1.14880087858786 -3.07761482678268
 1 -11.59080692579258 -0.47900665196520 -3.24535229282928
 1 -14.65531880518052 -2.10721967456746 -0.40510871467147
 1  8.48434750275027  0.34023424862486  0.31534418061806
 1 -8.81269643854386  1.92239389218922 -0.21992731313131
 1  11.52935867036704 -2.33368486448645 -1.87639049054905
 1  10.06390925732573 -1.30333643534353 -2.21919785378538
 1  11.59134842854285 -1.01620471057106 -3.02456840494049
 1  15.10815999629963  1.19598769856986  1.02318028692869
 1  9.40327010331033 -2.49273235493549 -0.30708715121512
 1 -5.58606306730673 -1.05926307700770 -0.09360196339634
 1 -6.84548344644464 -1.18057003020302  1.18319057145715
 1 -7.28440467566757 -1.84727317551755 -0.44909312411241
 1 -6.76146843334334  2.33645244034403 -0.57776097779778
 1  6.40186373537354 -3.60114353695370  0.94427412311231
 1  6.53600094529453 -3.92592778057806 -0.87138672987299
 1  8.06988688608861 -4.10395658025803  0.13843081038104
 1  6.73139156605661 -0.15165240464046 -0.51073319521952
 1 -4.50589282088209  0.47459712491249 -0.52743880148015
 1  4.52305590909091 -2.36395564856486  0.26226856605661
 1 -4.56312235793579  3.46496447824782 -0.69914957045705
 1  4.28386846304630  0.49624696359636 -0.27023624102410
 1 -1.19440919911991  3.81674312101210 -1.90424869676968
 1 -1.33002584098410  4.27912506980698 -0.27051901170117
 1 -2.63369285738574  4.65636805230523 -1.37509580328033
 1 -2.43221210161016  0.60343696919692 -0.13983871387139
 1  2.02327136923692  1.34481847104710 -0.55443245834583
 1  2.82399092679268 -2.36987338973897  1.11525990449045
 1  1.04567963926393 -2.16238552965297  0.38684739963996
 1  2.22222497189719 -2.91892968016802 -0.63050729372937
 1  0.14369025392539  2.41376121582158 -0.93380037153715
 1 -0.26935983198320 -0.67928809860986  0.09783912891289

