%nproc=4
%Mem=4GB
# td=(NStates=1) CAM-B3LYP/6-31G(d,p) 

TD

0 1
 8 -14.17141301650165 -1.83479186088609  0.37894815011501
 8  14.77170900770077  1.07127471407141 -0.05388479257926
 6 -11.77422028162816  0.05313138803880  1.26523134313431
 6 -11.04379134163416  0.28071084208421 -0.07022330953095
 6 -11.98906438703870 -1.52154663906391  1.34344218551855
 6 -12.74534792829283 -2.01443250805080  0.11670582148215
 6 -11.64814010291029 -0.32198967726773 -1.29562505240524
 6  11.03385671627163  0.99150079257926  0.95743602330233
 6 -10.95541701490149  0.63260499929993  2.50236728742874
 6 -13.10482664506451  0.77124277117712  1.07957903470347
 6  12.48264544504450  1.60701012751275  0.71443883008301
 6 -12.25179616551655 -1.48893676147615 -1.13413618231823
 6  13.47335895679568  0.55670334293429  0.33373069196920
 6  10.73992346664667 -0.06639604980498 -0.07138355325533
 6 -9.58037680158016 -0.03916676487649 -0.03494348674867
 6  13.06013399099910 -0.10544776417642 -0.97770335663566
 6  11.51370445924592 -0.49270431573157 -1.04495955475548
 6  10.14143102870287  2.26330564256426  1.05402811621162
 6  11.13274410691069  0.40913008840884  2.37046760806081
 6 -11.28756325382538  0.32820446194619 -2.63480573877388
 6 -8.52956905720572  0.79434441684168 -0.25989961246125
 6  9.30353528282828 -0.51858963476348 -0.01605152135214
 6  11.22000194569457 -1.54263723052305 -2.18624822952295
 6 -7.05465678857886  0.51358860066007 -0.12411450075007
 6  8.81901835823582 -1.76706650415041 -0.15243038403840
 6 -6.63931535303530 -0.90866962386239  0.12571546014601
 6  7.42477096459646 -2.17141001300130 -0.11588265056506
 6 -6.23367314331433  1.55116869136914 -0.29911176777678
 6  7.25482867706771 -3.59291301350135  0.16665688388839
 6  6.39128639763976 -1.30853114181418 -0.27559990239024
 6 -4.83590756445645  1.47356089528953 -0.27584849824982
 6  5.01852269816982 -1.56405424832483  0.04678689848985
 6 -3.98954032643264  2.51403442964296 -0.51314250325033
 6 -2.59752019011901  2.51804976257626 -0.61705445324532
 6  4.06907087258726 -0.66274678077808 -0.07766728312831
 6  2.58569561816182 -0.94472894439444  0.05805085248525
 6 -1.92738128832883  3.91407599019902 -0.79462861026103
 6 -1.78006509200920  1.39127187158716 -0.35784180058006
 6  1.74686323132313  0.13931549304930 -0.25068363026303
 6  2.07928124922492 -2.21559434673467  0.51335370327033
 6 -0.41693395229523  1.38378970027003 -0.36021938173817
 6  0.37124195499550  0.24548621642164 -0.08707196799680
 1 -10.99318606010601  1.50698248354835 -0.15839768496850
 1 -12.64801827492749 -1.68567858155816  2.20344823952395
 1 -10.97751542114211 -2.22792198719872  1.51018430103010
 1 -12.59116274987499 -3.07236634393439  0.13626848894889
 1 -10.05482088338834 -0.00670899529953  2.52220084398440
 1 -10.87285745234523  1.70155323232323  2.19134385628563
 1 -11.50447804010401  0.58244166316632  3.52919709750975
 1 -13.68348955075508  0.83711971427143  0.14088055835584
 1 -13.84941071167117  0.63264487188719  1.87657165916592
 1 -13.12585127052705  1.82164578637864  1.37748823212321
 1  12.31615898259826  2.18767371687169 -0.10885304210421
 1  12.80775520262026  2.12667670657066  1.45091269246925
 1 -12.85878935753576 -1.92600939743974 -1.96370056075608
 1  13.43290287508751 -0.15752549834984  1.12615295119512
 1 -9.23547591329133 -1.05020987998800  0.21275883588359
 1  13.66705184928493 -1.00887392669267 -1.19417457345735
 1  13.29184560206021  0.80310888878888 -1.43883380718072
 1  9.01619831743174  1.88835888768877  1.49315456285629
 1  9.90851271287129  2.64763736613661  0.12111902740274
 1  10.31789546284628  3.15682065376538  1.68749490049005
 1  11.87551039233924 -0.42024927352735  2.57536395779578
 1  10.09786475707571 -0.10397293829383  2.43797692579258
 1  11.29559045814581  1.00389818661866  3.28848379137914
 1 -10.13069556755676  0.25740565126513 -2.87484488018802
 1 -11.64047310361036  1.40264626312631 -2.70864793009301
 1 -11.79983782888289 -0.28242699399940 -3.54637239483948
 1 -14.55310858415842 -2.49889884248425 -0.33229143294329
 1  8.77235630363036  0.24198442364236  0.24745739193919
 1 -8.79944511341134  1.91319297209721 -0.45928124852485
 1  11.79807554205420 -2.49082057805781 -2.01441429292929
 1  10.09501236763676 -1.63481958365837 -2.27858379237924
 1  11.68055734943494 -1.25792888298830 -3.12804875297530
 1  15.04837401770177  1.70697879767977  0.60277824672467
 1  9.47385716201620 -2.42573565526553 -0.56376281878188
 1 -5.45958041904190 -0.84119126982698  0.19789718651865
 1 -6.99461835993599 -1.57541951515151  1.02275452785279
 1 -7.10999723492349 -1.61535998419842 -0.66848506330633
 1 -6.74246653315331  2.46920571567157 -0.17294049574957
 1  7.01719526852685 -3.86919034163416  1.20927062276228
 1  6.50960830603060 -4.08809399719972 -0.32006159735974
 1  8.20136003340334 -4.29526571117112 -0.02380541324132
 1  6.78739716661666 -0.35991323072307 -0.44123624552455
 1 -4.26906913851385  0.68816848204821 -0.18400445804580
 1  4.70216381988199 -2.64228348134813  0.56337867706771
 1 -4.46011205690569  3.49235721752175 -0.75568522402240
 1  4.28668874507451  0.33182052095210 -0.25761497889789
 1 -1.27073683188319  3.61153259996000 -1.66585485738574
 1 -1.35394823322332  4.16106326362636  0.05681372157216
 1 -2.71690117821782  4.58493090859086 -1.24811310501050
 1 -2.42313119351935  0.48754538003800 -0.30104483448345
 1  2.28500754285429  1.03094708390839 -0.38684569966997
 1  2.57955648334834 -2.52133853625363  1.42429080758076
 1  1.10646571787179 -2.06277556865687  0.72826154105411
 1  2.38252100150015 -3.06436422362236 -0.21646588958896
 1  0.10565645054506  2.44756459615962 -0.44773176467647
 1 -0.22597549354935 -0.75830600040004  0.10383972897290

