%nproc=4
%Mem=4GB
# td=(NStates=1) CAM-B3LYP/6-31G(d,p) 

TD

0 1
 8 -14.09727560276028 -2.04147252895289  0.65126538183818
 8  14.75932776957696  0.94697228382838  0.25862645854585
 6 -11.75515837543754  0.14710078497850  1.15971079107911
 6 -10.91160812331233  0.26452922392239 -0.05153144034403
 6 -12.03564904550455 -1.37679216361636  1.55756359765977
 6 -12.74915830933093 -2.14805587038704  0.37707185808581
 6 -11.45973126202620 -0.59899737803780 -1.29799528942894
 6  11.02159549014901  0.86657830033003  1.06667694739474
 6 -11.03287476067607  0.82651439023902  2.47491454215422
 6 -13.21334749714972  0.87249289618962  1.03108418521852
 6  12.44164134463446  1.47018644514451  0.83464085028503
 6 -12.33363434933493 -1.60714858265827 -1.01193396209621
 6  13.46782840374037  0.41558923152315  0.38529584848485
 6  10.54704417871787 -0.04373378357836 -0.03730014491449
 6 -9.47463622752275 -0.04046689488949  0.01294130173017
 6  12.94396237383738 -0.13695091449145 -0.88585417171717
 6  11.53606669546955 -0.49793483878388 -0.92800785958596
 6  10.09898678427843  2.25383469546955  1.18492120552055
 6  10.88588942144214  0.20324950035004  2.42448300960096
 6 -11.24893939143914 -0.07652601110111 -2.71293355155516
 6 -8.41756785708571  0.81543652605261 -0.05694931743174
 6  9.22053698299830 -0.41302907870787  0.08981906570657
 6  11.16103604910491 -1.35134810161016 -2.24770437513751
 6 -7.02682400530053  0.52005924772477 -0.02709479877988
 6  8.76436289268927 -1.64079387688769 -0.21632677367737
 6 -6.56731815331533 -0.87720647754776  0.12340522912291
 6  7.42238072557256 -2.17232010401040 -0.10696175847585
 6 -6.09302907890789  1.54726830133013 -0.14110596719672
 6  7.15954914911491 -3.57738146034603  0.02544276247625
 6  6.39109637863786 -1.25129541824182 -0.19296163856386
 6 -4.73706768046805  1.55184872407241 -0.23258417181718
 6  4.98726957285729 -1.54912275517552 -0.15566334653465
 6 -3.87580895329533  2.64040706690669 -0.68180936993699
 6 -2.49121956005601  2.67403536113611 -0.68459120692069
 6  4.02820678617862 -0.64718522462246 -0.24666418281828
 6  2.62884993359336 -0.77041151265127 -0.16930188278828
 6 -1.87824637483748  3.99741432403240 -0.82589173657366
 6 -1.81711879737974  1.54344708910891 -0.64781079747975
 6  1.74170271527153  0.23511507300730 -0.33890245214521
 6  2.11648496959696 -2.23569635693569 -0.06980461256126
 6 -0.40073233213321  1.32989431073107 -0.60062342214221
 6  0.24976980778078  0.23612528032803 -0.20477373817382
 1 -11.08275501700170  1.15064684998500 -0.44498634383438
 1 -12.47656112921292 -1.50443045674567  2.50525842054205
 1 -11.15128279787979 -1.78396759175918  1.73031631423142
 1 -12.47965159875988 -3.22359146644664  0.70395525762576
 1 -10.03210861216122  0.48772044764476  2.78788741264126
 1 -10.92352251885188  1.96790986798680  2.47993271517152
 1 -11.86808440074007  0.58501192019202  3.25244942274227
 1 -13.79600080188019  0.36258226052605  0.24141061136114
 1 -13.67338310891089  0.84240584798480  1.93107710971097
 1 -12.85967465286529  2.01707532933293  0.86248673197320
 1  12.44717208390839  2.33423837333733  0.30868871207121
 1  12.94544897199720  1.93892793169317  1.78072567376738
 1 -12.78298177677768 -2.07056385288529 -2.00957514821482
 1  13.54147373217322 -0.47215696149615  1.08301863776378
 1 -9.20985335103510 -1.15215007400740  0.08657621762176
 1  13.38176332043204 -1.02740577987799 -1.29411456745675
 1  13.21563798129813  0.58971754965497 -1.56421634543454
 1  8.92957965556556  2.04775482728273  1.33199844724472
 1  10.14881674327433  2.77161976437644  0.16299321482148
 1  10.73567724102410  2.83221819351935  2.02932908390839
 1  11.53686652795280 -0.65931317991799  2.43656007740774
 1  9.67441241184118 -0.16937947894789  2.45846897499750
 1  11.11049194829483  1.01655945274527  3.27261220422042
 1 -10.07039953795380  0.06301621232123 -2.98571596729673
 1 -11.74289334563456  0.86473247174717 -3.02432949824982
 1 -11.60247809290929 -1.15135388668867 -3.33139089668967
 1 -14.44366764006401 -2.41662061466147 -0.07513571737174
 1  8.45649471747175  0.29773999919992  0.30519316551655
 1 -8.56664183308331  1.86712836563656 -0.36306162656266
 1  11.59712544704471 -2.37758925492549 -2.00906375787579
 1  10.17198006440644 -1.29751585328533 -2.53534946894689
 1  11.77965725942594 -0.94995808590859 -3.17603355145515
 1  15.15779495979598  1.31212931273127  1.06996496539654
 1  9.45586536283628 -2.43135621732173 -0.19697614011401
 1 -5.49560402140214 -0.78600575127513  0.19806720352035
 1 -7.05520441854185 -1.38797077027703  0.95443769616962
 1 -6.96358259345935 -1.47806625482548 -0.78037625242524
 1 -6.72439472597260  2.40807960306031 -0.15764896659666
 1  6.23504705370537 -3.69804322692269  0.91563125882588
 1  6.75050239543954 -4.04174936273627 -0.86845643684368
 1  8.24445434283428 -4.10565675027503  0.31652862016202
 1  6.74057248414842 -0.12973021242124 -0.17361948384838
 1 -4.02654488608861  0.74737440264026  0.05414935733573
 1  4.59387299079908 -2.61640089308931  0.08704104330433
 1 -4.42454850055005  3.56654463626363 -0.94632428792879
 1  4.51851192739274  0.40787812671267 -0.44058327572757
 1 -1.39044880308031  3.96668811551155 -1.83810208210821
 1 -1.24797763616362  4.32965012231223  0.01263930413041
 1 -2.65625511361136  4.76445886138614 -0.95246354005401
 1 -2.22398127852785  0.52752937843784 -0.18498322832283
 1  2.04326336843684  1.20276426562656 -0.51762877797780
 1  2.49936846454646 -2.67884428682868  0.98351673017302
 1  1.17084215551555 -1.99030832193219  0.02899161406141
 1  2.15423817321732 -2.96104389158916 -0.99567381038104
 1  0.28847473237324  2.14596443614361 -0.66676366786679
 1 -0.27831072707271 -0.56121629142914 -0.18309896489649

