%nproc=4
%Mem=4GB
# td=(NStates=1) CAM-B3LYP/6-31G(d,p) 

TD

0 1
 8 -14.24318019321932 -1.87092547424742  0.42839309460946
 8  14.76921875867587  0.96906449304930  0.13762435833583
 6 -11.77936079567957  0.16391246614661  1.24831965196520
 6 -10.97313427592759  0.30098286928693 -0.04679096629663
 6 -12.06859233983398 -1.40004448884888  1.44588242954295
 6 -12.87385077857786 -2.05494655945595  0.36782093299330
 6 -11.58603389228923 -0.40153763206321 -1.27152264216422
 6  11.11390472107211  1.02756439893989  1.06025630533053
 6 -10.94844631783178  0.65957769656966  2.50087713841384
 6 -13.02583874627463  0.83774942184218  1.22040311711171
 6  12.54724190469047  1.48639806630663  0.76586397259726
 6 -12.34328531443144 -1.51850971877188 -1.03599636833683
 6  13.52273389428943  0.39441711431143  0.39173649254925
 6  10.61613108740874  0.01345193499350 -0.01757817271727
 6 -9.51083984788479 -0.11317416561656  0.01535154275428
 6  12.96192417001700 -0.12488970837084 -0.90673625992599
 6  11.51830491929193 -0.39785483078308 -0.95817087588759
 6  10.12633951955195  2.25641495349535  0.93227594099410
 6  11.08326915941594  0.41628080348035  2.48729929122912
 6 -11.28305280278028  0.17330897239724 -2.63966622482248
 6 -8.56536263656366  0.77837281968197 -0.13257688018802
 6  9.25670059935994 -0.47061483728373  0.01478156195620
 6  11.04904484998500 -1.28606157295730 -2.10823042774277
 6 -7.16684800770077  0.52036927872787 -0.02153424272427
 6  8.79409586598660 -1.72373217071707 -0.02888802980298
 6 -6.71898331983198 -0.96430518741874 -0.00986809820982
 6  7.44283277077708 -2.17358023002300 -0.03282434473447
 6 -6.20057983398340  1.47352092659266 -0.33607546414641
 6  7.33958715291529 -3.69671339353935  0.22754297249725
 6  6.41345861486149 -1.28181847054705 -0.11300364276428
 6 -4.79669364306431  1.28966250545054 -0.30756166956696
 6  5.00161100700070 -1.57000484338434 -0.13798157835784
 6 -3.93685505790579  2.40544357055706 -0.50324151315132
 6 -2.49730016811681  2.50995895349535 -0.60002275007501
 6  4.01677564306431 -0.62291279737974 -0.25279479587959
 6  2.61107815641564 -0.79979445094509 -0.34664961756176
 6 -2.02161071127113  3.95261984458446 -0.79074822222222
 6 -1.66855394089409  1.39949269366937 -0.49203521992199
 6  1.88226677167717  0.25927748924892 -0.40124868676868
 6  2.07827114821482 -2.18954174147415  0.09748211611161
 6 -0.31708396729673  1.44908622992299 -0.54599795959596
 6  0.47209204000400  0.37800946874687 -0.29972323312331
 1 -10.90225696719672  1.46609839513951 -0.34263610881088
 1 -12.70152362546255 -1.70303031673167  2.24328222292229
 1 -11.25046271587159 -2.00621981698170  1.84893817641764
 1 -12.64156779037904 -3.03147225452545  0.53646850895089
 1 -10.07316271757176  0.07603927952795  2.58665728962896
 1 -11.02906307290729  1.65974905190519  2.65800052195220
 1 -11.60467806010601  0.40152357135714  3.25527970577058
 1 -13.60062126392639  0.86279228152815  0.18359482978298
 1 -13.91277704830483  0.52390399779978  1.89277327932793
 1 -12.88183686908691  1.93998762056206  1.40211069436944
 1  12.50523789048905  2.16288123762376 -0.22302445924592
 1  13.00906533363336  2.13236727562756  1.57270487168717
 1 -12.95493897249725 -2.07411420792079 -1.75834002470247
 1  13.74419400420042 -0.39192893869387  1.23581391729173
 1 -9.56412877857786 -1.27356221522152  0.23474103410341
 1  13.72066721082108 -1.01965500480048 -1.23563871987199
 1  13.32573899139914  0.58376695459546 -1.72513243704370
 1  9.36175287288729  1.72885293709371  1.46283153055306
 1  10.01352321392139  2.46599920232023 -0.05630871537154
 1  10.40606427972797  3.04826979867987  1.45426157715772
 1  11.95132797409741 -0.46623387198720  2.67237365876588
 1  9.97374234483448  0.16798425742574  2.51390451855185
 1  11.01369226832683  1.12686048284828  3.25959090209021
 1 -10.04337683568357  0.12265217591759 -2.99058645434544
 1 -11.57243629992999  1.19318531703170 -3.01119818511851
 1 -11.70518836393639 -0.35715446674667 -3.37280503810381
 1 -14.54572784608461 -1.98257721032103 -0.48178638243824
 1  8.52512158015802  0.36093631883188  0.31247389358936
 1 -8.66673184208421  1.84241589438944 -0.64985030543054
 1  11.22362809730973 -2.45458695469547 -2.01292414391439
 1  9.97804067046705 -1.32119822152215 -2.30105603960396
 1  11.49040833453345 -1.04960805090509 -3.10500644874487
 1  15.10519970027003  1.42141024082408  1.02275024392439
 1  9.60900067636764 -2.54836791849185 -0.39632607510751
 1 -5.64989945094510 -1.07241439213921  0.38189558635864
 1 -7.27297619571957 -1.65265723892389  0.83839609200920
 1 -6.82729896509651 -1.35860430863086 -1.17145536033603
 1 -6.56230851735174  2.43820261536154 -0.52533573527353
 1  6.85226877587759 -4.07523094569457  1.21736143184318
 1  6.67051439663966 -4.29892508030803 -0.58675826702670
 1  8.45198509590959 -4.12781896649665  0.04643161046105
 1  6.87928635553555 -0.29430667006701 -0.26330845274527
 1 -4.47767999959996  0.30141980718072 -0.25053111071107
 1  4.66432003550355 -2.56256550955095  0.07914025322532
 1 -4.19987603330333  3.29851783358336 -0.62170182568257
 1  4.39929000520052  0.34982232113211 -0.34575379277928
 1 -1.53930368856886  4.11643309000900 -1.79052732463246
 1 -1.42676551495150  4.17009416671667  0.10793883408341
 1 -2.79855934403440  4.63423583908391 -0.59986828052805
 1 -2.05840472087209  0.34527115261526 -0.55298002800280
 1  2.39457849995000  1.29009299849985 -0.54346136123612
 1  2.11835036273627 -2.40949735213521  1.10030840934093
 1  1.03006807810781 -2.33430272137214 -0.03401468656866
 1  2.39859260866087 -2.98681646884688 -0.74042828582858
 1  0.24670055495550  2.41393123282328 -0.85089208070807
 1 -0.12251514751475 -0.58098826862686  0.16270561556156

