%nproc=4
%Mem=4GB
# td=(NStates=1) CAM-B3LYP/6-31G(d,p) 

TD

0 1
 8 -14.12805868106811 -1.96109449114912  0.32256251155116
 8  14.89887172397240  0.71146873347335 -0.03592299639964
 6 -11.82389524912491 -0.01508543364336  1.17276209620962
 6 -10.98223518601860  0.30291306230623 -0.03301958915892
 6 -12.02911839243924 -1.54174865926593  1.30046788808881
 6 -12.68266165966597 -2.13298436323632  0.08871302220222
 6 -11.66285157405741 -0.31204868316832 -1.30329581948195
 6  11.22010534113411  1.07893953645365  0.94405468516852
 6 -11.13089456265627  0.59183092189219  2.44925197589759
 6 -13.21515767816782  0.69016466336634  1.11076215301530
 6  12.65589276977698  1.36148557505751  0.53784117031703
 6 -12.44159514541454 -1.34356222402240 -1.27369013771377
 6  13.56142776367637  0.31551922452245  0.07994531343134
 6  10.63805327962796 -0.00130954115412 -0.06852326722672
 6 -9.55779454335434 -0.17018986718672 -0.08728872127213
 6  13.01833981158116 -0.30679789918992 -1.10585617191719
 6  11.50263335213521 -0.40973601890189 -1.06482154095410
 6  10.35951283688369  2.30956026802680  0.89024173757376
 6  11.10875170767077  0.45669484488449  2.44092465376538
 6 -11.40350484798480  0.35504714621462 -2.56451871007101
 6 -8.58287438773877  0.63767875027503 -0.23706732923292
 6  9.27927285658566 -0.48442621842184  0.10224030783078
 6  10.83798374387439 -1.30446341314131 -2.10810041474147
 6 -7.09546086898690  0.39578682048205 -0.08351044034403
 6  8.77294375077508 -1.72339213671367  0.02684754375438
 6 -6.61152257375738 -0.95625438233823  0.22812570117012
 6  7.36845533303330 -2.15080795279528  0.12699163686369
 6 -6.22050182618262  1.46155973047305 -0.20758261486149
 6  7.15923911811181 -3.60323404560456  0.34389460766077
 6  6.39225649464946 -1.19192948164816 -0.01548389078908
 6 -4.78968294199420  1.42711625082508 -0.26534744814481
 6  5.05837668356836 -1.46569441234123  0.16276849664967
 6 -4.05527690009001  2.53042606880688 -0.55285647464746
 6 -2.58792923102310  2.57704566216622 -0.55906865466547
 6  4.07876184168417 -0.51225173127313 -0.17992750915092
 6  2.70572762136214 -0.68929340084008  0.00944599199920
 6 -1.99764831503150  3.93886846944694 -0.87302645004500
 6 -1.78366545204520  1.40380312471247 -0.33332934933493
 6  1.84483302830283  0.42034359585959 -0.28050661256126
 6  2.20540386148615 -2.06461924922492  0.30599296719672
 6 -0.38265052395240  1.54573589488949 -0.23749710951095
 6  0.49922475327533  0.36819848764876 -0.14001726252625
 1 -10.95943268476848  1.38770055535554 -0.06923876907691
 1 -12.58145161826183 -2.08281829552955  2.06450434513451
 1 -10.86920459005901 -2.01969116411641  1.40506378897890
 1 -12.38678231183118 -3.19334844214421 -0.15322045994599
 1 -10.12846824812481  0.27412908850885  2.48738736263626
 1 -11.02342250885089  1.68857193419342  2.42356707860786
 1 -11.66037362966297  0.27728114711471  3.46469064686469
 1 -13.62497369916992  0.32589859215922  0.30483695399540
 1 -13.68974474507451  0.25664727212721  1.98198220022002
 1 -13.08255694109411  1.77598121992199  1.04349483278328
 1  12.45867323402340  1.95859080858086 -0.48373052985299
 1  13.02271669876988  1.98367240614061  1.32810041124112
 1 -13.01050452905291 -1.71985878237824 -2.15028921962196
 1  13.59281886668667 -0.42876262206221  0.87117745364537
 1 -9.43894626032603 -1.27662252125212  0.19229678967897
 1  13.63641878597860 -1.30879391869187 -1.41034619061906
 1  13.14657107460746  0.28202678057806 -2.06312623642364
 1  9.28935563316332  2.16856690849085  1.31762701010101
 1  10.20209207080708  2.71484408680868 -0.02808589308931
 1  10.58212188548855  3.05293026472647  1.55071122212221
 1  11.81532437373737 -0.42557980658066  2.34009043044304
 1  10.19421439203920 -0.01150369136914  2.61620474857486
 1  11.55135603470347  1.08098589538954  3.17518246124612
 1 -10.25120761876188  0.46246615731573 -2.66008340404040
 1 -11.85021407770777  1.23181918041804 -2.40803786908691
 1 -11.81409925502550 -0.19156790809081 -3.47778553615362
 1 -14.71686495979598 -2.28267722032203 -0.35178338213821
 1  8.52461152915292  0.15844606980698  0.55269791599160
 1 -8.60133530243025  1.63335498829883 -0.27896321672167
 1  11.28915464996500 -2.29191068706871 -2.10435328682868
 1  9.73289615601560 -1.72621872357236 -1.96820275427543
 1  10.99057835153515 -0.77001009110911 -3.20099604770477
 1  15.20702988328833  0.83149124892489  1.01764973387339
 1  9.37155693199320 -2.66611969366937 -0.40882732523252
 1 -5.39087354835484 -1.10170732143214  0.62397979477948
 1 -7.13132203030303 -1.54237621082108  1.07279953235324
 1 -6.74243047824783 -1.63653210141014 -0.65055327012701
 1 -6.63728601510151  2.41128992409241 -0.40189339103910
 1  6.71279482848285 -3.69525294789479  1.40571026672667
 1  6.33574091929193 -4.16196138393839 -0.25463505470547
 1  7.99783968136814 -4.19947613221322  0.17149411671167
 1  6.71949037593759 -0.20147738713871 -0.06286840874087
 1 -4.13703593519352  0.60970063526353 -0.10989704730473
 1  4.65027863136314 -2.50444969796980  0.47217955715571
 1 -4.79450549624962  3.38728671047105 -0.75538519401940
 1  4.59670974717472  0.43292063096310 -0.51863108050805
 1 -1.29447920612061  3.79967141384138 -1.73673194509451
 1 -1.24733757215722  4.47822497979798 -0.16397835763576
 1 -2.84959444754475  4.63592600810081 -1.15154344804480
 1 -2.07251613201320  0.41426805230523  0.05626089608961
 1  2.44536357845785  1.27310129932993 -0.60124713981398
 1  2.50559908760876 -2.19593599599960  1.54980335883588
 1  1.07988305960596 -1.97998728982898  0.56524523942394
 1  2.47629037843784 -2.76490427762776 -0.49813405640564
 1  0.16583246814681  2.44304414411441 -0.51272826432643
 1 -0.14111700770077 -0.46220639043904  0.18515786078608

