%nproc=4
%Mem=4GB
# td=(NStates=1) CAM-B3LYP/6-31G(d,p) 

TD

0 1
 8 -14.23021889708971 -1.96978536023602  0.41676193149315
 8  14.89204104090409  0.73916150275027  0.26228682458246
 6 -11.91545440504050  0.01146722162216  1.29855467546755
 6 -10.95421238373837  0.26685945694569  0.05464917771777
 6 -12.13837931853185 -1.44482896729673  1.43268110941094
 6 -12.74675806930693 -2.11306237103710  0.21641579247925
 6 -11.49122441134113 -0.40860833913391 -1.18653414331433
 6  11.12256558715871  1.08102974547455  0.99564984468447
 6 -11.09327080028003  0.51339307810781  2.47500455115512
 6 -13.18499466186619  0.84982062896290  1.11290236703670
 6  12.58919610011001  1.46497592409241  0.65203258945895
 6 -12.35008599449945 -1.44798266606661 -1.07424019271927
 6  13.55538715961596  0.26766443904390  0.48456577547755
 6  10.76602607690769 -0.09720913111311  0.01840542564256
 6 -9.54004276817682 -0.11726457465747  0.09693970157016
 6  13.17864584218422 -0.49122634203420 -0.66176176247625
 6  11.60368345714571 -0.67980302560256 -0.82098715751575
 6  10.27831471707171  2.30497980998100  0.72353506690669
 6  10.87513834633463  0.64965414081408  2.42357291859186
 6 -11.07583208070807  0.16388803030303 -2.53354561276128
 6 -8.46364246454646  0.76456143854385 -0.01054467696770
 6  9.24949987928793 -0.39478725452545 -0.00705062126213
 6  11.36324627012701 -1.62551551835184 -1.94554415911591
 6 -7.08254957785779  0.41143838563856 -0.10878296759676
 6  8.80169662606261 -1.64260405790579 -0.14259940094009
 6 -6.69794121562156 -1.01702045894589  0.28819170777078
 6  7.41277976547655 -2.05998887088709 -0.13898496079608
 6 -6.17304708070807  1.47007058155816 -0.25802765936594
 6  7.10325351955195 -3.41764548674867  0.08949916811681
 6  6.38539580858086 -1.06174646334633 -0.17439978237824
 6 -4.84343831753175  1.33442698189819 -0.31517243064306
 6  4.98266911281128 -1.35185302820282 -0.19668744894489
 6 -4.10828220062006  2.49708273447345 -0.46682787178718
 6 -2.67622806090609  2.54808276587659 -0.56310905870587
 6  4.00754471997200 -0.43871437753775 -0.38055757215722
 6  2.65289233783378 -0.69591406290629 -0.32926787938794
 6 -1.95832438263826  3.92800738333833 -0.71061020842084
 6 -1.85131221672167  1.44408715311531 -0.45511152755276
 6  1.72433097809781  0.29576113761376 -0.52577113901390
 6  2.20436375747575 -2.05067785508551 -0.10857848994900
 6 -0.49318157705771  1.37841916321632 -0.43561692149215
 6  0.36052088288829  0.34483615141514 -0.40567382818282
 1 -10.95054179567957  1.32850463576358 -0.15811765696570
 1 -12.73926739983998 -1.60445045874587  2.41067896259626
 1 -11.33731140074007 -2.03563275827583  1.65154843744374
 1 -12.47358099169917 -3.20214932223222  0.28729359145915
 1 -10.31527692899290 -0.16845516991699  2.64937356125613
 1 -10.70237040364036  1.49884296129613  2.25927064896490
 1 -11.76569416171617  0.60998441744174  3.40530470827083
 1 -13.70941214301430  0.78792479477948  0.10073654395440
 1 -14.03674944554455  0.65689729712971  1.85874987698770
 1 -12.91952063746375  1.98340196199620  1.07829831313131
 1  12.72045941264127  2.19502445194519 -0.18217037383738
 1  13.05001942904291  2.26666070497050  1.48778637983798
 1 -12.84855833443344 -1.77334413091309 -2.10037422812281
 1  13.49667925272527 -0.30717046284629  1.34756509240924
 1 -9.34150651635164 -1.15750060906091  0.20363792379238
 1  13.66175131923192 -1.64245728502850 -0.64701985798580
 1  13.59017543504350 -0.00654207630763 -1.79904982878288
 1  9.22467916551655  2.12446249804980  1.19982522992299
 1  10.42735459705971  2.66055865826583 -0.36488957345735
 1  10.72777645094509  3.21920689238924  1.18133428442844
 1  11.67647048834884 -0.25517276587659  2.66852327372737
 1  9.81976694729473  0.17990544954495  2.61728485658566
 1  11.13622452155215  1.13452124892489  3.17657260026003
 1 -10.15939843784379  0.25005491619162 -2.68376577227723
 1 -11.61650070637064  1.06256225472547 -2.99367643294329
 1 -11.32205005010501 -0.56325507680768 -3.36083384098410
 1 -14.60990426372637 -1.78617757035704 -0.64660286408641
 1  8.50187925592559  0.48250847604760  0.36271891809181
 1 -8.67776294519452  1.91021267406741  0.01968664826483
 1  11.32025776027603 -2.70900239623962 -1.75038789028903
 1  10.21534440084008 -1.34083018471847 -2.36967290129013
 1  12.25307460116012 -1.34952804290429 -2.82995894399440
 1  14.91457063736374  1.65577367716772  0.89892786168617
 1  9.47391716801680 -2.26684976667667 -0.49930637313731
 1 -5.63664812581258 -1.23559070977098 -0.16170877407741
 1 -6.89713861196120 -1.07729970317032  1.44271652405241
 1 -7.39132536773677 -1.91924037223722 -0.06280449524953
 1 -6.42300458695870  2.63189198429843 -0.35872907460746
 1  6.56823037203720 -3.87159058165817  1.13793348904890
 1  6.49994733993399 -3.86943213101310 -0.55787537873787
 1  7.94735463286329 -3.91332751735174 -0.08958199089909
 1  6.80544897179718 -0.14346158555856 -0.10463258515852
 1 -4.31140337193719  0.33553321852185 -0.21156721432143
 1  4.62931653515352 -2.29356860986099 -0.06610427122712
 1 -4.62060810651065  3.51783976577658 -0.63972362786279
 1  4.20868094429443  0.75117245614561 -0.42559177657766
 1 -1.04991474967497  3.90368181488149 -1.52251052295229
 1 -1.49223206160616  4.19238639593959  0.14750279047905
 1 -2.64960444854485  4.80260267576758 -1.02358065176518
 1 -2.35240412081208  0.44994161966197 -0.27907263726373
 1  2.25049409150915  1.26590057925793 -0.59233624872487
 1  2.24680320802080 -2.38780518291829  0.91446982548255
 1  1.06384145544554 -2.29807909900990 -0.53953523862386
 1  2.57743049244925 -2.74281206840684 -0.90062430543054
 1 -0.15212932803280  2.42793263296330 -0.53677066856686
 1 -0.28125102110211 -0.77106727652765 -0.41890254525453

