%nproc=4
%Mem=4GB
# td=(NStates=1) CAM-B3LYP/6-31G(d,p) 

TD

0 1
 8 -14.03402927812781 -2.12005038673867  0.82619287458746
 8  14.79724156095610  0.93965155175518  0.31813240914091
 6 -11.64717757735774  0.04828090299030  1.32895771577158
 6 -11.09298626112611  0.28687145814581 -0.02701898909891
 6 -11.87052253285329 -1.43164764916492  1.57386522782278
 6 -12.59476286978698 -2.15236630143014  0.46148029892989
 6 -11.64802009090909 -0.48904638293829 -1.13927941784178
 6  11.06635996659666  0.93317495999600  1.22361264096410
 6 -10.95828730193019  0.68143988278828  2.48910596129613
 6 -12.96260242264226  0.74467011391139  1.28994007080708
 6  12.54299147964796  1.47968739523952  0.92720010621062
 6 -12.42547353325333 -1.55277314511451 -0.91681445014501
 6  13.54130575147515  0.38679635223522  0.56180349924993
 6  10.68563803810381 -0.07935734593459  0.09250283538354
 6 -9.53962272617262  0.05364251605160  0.07661766936694
 6  12.96991496909691 -0.25824304370437 -0.77024261056106
 6  11.53812690149015 -0.54833987928793 -0.82355741454145
 6  10.13708059365937  2.13867317931793  1.15887860126013
 6  11.01272210471047  0.11574074947495  2.38891945324532
 6 -11.56216071357136  0.02126376787679 -2.49839209740974
 6 -8.54163026332633  0.80994597699770 -0.28923254575458
 6  9.27747267656766 -0.44231200700070  0.10525060886089
 6  11.29310925642564 -1.24962792959296 -2.02778238293829
 6 -7.11362268516852  0.54464170597060 -0.25404749404940
 6  8.73448990539054 -1.66158595609561 -0.28408354935494
 6 -6.79501092259226 -0.93136189308931 -0.06149326072607
 6  7.40229871737174 -2.10954382638264 -0.11582264456446
 6 -6.16326610261026  1.53321689618962 -0.53971582818282
 6  7.08227142134213 -3.56261998419842 -0.02722250405041
 6  6.34681195019502 -1.18024831353135 -0.16961930433043
 6 -4.80883485718572  1.53152669186919 -0.50209112251225
 6  5.00240108600860 -1.45475331823182 -0.10371815201520
 6 -3.93177454985499  2.65345837203720 -0.78399958895890
 6 -2.60640107820782  2.68390634823482 -0.82526527432743
 6  4.00658462396240 -0.56902740884088 -0.30265978237824
 6  2.56611365996600 -0.74465893739374 -0.33481843444344
 6 -1.78767731793179  3.94566914951495 -0.92062120952095
 6 -1.83217030253025  1.49719246364636 -0.60288630503050
 6  1.75832437743774  0.32108366986699 -0.56839540144014
 6  2.06764008510851 -2.20750353765377 -0.14532216431643
 6 -0.41265352425243  1.47175849714972 -0.59200256005601
 6  0.35217004780478  0.30997266506651 -0.45329859065907
 1 -11.23885062656266  1.43869565486549 -0.18078992419242
 1 -12.49692316541654 -1.89924993869387  2.43045093979398
 1 -10.83481115071507 -1.87266646164616  1.77814109670967
 1 -12.28132176577658 -3.14099320662066  0.51563642574257
 1 -9.87889329062906  0.47197887348735  2.48617724162416
 1 -11.01572173877388  1.80187326432643  2.42587730963096
 1 -11.46678427072707  0.48678209720972  3.41680585838584
 1 -13.70111131293129  0.32995899819982  0.64985145544555
 1 -13.45629139973997  0.76688829622962  2.48099210121012
 1 -12.99741842724272  1.78827244904490  1.00490097339734
 1  12.35382274897490  2.33727867736774  0.08906674987499
 1  13.06545097219722  2.10259429832983  1.59412701390139
 1 -12.90864434303430 -2.14991178767877 -1.71127531823182
 1  13.49638922372237 -0.39440918671867  1.48295863176318
 1 -9.33364573027303 -0.98102296129613  0.29959751975198
 1  13.56272141624162 -1.21380441974197 -0.89806496249625
 1  13.35930234773477  0.52720129802980 -1.57362728652865
 1  9.12595929352935  1.96949700150015  1.58803405080508
 1  9.94442630423042  2.49834243664366  0.17886480198020
 1  10.61872554585458  2.81982695439544  1.88504465546555
 1  11.54395723702370 -0.75444269286929  2.51879830123012
 1  10.04498946954695 -0.12306484748475  2.63034616271627
 1  11.47898879797980  0.61189898669867  3.30250519351935
 1 -10.55040753875388  0.26879679037904 -2.57695509120912
 1 -11.90980003630363  0.99170516901690 -2.66911397669767
 1 -11.80326817191719 -0.68706745804580 -3.37360511811181
 1 -14.38737201050105 -2.45127408000800  0.03420521672167
 1  8.64354342234223  0.48818904410441  0.68680132633263
 1 -8.93290845974598  1.92920457325733 -0.57586290669067
 1  11.27145287978798 -2.22036353235323 -1.76779963146315
 1  10.19956282268227 -1.10120622232223 -2.34680061406141
 1  12.13338263196320 -1.25253834393439 -2.74228017611761
 1  15.37438661896190  0.89687778757876  1.23638160706071
 1  9.48241801810181 -2.35011809350935 -0.39373581608161
 1 -5.61138559955996 -0.92749990069007  0.20394779157916
 1 -7.39839873797380 -1.68934090729073  0.68951120352035
 1 -6.89216545174517 -1.62605105330533 -0.93793200800080
 1 -6.57676996349635  2.66807560266027 -0.84448765046505
 1  7.13357690669067 -3.88746216881688  1.04600429612961
 1  5.98424576977698 -3.83897908570857 -0.60353994519452
 1  7.96083598099810 -4.12692887748775 -0.64959799249925
 1  6.57912633953395 -0.17525476487649 -0.40398252015201
 1 -4.21406363796380  0.57849751495150 -0.14446050365037
 1  4.65679928342834 -2.49468872187219  0.12334467366737
 1 -4.45131117681768  3.77467544934493 -0.86412606810681
 1  4.23527360356036  0.35077241614161 -0.37774699209921
 1 -1.06598635683568  3.77839928662866 -1.60016828872887
 1 -1.43882672107211  4.33471062836284 -0.05308726852685
 1 -2.40541002910291  4.79550196569657 -1.33479177287729
 1 -2.25344422482248  0.50776740224022 -0.19860459045905
 1  2.41954099619962  1.26817080628063 -0.78500551565156
 1  2.35553408110811 -2.66185258765877  0.75126350485048
 1  1.03688876017602 -2.45826511761176 -0.26131741684168
 1  2.64128687808781 -2.76647443464346 -0.96053029602960
 1  0.23308919381938  2.44269410911091 -0.75868285978598
 1 -0.07995089108911 -0.55431560136014 -0.54942559755976

