%nproc=4
%Mem=4GB
# td=(NStates=1) CAM-B3LYP/6-31G(d,p) 

TD

0 1
 8 -14.03714959015902 -2.06279466116612  0.25518577387739
 8  14.74354619141914  0.79051663826383 -0.11902130623062
 6 -11.79019187878788  0.08279435433543  1.27151197119712
 6 -10.87755471797180  0.24101687268727 -0.06670295749575
 6 -11.99253473407341 -1.54482896729673  1.43266110741074
 6 -12.61919531303130 -2.17849891469147  0.18233238413841
 6 -11.35967125602560 -0.54695217351735 -1.23284877477748
 6  11.10815414601460  0.95127677017702  1.02178245794579
 6 -11.17709918311831  0.51718345714571  2.49584663536354
 6 -13.14722088448845  0.69159480638064  0.98791986878688
 6  12.52726990749075  1.49055848234823  0.59251663786379
 6 -12.16709769566957 -1.56907477527753 -1.07517028572857
 6  13.43724534543454  0.34057172977298  0.24559187808781
 6  10.58889836413641 -0.12711212141214  0.06961054615462
 6 -9.46273503740374 -0.04389723792379  0.16378638623862
 6  12.80677865546555 -0.35050226962696 -1.03374896119612
 6  11.38308139693969 -0.63517856315632 -0.92363742254225
 6  10.21648853445345  2.12321163316332  1.10855356875688
 6  11.10264109660966  0.29568874427443  2.44473503480348
 6 -10.99695419291929  0.00989263076308 -2.58843110131013
 6 -8.44589068936894  0.74798978137814 -0.01548517101710
 6  9.21367629692969 -0.52241001680168  0.24084416821682
 6  10.97513745924592 -1.41412437923792 -2.00832043674367
 6 -6.99606092899290  0.50395763756376  0.02875078577858
 6  8.74637109350935 -1.75755555305531 -0.10074521552155
 6 -6.64946636813681 -0.94049280618062  0.22010489908991
 6  7.37641612911291 -2.05616848884888  0.00139907760776
 6 -6.14302407840784  1.60427400190019 -0.12798465506551
 6  7.08302149634963 -3.57974169636964  0.17379759795980
 6  6.34916218521852 -1.17041733043304 -0.22681502390239
 6 -4.71769574327433  1.53379691889189 -0.27107802120212
 6  4.96481732763276 -1.35467331023102  0.01414363416342
 6 -3.90224159655966  2.69045207140714 -0.49172036103610
 6 -2.52530296839684  2.77242520012001 -0.65204795259526
 6  3.94494846034603 -0.42239274537454 -0.25525504190419
 6  2.57009405800580 -0.68277274877488 -0.17238219081908
 6 -1.97985653585359  4.08564314691469 -0.93079222662266
 6 -1.74090117561756  1.59549229362936 -0.45231124752475
 6  1.75360390539054  0.46528809030903 -0.32020058195820
 6  1.98355167626763 -2.09452223952395  0.26017838573857
 6 -0.34259651855185  1.59830115141514 -0.56666002580258
 6  0.39648447924792  0.40178184598460 -0.31551481228123
 1 -11.03607034853485  1.34665645094509 -0.35953779897990
 1 -12.65506897999800 -1.69252926662666  2.15090298499850
 1 -11.17589525912591 -2.05547474247425  1.58793207580758
 1 -12.44076771037104 -3.18117722502250  0.23306816891689
 1 -10.18843424472447 -0.06633495789579  2.49213783768377
 1 -10.90433059965997  1.33768684568457  2.00433515541554
 1 -11.65633322562256  0.75237865686569  3.43502768056806
 1 -13.58538974077408  0.54729073137314  0.03744021432143
 1 -13.96963273387339  0.56248785618562  1.79793379537954
 1 -12.77275596099610  1.85627924972497  0.81877236053605
 1  12.43581094779478  2.24046899639964 -0.15210736753675
 1  12.97962238933893  2.09401344024402  1.49899750095009
 1 -12.41609508810881 -2.25298209470947 -1.89622381308131
 1  13.54890447524753 -0.69922966876688  0.79052938883888
 1 -9.29084144984498 -1.10392525152515  0.47384494449445
 1  13.53577872197220 -1.24376741604160 -0.99524468046805
 1  12.87045346284629  0.33194177207721 -1.76412633643364
 1  9.20610730833083  1.69589964176418  1.59130437783778
 1  10.07911977357736  2.58204080648065  0.05031194669467
 1  10.58785245854585  2.94718969066907  1.81784793579358
 1  11.83657649894990 -0.42353960256026  2.42130855225523
 1  10.01902687328733  0.09328678767877  2.89937306540654
 1  11.64926582568257  1.00223802060206  3.25743068606861
 1 -9.86124862286229  0.00078998969897 -2.81170856655666
 1 -11.44834389068907  1.08483448194819 -2.70327739303930
 1 -11.33798164326433 -0.57560631193119 -3.60600835843584
 1 -14.60024329762976 -2.46199515211521 -0.44689289308931
 1  8.47619668766877  0.21328155335534  0.92005465166517
 1 -8.80216538543855  1.88229988278828 -0.50204552495250
 1  10.99456519101910 -2.54007550355035 -2.05555840734073
 1  9.87989085548555 -1.49867596929693 -2.20218615261526
 1  11.56382567626763 -1.08001109120912 -2.94447039513951
 1  15.35614479477948  1.26301440124012  0.44931290019002
 1  9.43470324662466 -2.37167024872487 -0.35621206370637
 1 -5.46562102310231 -1.13104025472547  0.16142353915392
 1 -6.91669056715672 -1.14638661186119  1.33269552195219
 1 -7.13711994719472 -1.69537798599860 -0.34831304610461
 1 -6.64406669316932  2.60888968406841 -0.28277147884788
 1  6.59356290529053 -3.78152157475748  1.16562625832583
 1  6.16022336753675 -3.67026221402140 -0.55576516771677
 1  7.94852474987499 -4.20849703430343 -0.29163219591959
 1  6.52386081298130 -0.12892013141314 -0.53621574347435
 1 -4.31798403000300  0.61832149734973 -0.13175923352335
 1  4.62095569906991 -2.29896914991499  0.41459379857986
 1 -4.63775982168217  3.54269225102510 -0.75327498299830
 1  4.27350742694269  0.53239057795780 -0.68689790719072
 1 -1.31340109830983  4.01997344404441 -1.66047431933193
 1 -1.43261610001000  4.62001915921592 -0.11195315511551
 1 -2.66477596569657  4.91381379687969 -1.29850814451445
 1 -2.31630051045105  0.69891651715172 -0.46144087408741
 1  2.43783282538254  1.42081607080708 -0.68140515561556
 1  2.13105163286329 -2.39111551395140  1.31318969746975
 1  0.93221829312931 -2.02799209030903 -0.20462174727473
 1  2.56455920532053 -3.00574836203620 -0.30561480448045
 1  0.24795067996800  2.47664750445045 -1.02219921142114
 1 -0.14862775877588 -0.45143531333133 -0.00169082408241

