%nproc=4
%Mem=4GB
# td=(NStates=1) CAM-B3LYP/6-31G(d,p) 

TD

0 1
 8 -14.33560943614361 -2.00510889258926  0.44221447674767
 8  14.82407424422442  0.74002158875888  0.06297689358936
 6 -11.72032489208921 -0.01011493659366  1.23662848284828
 6 -10.95154211671167  0.15304807580758 -0.05666195339534
 6 -12.12139762036204 -1.43986847124712  1.48113595489549
 6 -12.92826622012201 -2.08736980178018  0.26406055695570
 6 -11.44186947584758 -0.55050252855286 -1.23992948284828
 6  11.23780711131113  0.83475511801180  1.12694297399740
 6 -10.95353682688269  0.38864060286029  2.40965801650165
 6 -12.98175433783378  0.82861850875088  1.15798687548755
 6  12.64520170067007  1.35497492399240  0.81142852905291
 6 -12.38831981788179 -1.54068193599360 -1.09219198789879
 6  13.59026064696470  0.23474114671467  0.31963928282828
 6  10.70211968626863  0.01057164696470  0.00053363846385
 6 -9.47178594249425 -0.13377622582258  0.09301930953095
 6  12.98175615321532 -0.31139835923592 -0.89947553385339
 6  11.55523861266126 -0.67783282858286 -0.85357041584158
 6  10.32596948254825  2.10403971597160  1.22972568596860
 6  11.34168500100010  0.22053122852285  2.45339590089009
 6 -11.10632513001300 -0.04122248074807 -2.61353361156116
 6 -8.41289739003900  0.72403738613861 -0.10570419291929
 6  9.24241917121712 -0.40215799159916 -0.03012292849285
 6  11.02991293679368 -1.30128309510951 -2.14014361906191
 6 -7.01010233313331  0.47371461326133  0.08448635933593
 6  8.68343479987999 -1.67811760926093 -0.12882802380238
 6 -6.60800222172217 -0.88375713261326  0.41388427702770
 6  7.37518600610061 -2.08686155815582 -0.06399746204620
 6 -6.18529830583058  1.55018859335934 -0.31185304190419
 6  7.15261845604560 -3.42962668486849  0.13431364956496
 6  6.36374364336434 -1.09283957265727 -0.15146748914891
 6 -4.85238921262126  1.42293583278328 -0.39461037443744
 6  4.96436728262826 -1.41346918981898 -0.02454023422342
 6 -4.04370574297430  2.55432845904590 -0.57626881588159
 6 -2.72050248834883  2.71741969956996 -0.73322607040704
 6  3.97911187668767 -0.47082758885889 -0.20425994239424
 6  2.54811185978598 -0.58489296079608 -0.17732268486849
 6 -2.01645019521952  4.03061764436444 -1.02879202660266
 6 -1.90115720122012  1.59798254265427 -0.62081809820982
 6  1.74124266926693  0.49746130763076 -0.48359692159216
 6  2.07314063516352 -1.99909269656966  0.12885525342534
 6 -0.46095835473547  1.63515483678368 -0.61770513031303
 6  0.32594742554255  0.50422209000900 -0.40075333613361
 1 -10.91097783928393  1.29829161446145 -0.21137298249825
 1 -12.47668114121412 -1.61426143984398  2.52077997269727
 1 -11.18276594619462 -1.90605980098010  1.56349963256326
 1 -12.51605523912391 -3.30010911821182  0.19571443354335
 1 -10.17034243554355 -0.21115944034403  2.86720534443444
 1 -10.71598176477648  1.61181425842584  2.44550927282728
 1 -11.57434502680268  0.46761018001800  3.35714989278928
 1 -13.78231943374337  0.58078408070807  0.54499096939694
 1 -13.59257502810281  0.63979558695870  2.14777877987799
 1 -12.65271395679568  1.75046866866687  1.13525400870087
 1  12.55308267496750  2.16939188868887  0.23834167736774
 1  13.04189861696170  1.89297333623362  1.80037763896390
 1 -12.95631911051105 -2.11386818331833 -1.90270446114611
 1  13.67318690349035 -0.51568131393139  1.14216455235524
 1 -9.04569693539354 -1.11549640864086  0.13727128712871
 1  13.33932907700770 -1.20834387368737 -1.23847900390039
 1  13.25803222072207  0.32555113301330 -1.71919184298430
 1  9.37803450105010  2.07050710251025  1.66627187458746
 1  10.28641050265026  2.60508311071107  0.17302421792179
 1  10.76847052035204  2.76657162886289  1.97199335033503
 1  11.91701454275428 -0.77930517911791  2.51344776617662
 1  10.34884985558556 -0.18414095509551  2.73933706180618
 1  11.66620751985199  0.88289608640864  3.26101104410441
 1 -9.98955145314532  0.08049796049605 -2.79271666736674
 1 -11.65070412671267  0.83676967546755 -2.69980704600460
 1 -11.47975582068207 -0.78293704500450 -3.44021177877788
 1 -14.78340161346135 -1.99047800040004 -0.46109431323132
 1  8.50077914591459  0.50576080128013  0.08322096829683
 1 -8.74034920382038  1.64800645344534 -0.52109743014301
 1  11.15188092259226 -2.31766326232623 -1.99537238873887
 1  9.96093896029603 -1.30737683938394 -2.26949288328833
 1  11.54359365306531 -0.90831392149215 -2.94967091519152
 1  15.21017019731973  1.32390048984899  0.75188315721572
 1  9.51320109640964 -2.41677475917592 -0.14498094059406
 1 -5.43870833183318 -0.99700685138514  0.07885528232823
 1 -6.80960985908591 -1.28366033923392  1.35357761016102
 1 -7.07652388758876 -1.67388583678368 -0.34812302710271
 1 -6.47119940644064  2.50243903900390 -0.55073827552755
 1  7.00198374737474 -3.66536995959596  1.33267296299630
 1  6.20268761396140 -3.81579676747675 -0.35156474767477
 1  7.98557845524553 -4.26727291189119 -0.23796682938294
 1  6.61288971587159 -0.03984122352235 -0.38746086798680
 1 -4.45008724032403  0.44972463766377 -0.34706076367637
 1  4.45060866436644 -2.38809806280628  0.42057439663966
 1 -4.55810185588559  3.37403538533853 -0.55862551805181
 1  4.22453252945295  0.53169050795079 -0.66758597599760
 1 -1.54394415261526  3.88792023872387 -2.01785005690569
 1 -1.05232807120712  4.12436959425943 -0.39253121292129
 1 -2.95814530263026  4.83123553905391 -0.80565885958596
 1 -2.29672855325533  0.50835746124612 -0.46829155915592
 1  2.02342138423842  1.49218320752075 -0.80204721982198
 1  2.24440296799680 -2.15988239063906  1.35174355285529
 1  1.11403647494750 -2.40862015311531 -0.05501678677868
 1  2.73070581998200 -2.68862664986499 -0.43317756075608
 1  0.08057394229423  2.63819365906591 -0.77341433293329
 1 -0.07768066406641 -0.47658782858286  0.04279362436244

