%nproc=4
%Mem=4GB
# td=(NStates=1) CAM-B3LYP/6-31G(d,p) 

TD

0 1
 8 -14.09057493269327 -1.97398578027803  0.63806406170617
 8  14.85665750255025  0.93403098969897  0.42631322722272
 6 -11.75376823642364  0.03973004790479  1.38103292329233
 6 -11.00500746324633  0.36839961096110  0.03134684748475
 6 -11.96056153675367 -1.55242972737274  1.39443728502850
 6 -12.69921331483148 -2.10432149694969  0.36728087898790
 6 -11.75695098399840 -0.31051853015302 -1.14594008390839
 6  11.05442877347735  1.00685232773277  1.02655293499350
 6 -10.94540601380138  0.37797953675368  2.64715176587659
 6 -13.00069623202320  0.83865951285129  1.41044212101210
 6  12.52619980048005  1.56510593709371  0.83678106430643
 6 -12.47817880378038 -1.39582745054505 -1.04530729942994
 6  13.49675129602960  0.47091476407641  0.55567288618862
 6  10.61244071837184 -0.06760617081708  0.06989057415742
 6 -9.50446921082108 -0.08318116631663 -0.03269326172617
 6  13.02654063166317 -0.25300251965197 -0.67803338963896
 6  11.50607369616962 -0.57668271357136 -0.82386744554455
 6  10.10409729532953  2.25938525052505  0.96945965936594
 6  10.91667249974997  0.53911308670867  2.55119568086809
 6 -11.59568406590659  0.34717635913591 -2.50246250445045
 6 -8.51787788808881  0.83898888128813 -0.12083570607061
 6  9.23820875017502 -0.37475525132513  0.00987107090709
 6  11.25527547304730 -1.34506747354735 -1.99176878157816
 6 -7.09461078397840  0.47808505030503 -0.03957604690469
 6  8.74162061846185 -1.72071186868687 -0.00208534953495
 6 -6.68080950245024 -0.91741049794979  0.08032092069207
 6  7.41449993749375 -2.18891176317632 -0.07559862216222
 6 -6.18951872787279  1.57804137863786 -0.29064092069207
 6  7.22944613881388 -3.64300802300230  0.01841205940594
 6  6.38870613961396 -1.31325161386139 -0.39978232063206
 6 -4.70895486918692  1.52721626082608 -0.39041995539554
 6  4.99715056095610 -1.57228507140714 -0.19020680088009
 6 -3.98331970437044  2.55690871707171 -0.62558374737474
 6 -2.53064350245024  2.56361431903190 -0.84484723252325
 6  4.03956792229223 -0.52603310941094 -0.34655417181718
 6  2.67724477307731 -0.83884835633563 -0.37030198279828
 6 -1.95137368756876  3.87552213481348 -1.06493564096410
 6 -1.71301838733873  1.40917366176618 -0.68401441784178
 6  1.80921946694669  0.28058962046205 -0.55912447434743
 6  2.17460078117812 -2.24619740704070 -0.10746837893789
 6 -0.38417067596760  1.37422874417442 -0.77536089588959
 6  0.38681351215121  0.23640530833083 -0.46712997379738
 1 -10.96069281078108  1.42850463576358 -0.01412325752575
 1 -12.48174164726472 -1.42279229292929  2.37837573227323
 1 -11.15937360696070 -2.02223141814181  1.62285556815682
 1 -12.45976961056106 -3.19856896419642  0.29055391749175
 1 -9.96925232653265 -0.12602092649265  2.45213383728373
 1 -10.69815998259826  1.48394147114711  2.73485820772077
 1 -11.46020361266127  0.17897131613161  3.51262544034403
 1 -13.59337053885389  0.43332933523352  0.65632210251025
 1 -13.33167893849385  0.82667427482748  2.44451845384538
 1 -12.80967965336534  1.93092671447145  1.18522900620062
 1  12.48399576627663  2.12923787328733  0.05492333553355
 1  12.65250967806780  2.22557659655966  1.68420602180218
 1 -13.08391186978698 -1.72391918841884 -2.07519170987099
 1  13.41766135093510 -0.33667341314131  1.45318565446545
 1 -9.34459682538254 -1.18006286528653  0.04964252425243
 1  13.62237738183818 -1.39964300360036 -0.57732288828883
 1  13.39044546204621  0.35551412931293 -1.55752567636764
 1  9.05097179477948  2.12543259505951  1.34837008440844
 1  10.01498335993599  2.63503610601060 -0.11703478797880
 1  10.25765943924392  3.17765273697370  1.62083823482348
 1  11.61791463276328 -0.25350259885989  2.88399482088209
 1  9.94524949554955  0.04878233723372  2.59544267236724
 1  10.83627452655266  1.51965976277628  3.16264120712071
 1 -10.49387188518852  0.48898880958096 -2.75622301800180
 1 -11.99729878617862  1.29636563506351 -2.51619868516852
 1 -12.16648449354935 -0.12534128542854 -3.37665542314231
 1 -14.51252452575258 -2.48291724432443 -0.13099130293029
 1  8.62005107310731  0.42855308050805  0.04268691489149
 1 -8.86964213311331  1.87388904170417 -0.16797211761176
 1  11.46305203970397 -2.46959845584558 -1.85751860336034
 1  10.24813768016802 -1.32089819151915 -2.53586952095210
 1  12.15624491819182 -1.06360945104510 -2.74436038413841
 1  15.38986816711671  0.79324742454245  1.27431540044004
 1  9.44693446974697 -2.47879096079608  0.05586914441444
 1 -5.61328578957896 -1.03608075877588 -0.03390599379938
 1 -6.92538143624363 -1.16224819801980  1.05177743014301
 1 -7.23767000220022 -1.55339378757876 -0.79325754055406
 1 -6.70608289478948  2.47955675077508 -0.52899610131013
 1  6.69099264826483 -3.82963638623862  0.99838953465347
 1  6.51650899609961 -4.28456364416442 -0.61249084028403
 1  8.04163406080608 -4.29064524912491  0.02772974027403
 1  6.63417184408441 -0.34246148554855 -0.54271639353935
 1 -4.26721895349535  0.48703836903690 -0.38505456305631
 1  4.73138674217422 -2.52023127612761  0.04376671587159
 1 -4.48979502520252  3.52803078487849 -0.95241489698970
 1  4.27496757295730  0.49722706160616 -0.78108732613261
 1 -1.35292505070507  3.96465791249125 -1.92131040294029
 1 -1.21947478587859  3.99899705700570 -0.09703166296630
 1 -2.68409789788979  4.55141755725573 -0.94623291699170
 1 -2.29722860326033  0.53678030353035 -0.28139286928693
 1  2.25418446054606  1.31017500670067 -0.71290830593059
 1  1.99627815551555 -2.44677107950795  1.08310668916892
 1  1.09086415771577 -2.28804809590959 -0.74234551965197
 1  3.01969471887189 -3.03365115231523 -0.50275451845184
 1  0.34680056495650  2.13628346804680 -1.11303829532953
 1  0.04085118911891 -0.73199336913691 -0.15251590659066

