%nproc=4
%Mem=4GB
# td=(NStates=1) CAM-B3LYP/6-31G(d,p) 

TD

0 1
 8 -14.11712758795879 -2.12288066976698  0.47825808110811
 8  14.87663950075008  0.85969355595560 -0.20278968306831
 6 -11.77693055265527  0.12460853575358  1.05538035803580
 6 -10.96008297079708  0.21695446644664 -0.32008829602960
 6 -11.97348282888289 -1.33805829022902  1.38094593589359
 6 -12.70415380888089 -2.16772783758376  0.24981913281328
 6 -11.66582187108711 -0.59743722202220 -1.46512200210021
 6  11.18570190079008  0.94360600310031  0.98425870557056
 6 -11.05538701190119  0.78798053685369  2.28689574027403
 6 -13.06437259965997  0.88131377827783  0.91002207900790
 6  12.65499267976798  1.49405883238324  0.64297168336834
 6 -12.29874085998600 -1.72386025382538 -1.08888165686569
 6  13.52985460636064  0.34591226382638  0.18961628052805
 6  10.66451592589259 -0.00341975217522 -0.12742915781578
 6 -9.58046681058106 -0.08077092529253 -0.08538853125313
 6  13.00355833343334 -0.30669788918892 -1.06491207750775
 6  11.51996508530853 -0.59392443774377 -1.02451751055106
 6  10.42053893949395  2.22694200620062  0.99759247264726
 6  11.17403823632363  0.33179235463546  2.42704326562656
 6 -11.32124662216222 -0.09194755325533 -2.74038629682968
 6 -8.47400350065007  0.79571455385539 -0.23806742924292
 6  9.27333226252625 -0.35632340814081  0.02227231103110
 6  11.12989293479348 -1.46364933173317 -2.18524812951295
 6 -7.12653397629763  0.57416465826583  0.00427833853385
 6  8.76141259765977 -1.58278807630763 -0.15164030503050
 6 -6.72304372587259 -0.83768252515252  0.16067895649565
 6  7.40148863636364 -2.01113398539854  0.06108504620462
 6 -6.18753852985299  1.62690626512651 -0.17731958855886
 6  7.13158635283528 -3.46436015821582  0.23488370657066
 6  6.30259752875287 -1.09849013771377  0.01504916251625
 6 -4.79434340804080  1.59172271147115 -0.05555646904690
 6  4.99313015891589 -1.45818366126613  0.10469268906891
 6 -3.97434880728073  2.73253627982798 -0.25237642664266
 6 -2.59945038313831  2.65168312591259 -0.29718246604660
 6  3.93779774527453 -0.54775528162816 -0.07577709410941
 6  2.60110715931593 -0.84791926342634 -0.03163811641164
 6 -1.93795234543454  3.95763034563456 -0.54255340274027
 6 -1.82447953345335  1.49360210461046 -0.14728074447445
 6  1.75747429242924  0.13097465896590 -0.29362792469247
 6  2.05101842294229 -2.29354214151415  0.15582795069507
 6 -0.43248550745075  1.36904822612261 -0.32887624742474
 6  0.27120195099510  0.18978064586459 -0.29522278307831
 1 -10.86892363386339  1.22786457175718 -0.63799564476448
 1 -12.65364883798380 -1.41396140984098  2.28711660636064
 1 -11.01922959255926 -1.89272846784678  1.73008629122912
 1 -12.58180181378138 -3.21722082938294  0.37390225232523
 1 -10.09458485978598  0.35054673027303  2.53345196909691
 1 -10.82752291889189  1.87344042104210  2.07381210311031
 1 -11.63915150745074  0.68329174817482  3.15301947974797
 1 -13.64776597839784  0.47910391269127  0.10219668996900
 1 -13.69838560916092  0.73748535593559  1.66487048904890
 1 -12.66489517491749  1.99460308210821  0.63740422372237
 1  12.47568493519352  2.22889783928393 -0.16049820662066
 1  13.09817424452445  2.01309534843484  1.47018461966197
 1 -13.02705618421842 -2.22485928242824 -1.95102929362936
 1  13.61080066486649 -0.28141788758876  0.92865320122012
 1 -9.29053141884188 -1.14650950995099  0.08330589058906
 1  13.40583572767277 -1.31024406370637 -1.34062921892189
 1  13.39910632813281  0.34546312421242 -1.77268719251925
 1  9.37411410901090  2.14294434623462  1.29304455185519
 1  10.34563642524252  2.75243784618462  0.07117403290329
 1  10.74248792209221  3.12246721842184  1.71411756275628
 1  11.86176901820182 -0.56142339093909  2.49900632203220
 1  10.06602157275727 -0.12195473647365  2.66188931703170
 1  11.51251215031503  1.09818761556156  3.21060600360036
 1 -10.22195469346935 -0.18452854215422 -2.76403379907991
 1 -11.44458351465147  1.17439343784378 -2.82998006330633
 1 -11.78801664676468 -0.43356210751075 -3.65998375597560
 1 -14.48296156945695 -2.31246019861986 -0.47533573737374
 1  8.66991605960596  0.38047827302730  0.14312695889589
 1 -8.78142331123112  1.72927458025803 -0.66222154255426
 1  11.27224295879588 -2.41845334133413 -1.78811166266627
 1  10.08437130353035 -1.48135423712371 -2.52938887288729
 1  11.60844013771377 -1.40434352445244 -3.08259420752075
 1  15.11593077337734  1.20304840464046  0.77767573647365
 1  9.25986576287629 -2.52506558825883 -0.13100954345435
 1 -5.66550101110111 -1.14481163186319 -0.06264886808681
 1 -7.11115001310131 -1.05369734293429  1.17191944434443
 1 -7.30254648984898 -1.65419386758676 -0.56218443324332
 1 -6.52269455595560  2.65221401650165 -0.49837303900390
 1  6.92061561056106 -3.72152557515752  1.32512220792079
 1  6.09391673687369 -3.82793798159816 -0.36259585078508
 1  8.09032893029303 -4.12763894849485  0.16091305860586
 1  6.48862728962896  0.04185694629463 -0.11550367226723
 1 -4.21430366196620  0.67772743794379  0.00420436283628
 1  4.81540514401440 -2.48741799479948  0.01205354455446
 1 -4.62193823952395  3.77508549034903 -0.45357501300130
 1  4.19904998119812  0.58188552745275 -0.22570178757876
 1 -1.19879963816382  4.05164661136114 -1.44309258115812
 1 -1.09556239463946  4.17142429972997  0.25551359155916
 1 -2.65847533563356  4.63275569106911 -0.44581287498750
 1 -2.23402228262826  0.54853147864786  0.38027329732973
 1  2.24319336143614  1.17240122932293 -0.40223723882388
 1  2.43062158985899 -2.55494189658966  1.27880625912591
 1  0.93102817411741 -2.52554184528453  0.24405312021202
 1  2.33055580498050 -3.06002378957896 -0.61492573557356
 1  0.22103798869887  2.24752459215922 -0.70629762126213
 1 -0.40422331833183 -0.75820599039904 -0.01614226922692

