%nproc=4
%Mem=4GB
# td=(NStates=1) CAM-B3LYP/6-31G(d,p) 

TD

0 1
 8 -14.18084395959596 -2.03801218291829  0.55284553985399
 8  14.78564040084008  0.76582416901690  0.25060565646565
 6 -11.93694655425543  0.27405348024802  1.20919573957396
 6 -11.05906286878688  0.24859763076308 -0.08825511271127
 6 -12.12854833543354 -1.26447093149315  1.54720256155616
 6 -12.70137353085309 -2.22662372717272  0.40221437233723
 6 -11.46446173507351 -0.66098357665767 -1.24276976687669
 6  11.16497982858286  0.94928657115712  1.14613489318932
 6 -11.22332380558056  0.97049878867887  2.35238228892889
 6 -13.31385754815482  0.87844349124913  0.93871494829483
 6  12.59630681118112  1.52028145464546  0.88123550975098
 6 -12.20417140304030 -1.76938480628063 -0.95462823152315
 6  13.50702232313231  0.34038171077108  0.39253657255726
 6  10.70783025732573 -0.01734114431443 -0.03997041194119
 6 -9.59031779567957 -0.04109695789579  0.06614662226223
 6  13.01497947554755 -0.16576379577958 -0.93520910721072
 6  11.54923801260126 -0.50788583388339 -0.98058311711171
 6  10.27736462206221  2.12091140314031  1.27015972937294
 6  11.04436526902690  0.18279745514551  2.46495705700570
 6 -11.07313181068107 -0.38260661916192 -2.67942020022002
 6 -8.57664376467647  0.79382436483648 -0.11370499299930
 6  9.26375130443044 -0.48003577937794  0.07287737153715
 6  11.12517246274627 -1.29454242104210 -2.21382098679868
 6 -7.06577790069007  0.54053129492949  0.00360827152715
 6  8.93599005540554 -1.74085388288829 -0.17035217621762
 6 -6.74057547904791 -0.87778653555356  0.30495338393839
 6  7.41326981448145 -2.20486335833583 -0.27320838313831
 6 -6.16892666866687  1.52377595209521 -0.21700355695570
 6  7.23746694089409 -3.69424314651465 -0.22159194099410
 6  6.41357862686269 -1.26211650035003 -0.30966330873087
 6 -4.76123009670967  1.49481302050205 -0.16368728212821
 6  5.04161500740074 -1.50560840374037 -0.08799657985799
 6 -4.07735910831083  2.63116614281428 -0.51253244224422
 6 -2.61140157825783  2.65623358095810 -0.59227197499750
 6  3.98629259475948 -0.49218972507251 -0.22266178257826
 6  2.66571361996200 -0.60956542804280 -0.29223417601760
 6 -1.94177272747275  3.95873045564556 -0.91939108650865
 6 -1.87810489598960  1.52782552695270 -0.41770778717872
 6  1.75480402540254  0.45608717021702 -0.45924448634863
 6  2.15534885598560 -2.04835762306231  0.10182255015502
 6 -0.41946420532053  1.45357667896790 -0.46312967276728
 6  0.41029586038604  0.40127179497950 -0.33922718351835
 1 -11.28296503800380  1.28748053335334 -0.47241908710871
 1 -12.69834330743074 -1.46850686438644  2.38853674837484
 1 -11.15188285788579 -1.72511170617062  1.53020630323032
 1 -12.40662429602960 -3.31840094739474  0.75521038313831
 1 -10.23940934223423  0.59801147674767  2.53021164506451
 1 -10.85181534813481  2.02217529452945  1.95574029592959
 1 -11.86739433173317  1.13666708570857  3.38885306310631
 1 -13.65737693949395  0.57148315061506 -0.22516604630463
 1 -14.27573334393439  0.91040264766477  1.63813781578158
 1 -13.33199188458846  1.97495111691169  0.66005648894889
 1  12.61184855155515  2.08573352285228  0.06314415761576
 1  13.02233666076608  2.03737777667767  1.77858545974597
 1 -12.36123960256026 -2.38553535003500 -1.88880307100710
 1  13.44748433323332 -0.43528327412741  1.18108844474447
 1 -9.33156552225222 -1.17858271727173  0.07847540754075
 1  13.60115525962596 -0.88594163346335 -1.33546870287029
 1  13.27867428492849  0.71856043394339 -1.50792071587159
 1  9.38056475407541  1.93444349614961  1.93497874527453
 1  9.90184204580458  2.62141474387439  0.18027494299430
 1  10.76400007330733  2.76657162886289  1.83616976797680
 1  11.86919976127613 -0.58354560316032  2.74495091649165
 1  10.07630260086009 -0.18690123112311  2.52402553065307
 1  11.08543944304430  0.99362715951595  3.24888983198320
 1 -10.13459595759576 -0.35821591089109 -2.63763115881588
 1 -11.49215827212721  0.64309030753075 -3.23230029532953
 1 -11.41043888898890 -1.21838058935894 -3.51031878947895
 1 -14.53624689798980 -2.44863381598160 -0.39336754055406
 1  8.74390345834583  0.42603282848285  0.44331697789779
 1 -8.79072424132413  1.86167782058206 -0.33588890929093
 1  11.41533726822682 -2.36604810081008 -2.04749760126013
 1  10.10412327872787 -1.32939904160416 -2.52158809280928
 1  11.52684197789779 -1.07278036813681 -3.11285723382338
 1  15.18610779107911  0.98418651845184  1.01616958585859
 1  9.68857863416342 -2.60961404310431 -0.42362880538054
 1 -5.59012347334733 -0.78281543224322  0.50860825762576
 1 -7.22219111721172 -1.10776274947495  1.24257651005101
 1 -6.82252848804881 -1.51158960716072 -0.54729294409441
 1 -6.84338662516252  2.41549034413441 -0.71693489518952
 1  6.49323287228723 -3.99868329092909  0.64748444414441
 1  6.71570891609161 -4.14611979977998 -1.24460405160516
 1  8.22359225662566 -4.22924910951095 -0.03262629532953
 1  6.67252567946795 -0.20895813521352 -0.41364348624862
 1 -4.24674690629063  0.57555722092209 -0.07701375897590
 1  4.87173077657766 -2.44498375137514  0.03963630283028
 1 -4.58543458915892  3.49539752155215 -0.69974963046305
 1  4.44520459665967  0.46583392229223 -0.49567878527853
 1 -1.12498225642564  3.65178662536254 -1.74434270617062
 1 -1.37329016741674  4.55233239053905 -0.03025498529853
 1 -2.61246073417342  4.72086450195019 -1.24921321502150
 1 -2.44570345074508  0.71458808430843 -0.15699042904290
 1  2.31775081718172  1.47840182938294 -0.70207722282228
 1  3.01167969566957 -2.57881428382838  0.78227660616062
 1  1.01277634893489 -2.12746203730373  0.63914262916292
 1  2.04334708410841 -2.50329811701170 -0.90628487148715
 1 -0.06546066116612  2.41247108680868 -0.84008099959996
 1  0.10042714671467 -0.55532570237024  0.12771211621162

