%nproc=4
%Mem=4GB
# td=(NStates=1) CAM-B3LYP/6-31G(d,p) 

TD

0 1
 8 -14.14393026822682 -2.01200958265827  0.41322157745775
 8  14.87588942574257  0.88015560216022  0.41174177007701
 6 -11.76442930253025  0.05952202710271  1.45046986698670
 6 -11.06772373487349  0.46419919091909  0.11184489728973
 6 -11.96999247984798 -1.41146563096310  1.48029587088709
 6 -12.66291968546855 -2.08373943874387  0.23898804970497
 6 -11.77330261916192 -0.20954843314331 -1.11310680058006
 6  11.10262359295930  1.17077872037204  1.08905918561856
 6 -10.91914338753875  0.47763950275028  2.68043509420942
 6 -13.12607877027703  0.78778442534253  1.52711378817882
 6  12.53268044854486  1.66370579707971  0.86599398559856
 6 -12.39306029192919 -1.38273614141414 -1.01646441514151
 6  13.44783640454045  0.58106577917792  0.45688300720072
 6  10.69752922722272 -0.01728113831383 -0.00831724662466
 6 -9.62865162906291  0.04964211601160  0.16682669026903
 6  13.07486546414641 -0.04205142454245 -0.76447203350335
 6  11.62754584338434 -0.38504354965497 -0.89804486328633
 6  10.13353023862386  2.23960327232723  1.05404811821182
 6  11.15355618811881  0.38534771017102  2.52173273457346
 6 -11.58908340584058  0.63461510301030 -2.40034229242924
 6 -8.56885298559856  0.85117009940994 -0.13973759625963
 6  9.24902983228323 -0.37706548234824  0.08458854265427
 6  11.34216416191619 -1.29352231903190 -2.11892149684969
 6 -7.12446376927693  0.48778602040204 -0.19493158245825
 6  8.82083854025403 -1.68879867736774 -0.08707384838484
 6 -6.72971439293929 -0.89398815571557 -0.09967707910791
 6  7.45127361486149 -2.13643651565157 -0.02401346364636
 6 -6.25612538853885  1.48476205070507 -0.37651950855086
 6  7.31690488468847 -3.61596531873187  0.23555377357736
 6  6.39070633963396 -1.26576686538654 -0.12996533893389
 6 -4.78731270497050  1.33282682188219 -0.61381229462946
 6  5.00589143504350 -1.69284712761276 -0.11494927512751
 6 -3.94650602300230  2.46743977017702 -0.74704589358936
 6 -2.57844828292829  2.50329828742874 -0.93183593139314
 6  3.95281924742474 -0.72240274637464 -0.43387290369037
 6  2.65355240384038 -1.01289576107611 -0.24049900250025
 6 -1.88456700690069  3.82393697629763 -1.10004915231523
 6 -1.81594868036804  1.35345809020902 -0.70044606100610
 6  1.78951749674967 -0.00019845834583 -0.51152971487149
 6  2.02125544664466 -2.37004979227923  0.00974334223422
 6 -0.41451371027103  1.21194251555156 -0.71550491029103
 6  0.35391022182218  0.12796446424642 -0.55595885668567
 1 -11.11335807730773  1.56577836313631 -0.04496634183418
 1 -12.52155562866287 -1.69673968766877  2.30626852155215
 1 -11.08064573417342 -2.11203039803980  1.80880416301630
 1 -12.24701833543354 -3.23480258755876  0.21753661576158
 1 -10.08382378367837 -0.12173049744974  3.13162178607861
 1 -10.33340350695070  1.62022509950995  2.59470419231923
 1 -11.79560715301530  0.38380179917992  3.49003318111811
 1 -13.58705990779078  0.54819082138214  0.53650012031203
 1 -13.70778654925493  0.30494210161016  2.39801380338034
 1 -12.86397508290829  1.85356897869787  1.78184866816682
 1  12.43879124582458  2.18933388288829  0.04914275747575
 1  12.93933836093609  2.01539557845785  1.68426602780278
 1 -13.00038351695170 -1.76166296279628 -1.79704389508951
 1  13.55017460226023 -0.34426417221722  1.10825116101610
 1 -9.36447881358136 -1.00343520252025  0.30583814381438
 1  13.88188333243324 -0.92547558685869 -1.04184934093409
 1  13.21306772427243  0.55481405930593 -1.75297522132213
 1  9.27343404100410  1.92370242204220  1.43442869026903
 1  9.80648250985099  2.46159876227623  0.12627954345435
 1  10.50246391969197  3.03486845854585  1.61307745874587
 1  11.73992683398340 -0.31880912951295  2.72130855225523
 1  10.11287625822582 -0.07978051905191  2.67917104520452
 1  11.35729662876287  1.18097589438944  3.32011695469547
 1 -10.61065356335634  0.86153606430643 -2.47873526922692
 1 -12.26617567386739  1.56003200170017 -2.32538960426043
 1 -11.89280712581258  0.01863311201120 -3.21129888748875
 1 -14.44854812811281 -2.27873682628263 -0.60711891569157
 1  8.54246331433143  0.50344056925693  0.30317296349635
 1 -8.72357752665267  1.88173982678268 -0.59079439983998
 1  11.48394412891289 -2.51132262826283 -1.97989084058406
 1  10.23394626102610 -1.11836793849385 -2.24979091309131
 1  11.97037633133313 -1.02479556965697 -2.75146109420942
 1  15.11134031433143  1.65032313211321  1.27837580648065
 1  9.65313508980898 -2.33895697739774 -0.27178362086209
 1 -5.72542700370037 -1.29007615831583 -0.36156876007601
 1 -7.08974787288729 -1.25489746294629  0.94231648404840
 1 -7.36412264746475 -1.47899634783478 -0.77093530833083
 1 -6.37917020352035  2.58583737883788 -0.53897709940994
 1  6.62554610361036 -3.73226664926493  1.09838953465347
 1  6.80961830703070 -4.14609979777978 -0.83273286448645
 1  8.17496739413941 -4.22643882848285  0.43946091339134
 1  6.73249167606761 -0.33552079147915 -0.24659678157816
 1 -4.33603583518352  0.48555822102210 -0.57305336293629
 1  5.08170177367737 -2.71330058305831  0.22007434663466
 1 -4.45281132683268  3.47065504730473 -0.86243589908991
 1  4.17595767196720  0.31951929082908 -0.64975419281928
 1 -1.26106586478648  3.62806425312531 -2.03016128802880
 1 -1.13570640904090  3.86926408370837 -0.29877183698370
 1 -2.49663915201520  4.73898631413141 -1.05111340504050
 1 -2.09403828422842  0.33193981948195 -0.48046277627763
 1  2.24388343044304  1.04732872207221 -0.57932494759476
 1  2.43128165586559 -2.81397780018002  0.80837921642164
 1  0.92369744104411 -2.28415770687069  0.05809452435243
 1  2.12164491389139 -2.86143393059306 -0.87500174317432
 1  0.26345223012301  2.15219505920592 -0.66122311381138
 1  0.07106421042104 -0.84155432523252 -0.41431208620862

