%nproc=4
%Mem=4GB
# td=(NStates=1) CAM-B3LYP/6-31G(d,p) 

TD

0 1
 8 -14.13802967816782 -2.02588096979698  0.46585684098410
 8  14.91785362216222  0.74832241884188  0.52804340024002
 6 -11.78525138473847  0.14509058395840  1.19004382438244
 6 -10.96896385888589  0.24758752975298 -0.05007129432943
 6 -12.05962144274427 -1.35255974037404  1.60719856115612
 6 -12.71275466896690 -2.11668273307331  0.39309346024602
 6 -11.56163145204521 -0.50685816411641 -1.11405689558956
 6  11.03099643024302  1.01416305880588  1.12024230393039
 6 -11.09100057325733  0.89968170697070  2.37692474317432
 6 -13.14756091849185  0.92187783468347  1.04832590939094
 6  12.44094127462746  1.48166759325933  0.91708909510951
 6 -12.26612759865987 -1.59160702850285 -0.92686545524552
 6  13.47361898279828  0.37104477707771  0.57452477137714
 6  10.73595306960696  0.03205379517952 -0.07444385928593
 6 -9.53827259115912 -0.08276112431243  0.14148415601560
 6  13.05550352795279 -0.14259147854785 -0.71651723802380
 6  11.60535362416242 -0.51678672397240 -0.88462352115212
 6  10.08532541814181  2.24320363236324  1.05349806320632
 6  10.83513434593459  0.23942311771177  2.48004856615662
 6 -11.14397889538954 -0.15051340984098 -2.52189444764476
 6 -8.49840594089409  0.76044102650265 -0.14533815631563
 6  9.29318424772477 -0.45948372417242 -0.04888480468047
 6  11.29560950645064 -1.31961492829283 -2.21693129782978
 6 -7.07552887578758  0.62199944174417  0.00769868056806
 6  8.77073352975298 -1.61339113661366 -0.40065520652065
 6 -6.63413483498350 -0.79503826072607  0.41179406800680
 6  7.49459794729473 -2.03242611461146 -0.39774083638364
 6 -6.27361713771377  1.58689226372637 -0.28222007860786
 6  7.25316851105111 -3.59714343654365 -0.21914169596960
 6  6.26985425442544 -1.27292758145815 -0.37594993739374
 6 -4.85075904960496  1.43517705690569 -0.34151506490649
 6  5.02311315721572 -1.54616245914591 -0.36759453965397
 6 -4.05329670207021  2.47087011321132 -0.74820600960096
 6 -2.55899633773377  2.55685364296430 -0.77707045484548
 6  3.98912287778778 -0.55793629972997 -0.27758727512751
 6  2.67383443204320 -0.84073854535454 -0.15595054765477
 6 -1.92160071027103  3.95564014661466 -1.04408355575558
 6 -1.76622370787079  1.50049279367937 -0.47274329072907
 6  1.71463000800080  0.13832539403940 -0.39238780068007
 6  2.09329265036504 -2.18297108440844  0.05128749664967
 6 -0.34532679157916  1.43414473577358 -0.44978833863386
 6  0.37661249204920  0.26175784358436 -0.25768902970297
 1 -11.06618335983598  1.37682946824682 -0.37800964616462
 1 -12.99000247334733 -1.35112512621262  2.38570646534653
 1 -11.15870353995400 -1.90320951595159  1.91667495009501
 1 -12.44825845944595 -3.27904701200120  0.39730459255926
 1 -10.13541894319432  0.53847552315232  2.76466509040904
 1 -10.88961912851285  1.98792186918692  2.16324104600460
 1 -11.94504209650965  0.95127854685468  3.23314749254925
 1 -13.92663386518652  0.45477147944794  0.36146261656166
 1 -13.53433920452045  0.67912952035204  2.01418542054205
 1 -12.87248593399340  1.96831045284528  0.75037552085209
 1  12.28269563626363  2.20320527002700 -0.00331248804880
 1  12.67594202130213  2.24347838673867  1.62075967716772
 1 -12.69856333493349 -2.34039083558356 -1.75593978467847
 1  13.22298188298830 -0.46797654345435  1.49823015891589
 1 -9.41808417411741 -1.28853371237124  0.45013257325733
 1  13.80018516261626 -0.90962400170017 -0.88179333533353
 1  13.32124854235424  0.70797937583758 -1.36513643744374
 1  8.96192288988899  1.93074312611261  0.99684493189319
 1  10.48330019161916  2.91987458985899  0.18291520702070
 1  10.29489316261626  2.78876384808481  2.06674282528253
 1  11.61456429772977 -0.60536778537854  2.76258267966797
 1  9.68761373197320 -0.06093863486349  2.49675280338034
 1  11.08680958005801  1.05959375617562  3.32861780478048
 1 -10.05044754275428 -0.03490357965797 -2.52503989968997
 1 -11.71969102540254  0.84084008250825 -2.78116518181818
 1 -11.24479232433243 -0.75255400670067 -3.25829358695870
 1 -14.43842711601160 -2.07021597419742 -0.42974117791779
 1  8.59369843784378  0.17783800900090  0.42055470167017
 1 -9.05778094699470  1.76718837163716 -0.61079640004000
 1  11.69889562406241 -2.28786028202820 -2.16193904540454
 1  10.19860272667267 -1.41761786348635 -2.39183511751175
 1  11.59604889858986 -0.58259134923492 -2.99923587168717
 1  14.88786796709671  1.44690279007901  1.24943291219122
 1  9.51094087038704 -2.39482256395640 -0.57679412191219
 1 -5.49896435743574 -0.91841899259926  0.34878227502750
 1 -7.23943284138414 -1.16707868106811  1.35994824722472
 1 -7.32593882908291 -1.43521196939694 -0.16140435523552
 1 -6.60079236573657  2.55605440054005 -0.53311651335133
 1  6.73281683068307 -3.83611703430343  0.83682337803780
 1  6.55054239943994 -4.09293448124813 -0.92741233243324
 1  8.19185908330833 -4.18923510811081 -0.40347338003800
 1  6.70965939283928 -0.29793703310331 -0.70821294319432
 1 -4.30915314691469  0.52308197339734  0.14700864326433
 1  4.67881148464847 -2.62860211321132 -0.09276693749375
 1 -4.59918596429643  3.48242622442244 -0.96066572207221
 1  4.28251832803280  0.53842118101810 -0.56155537293729
 1 -1.24460421862186  3.90108155485549 -1.87957622952295
 1 -1.44878771717172  4.09042619991999  0.01732977317732
 1 -2.64793428152815  4.63482589808981 -1.34157245094509
 1 -2.14502338273827  0.33626025152515 -0.20803553355335
 1  2.43940298239824  1.17998198739874 -0.37870488558856
 1  2.82927145484548 -2.59913631603160  0.75965434393439
 1  1.13025809710971 -2.08948823992399  0.65982469736974
 1  2.05514826422642 -2.67047483468347 -1.04497874087409
 1  0.51568745364536  2.31493133283328 -0.52962995449545
 1 -0.23363625962596 -0.52649281908191 -0.13277393239324

