
 OpenBabel03261917083D

 81 84  0  0  1  0  0  0  0  0999 V2000
   -5.1098   -3.4640    2.8250 O   0  0  0  0  0  0  0  0  0  0  0  0
    0.8299   -2.3306    3.8112 O   0  0  0  0  0  0  0  0  0  0  0  0
    7.3014   -1.6343    1.4549 O   0  0  0  0  0  0  0  0  0  0  0  0
    2.8527   -2.0616    2.9147 O   0  0  0  0  0  0  0  0  0  0  0  0
    7.4019   -1.2797   -0.7406 O   0  0  0  0  0  0  0  0  0  0  0  0
   -3.0846    3.2579   -0.2267 O   0  0  0  0  0  0  0  0  0  0  0  0
   -0.2819   -1.2496   -0.7879 N   0  0  0  0  0  0  0  0  0  0  0  0
    1.5328    1.2998   -0.6800 N   0  0  0  0  0  0  0  0  0  0  0  0
   -3.6635   -2.8188    1.2288 N   0  0  0  0  0  0  0  0  0  0  0  0
   -0.7943    3.1143   -0.5531 N   0  0  0  0  0  0  0  0  0  0  0  0
    0.7527   -2.9636    0.2113 C   0  0  0  0  0  0  0  0  0  0  0  0
    0.9186   -1.7039   -0.3672 C   0  0  0  0  0  0  0  0  0  0  0  0
   -0.6084   -3.2575    0.1427 C   0  0  0  0  0  0  0  0  0  0  0  0
   -1.2206   -2.1561   -0.4586 C   0  0  0  0  0  0  0  0  0  0  0  0
    3.7251    0.8853   -0.9349 C   0  0  0  0  0  0  0  0  0  0  0  0
    2.4639    0.3197   -0.7147 C   0  0  0  0  0  0  0  0  0  0  0  0
    2.2282   -1.0058   -0.5483 C   0  0  0  0  0  0  0  0  0  0  0  0
    3.5209    2.2573   -1.0747 C   0  0  0  0  0  0  0  0  0  0  0  0
    1.8406   -3.8618    0.7711 C   0  0  0  0  0  0  0  0  0  0  0  0
   -5.9827   -2.6030    0.7566 C   0  0  2  0  0  0  0  0  0  0  0  0
   -3.7311   -2.2682   -0.0695 C   0  0  0  0  0  0  0  0  0  0  0  0
    2.1576    2.4773   -0.9041 C   0  0  0  0  0  0  0  0  0  0  0  0
   -5.1730   -2.0747   -0.4081 C   0  0  0  0  0  0  0  0  0  0  0  0
    5.0472    0.1499   -1.0194 C   0  0  0  0  0  0  0  0  0  0  0  0
   -2.6479   -1.9261   -0.8056 C   0  0  0  0  0  0  0  0  0  0  0  0
   -1.2320   -4.5712    0.5316 C   0  0  0  0  0  0  0  0  0  0  0  0
   -4.9023   -3.0142    1.7085 C   0  0  0  0  0  0  0  0  0  0  0  0
    1.7364   -4.0538    2.2917 C   0  0  0  0  0  0  0  0  0  0  0  0
    5.4842   -0.3877    0.3567 C   0  0  0  0  0  0  0  0  0  0  0  0
    4.5502    3.3268   -1.3335 C   0  0  0  0  0  0  0  0  0  0  0  0
    1.5632    3.6942   -0.9497 C   0  0  0  0  0  0  0  0  0  0  0  0
   -6.8637   -3.7946    0.3686 C   0  0  0  0  0  0  0  0  0  0  0  0
   -5.7684   -1.5462   -1.5032 C   0  0  0  0  0  0  0  0  0  0  0  0
    0.1145    3.9940   -0.7734 C   0  0  0  0  0  0  0  0  0  0  0  0
   -0.4717    5.3572   -0.8303 C   0  0  0  0  0  0  0  0  0  0  0  0
   -1.7939    5.2320   -0.6309 C   0  0  0  0  0  0  0  0  0  0  0  0
    1.8460   -2.7460    3.0259 C   0  0  0  0  0  0  0  0  0  0  0  0
   -5.0784   -0.9943   -2.7115 C   0  0  0  0  0  0  0  0  0  0  0  0
    6.7952   -1.1288    0.3107 C   0  0  0  0  0  0  0  0  0  0  0  0
   -2.8573    6.3041   -0.5845 C   0  0  0  0  0  0  0  0  0  0  0  0
   -2.0150    3.8017   -0.4495 C   0  0  0  0  0  0  0  0  0  0  0  0
    0.3154    6.6169   -1.0717 C   0  0  0  0  0  0  0  0  0  0  0  0
   -3.8897    6.1025   -1.6897 C   0  0  0  0  0  0  0  0  0  0  0  0
   -0.4947   -0.3725   -1.3037 H   0  0  0  0  0  0  0  0  0  0  0  0
    3.0881   -1.6546   -0.5528 H   0  0  0  0  0  0  0  0  0  0  0  0
    2.8463   -3.4472    0.5739 H   0  0  0  0  0  0  0  0  0  0  0  0
    1.7952   -4.8458    0.2583 H   0  0  0  0  0  0  0  0  0  0  0  0
   -6.6005   -1.7931    1.2022 H   0  0  0  0  0  0  0  0  0  0  0  0
    4.9579   -0.6680   -1.7664 H   0  0  0  0  0  0  0  0  0  0  0  0
    5.8505    0.8223   -1.3729 H   0  0  0  0  0  0  0  0  0  0  0  0
   -2.7808   -1.3885   -1.7259 H   0  0  0  0  0  0  0  0  0  0  0  0
    0.5260    1.1805   -0.4901 H   0  0  0  0  0  0  0  0  0  0  0  0
   -1.1723   -4.7393    1.6229 H   0  0  0  0  0  0  0  0  0  0  0  0
   -2.2903   -4.6351    0.2164 H   0  0  0  0  0  0  0  0  0  0  0  0
   -0.7040   -5.3930    0.0048 H   0  0  0  0  0  0  0  0  0  0  0  0
   -2.8115   -2.9972    1.7753 H   0  0  0  0  0  0  0  0  0  0  0  0
    0.7846   -4.5469    2.5589 H   0  0  0  0  0  0  0  0  0  0  0  0
    2.5591   -4.7208    2.6279 H   0  0  0  0  0  0  0  0  0  0  0  0
    4.7252   -1.0748    0.7776 H   0  0  0  0  0  0  0  0  0  0  0  0
    5.5934    0.4701    1.0551 H   0  0  0  0  0  0  0  0  0  0  0  0
    4.3055    3.8530   -2.2797 H   0  0  0  0  0  0  0  0  0  0  0  0
    5.5788    2.9344   -1.4192 H   0  0  0  0  0  0  0  0  0  0  0  0
    4.5394    4.0575   -0.4980 H   0  0  0  0  0  0  0  0  0  0  0  0
    2.1917    4.5586   -1.1345 H   0  0  0  0  0  0  0  0  0  0  0  0
   -7.6334   -3.4842   -0.3684 H   0  0  0  0  0  0  0  0  0  0  0  0
   -7.3855   -4.1881    1.2668 H   0  0  0  0  0  0  0  0  0  0  0  0
   -6.2501   -4.6083   -0.0754 H   0  0  0  0  0  0  0  0  0  0  0  0
   -6.8541   -1.5106   -1.5232 H   0  0  0  0  0  0  0  0  0  0  0  0
   -4.4543   -0.1203   -2.4319 H   0  0  0  0  0  0  0  0  0  0  0  0
   -5.8374   -0.6453   -3.4429 H   0  0  0  0  0  0  0  0  0  0  0  0
   -4.4693   -1.7834   -3.1998 H   0  0  0  0  0  0  0  0  0  0  0  0
   -2.4253    7.3155   -0.7033 H   0  0  0  0  0  0  0  0  0  0  0  0
   -3.3608    6.2656    0.4048 H   0  0  0  0  0  0  0  0  0  0  0  0
    1.0780    6.7300   -0.2735 H   0  0  0  0  0  0  0  0  0  0  0  0
   -0.3116    7.5271   -1.0794 H   0  0  0  0  0  0  0  0  0  0  0  0
    0.8275    6.5448   -2.0536 H   0  0  0  0  0  0  0  0  0  0  0  0
   -3.3997    6.1575   -2.6853 H   0  0  0  0  0  0  0  0  0  0  0  0
   -4.6605    6.8995   -1.6276 H   0  0  0  0  0  0  0  0  0  0  0  0
   -4.3947    5.1195   -1.5860 H   0  0  0  0  0  0  0  0  0  0  0  0
    0.8747   -1.4928    4.2934 H   0  0  0  0  0  0  0  0  0  0  0  0
    8.1401   -2.1171    1.4665 H   0  0  0  0  0  0  0  0  0  0  0  0
  1 27  2  0  0  0  0
  2 37  1  0  0  0  0
  2 80  1  0  0  0  0
  3 39  1  0  0  0  0
  3 81  1  0  0  0  0
  4 37  2  0  0  0  0
  5 39  2  0  0  0  0
  6 41  2  0  0  0  0
  7 12  1  0  0  0  0
  7 14  1  0  0  0  0
  7 44  1  0  0  0  0
  8 16  1  0  0  0  0
  8 22  1  0  0  0  0
  8 52  1  0  0  0  0
  9 21  1  0  0  0  0
  9 27  1  0  0  0  0
  9 56  1  0  0  0  0
 10 34  2  0  0  0  0
 10 41  1  0  0  0  0
 11 12  2  0  0  0  0
 11 13  1  0  0  0  0
 11 19  1  0  0  0  0
 12 17  1  0  0  0  0
 13 14  2  0  0  0  0
 13 26  1  0  0  0  0
 14 25  1  0  0  0  0
 15 16  1  0  0  0  0
 15 18  2  0  0  0  0
 15 24  1  0  0  0  0
 16 17  2  0  0  0  0
 17 45  1  0  0  0  0
 18 22  1  0  0  0  0
 18 30  1  0  0  0  0
 19 28  1  0  0  0  0
 19 46  1  0  0  0  0
 19 47  1  0  0  0  0
 20 23  1  0  0  0  0
 20 27  1  0  0  0  0
 20 32  1  0  0  0  0
 20 48  1  1  0  0  0
 21 23  1  0  0  0  0
 21 25  2  0  0  0  0
 22 31  2  0  0  0  0
 23 33  2  0  0  0  0
 24 29  1  0  0  0  0
 24 49  1  0  0  0  0
 24 50  1  0  0  0  0
 25 51  1  0  0  0  0
 26 53  1  0  0  0  0
 26 54  1  0  0  0  0
 26 55  1  0  0  0  0
 28 37  1  0  0  0  0
 28 57  1  0  0  0  0
 28 58  1  0  0  0  0
 29 39  1  0  0  0  0
 29 59  1  0  0  0  0
 29 60  1  0  0  0  0
 30 61  1  0  0  0  0
 30 62  1  0  0  0  0
 30 63  1  0  0  0  0
 31 34  1  0  0  0  0
 31 64  1  0  0  0  0
 32 65  1  0  0  0  0
 32 66  1  0  0  0  0
 32 67  1  0  0  0  0
 33 38  1  0  0  0  0
 33 68  1  0  0  0  0
 34 35  1  0  0  0  0
 35 36  2  0  0  0  0
 35 42  1  0  0  0  0
 36 40  1  0  0  0  0
 36 41  1  0  0  0  0
 38 69  1  0  0  0  0
 38 70  1  0  0  0  0
 38 71  1  0  0  0  0
 40 43  1  0  0  0  0
 40 72  1  0  0  0  0
 40 73  1  0  0  0  0
 42 74  1  0  0  0  0
 42 75  1  0  0  0  0
 42 76  1  0  0  0  0
 43 77  1  0  0  0  0
 43 78  1  0  0  0  0
 43 79  1  0  0  0  0
M  END
>  <MOL Chiral Flag>
1

>  <PUBCHEM_COMPOUND_CID>
5280816

>  <PUBCHEM_CONFORMER_RMSD>
1.2

>  <PUBCHEM_CONFORMER_DIVERSEORDER>
1
41
74
71
73
85
53
96
86
21
76
95
43
12
81
93
84
35
83
57
33
50
78
58
55
30
11
70
13
44
79
9
64
45
67
94
26
61
14
47
24
65
69
22
4
18
42
17
89
90
40
8
5
72
63
68
88
82
97
38
10
49
80
56
52
92
39
27
29
36
20
34
15
59
77
66
75
25
7
54
19
48
99
23
37
16
46
6
62
51
28
98
32
3
87
91
2
60
31

>  <PUBCHEM_MMFF94_PARTIAL_CHARGES>
50
1 -0.57
10 -0.66
11 -0.18
12 -0.2
13 -0.18
14 -0.2
15 -0.14
16 0.1
17 -0.11
18 -0.14
19 0.18
2 -0.65
20 0.2
21 0.11
22 0.1
23 -0.14
24 0.14
25 -0.11
26 0.18
27 0.57
28 0.06
29 0.06
3 -0.65
30 0.14
31 -0.14
33 -0.29
34 0.42
35 -0.12
36 -0.12
37 0.66
38 0.14
39 0.66
4 -0.57
40 0.14
41 0.77
42 0.14
44 0.27
45 0.15
5 -0.57
51 0.15
52 0.4
56 0.37
6 -0.57
64 0.15
68 0.15
7 0.03
8 -0.6
80 0.5
81 0.5
9 -0.54

>  <PUBCHEM_EFFECTIVE_ROTOR_COUNT>
10.4

>  <PUBCHEM_PHARMACOPHORE_FEATURES>
21
1 1 acceptor
1 10 acceptor
1 10 donor
1 2 acceptor
1 3 acceptor
1 38 hydrophobe
1 4 acceptor
1 43 hydrophobe
1 5 acceptor
1 6 acceptor
1 7 cation
1 7 donor
1 8 cation
1 8 donor
1 9 donor
3 2 4 37 anion
3 3 5 39 anion
5 10 34 35 36 41 rings
5 7 11 12 13 14 rings
5 8 15 16 18 22 rings
5 9 20 21 23 27 rings

>  <PUBCHEM_HEAVY_ATOM_COUNT>
43

>  <PUBCHEM_ATOM_DEF_STEREO_COUNT>
1

>  <PUBCHEM_ATOM_UDEF_STEREO_COUNT>
0

>  <PUBCHEM_BOND_DEF_STEREO_COUNT>
4

>  <PUBCHEM_BOND_UDEF_STEREO_COUNT>
0

>  <PUBCHEM_ISOTOPIC_ATOM_COUNT>
0

>  <PUBCHEM_COMPONENT_COUNT>
1

>  <PUBCHEM_CACTVS_TAUTO_COUNT>
84

>  <PUBCHEM_CONFORMER_ID>
0050943000000001

>  <PUBCHEM_MMFF94_ENERGY>
94.2971

>  <PUBCHEM_FEATURE_SELFOVERLAP>
106.74

>  <PUBCHEM_SHAPE_FINGERPRINT>
10190206 1 18335144164072841934
10675989 125 18121497123103361036
10815517 723 18271535229724353564
11421498 54 18408601435558984050
12156800 1 18127670687713935506
12633046 712 17975700798485101511
12788726 201 18410005516355218635
14028597 1 18113609072214176970
14068700 675 17917437561312282257
15276724 80 18272655679856138268
15420108 30 17977104561791502064
15975801 100 18267305331293768584
19311894 1 18267309913681650635
20764821 26 18339065005336912661
21133410 62 18187928434948322555
21792965 11 17168156624128015001
24893992 56 18337393846721559019
6086070 43 18190446345929362655

>  <PUBCHEM_SHAPE_MULTIPOLES>
829.78
14.04
7.34
2.49
8.26
10.75
0.21
-7.93
-6.63
-4.51
1.16
-0.84
-2.28
-2.88

>  <PUBCHEM_SHAPE_SELFOVERLAP>
1785.62

>  <PUBCHEM_SHAPE_VOLUME>
462.6

>  <PUBCHEM_COORDINATE_TYPE>
2
5
10

$$$$
