%NProcShared=8
%Chk=pheophytin-s1-geom-freq.chk
%Mem=5GB
#n B3LYP/SVP Opt Freq=savenormalmodes td

 pheophytin-s1-geom-freq

0 1
C         -5.11302       -1.92758        0.46124
C         -4.74681        2.76548        1.39614
C         -9.33090        3.32201       -0.22532
C         -9.81945       -1.45197       -0.93447
N         -5.17838        0.44377        0.81563
C         -4.50384       -0.73279        0.82557
C         -3.05314       -0.56565        1.27004
C         -3.06035        0.88108        1.82894
C         -4.39807        1.41182        1.31403
C         -2.96432        0.94488        3.36137
C         -2.05929       -0.78038        0.11054
C         -0.59788       -0.75783        0.55547
C          0.37339       -1.04127       -0.57442
O          0.07232       -1.46633       -1.66389
O          1.63803       -0.77227       -0.20557
N         -7.04405        2.74728        0.48491
C         -5.94425        3.37582        1.00143
C         -6.24814        4.78561        1.05507
C         -7.52903        4.96164        0.54473
C         -8.05054        3.64506        0.20845
C         -5.29483        5.83485        1.53734
C         -8.20717        6.24988        0.38499
C         -9.05102        6.61278       -0.59521
N         -9.20799        0.87767       -0.48532
C         -9.87137        2.05501       -0.53731
C        -11.26134        1.86439       -0.97166
C        -11.41049        0.51660       -1.18045
C        -10.10774       -0.08048       -0.86757
C        -12.27499        2.95498       -1.13910
C        -12.62261       -0.22520       -1.67040
C        -12.62869       -0.47736       -3.18829
N         -7.50042       -1.26315       -0.21471
C         -8.58413       -2.03273       -0.62638
C         -8.17561       -3.41118       -0.64433
C         -6.84091       -3.40172       -0.23376
C         -6.44897       -2.06181        0.02924
C         -9.01242       -4.59251       -1.02006
C         -5.71055       -4.28965        0.03054
O         -5.63510       -5.49470       -0.03734
C         -4.51371       -3.33238        0.44938
C         -3.92202       -3.80906        1.76474
O         -4.19926       -3.38066        2.85932
O         -3.05312       -4.81027        1.55572
C         -2.52296       -5.44554        2.71860
C          2.66831       -1.05102       -1.17974
C          3.98753       -0.70498       -0.56900
C          4.96743        0.04945       -1.10043
C          4.88804        0.72268       -2.44883
C          6.26255        0.25261       -0.34086
C          7.49760       -0.39817       -0.99133
C          8.77399       -0.20015       -0.16653
C         10.07074       -0.74673       -0.79645
C         10.02961       -2.27197       -0.96715
C         11.29150       -0.28685        0.02556
C         12.66326       -0.57683       -0.59477
C         13.82411       -0.00774        0.22945
C         15.23088       -0.19118       -0.37442
C         15.62428       -1.67135       -0.48232
C         16.26256        0.62483        0.42978
C         17.67111        0.70082       -0.17099
C         18.61076        1.61671        0.62184
C         20.07098        1.66195        0.13273
C         20.20301        2.22424       -1.28922
C         20.94479        2.45661        1.11212
H         -3.99340        3.43768        1.81119
H        -10.01147        4.16758       -0.31677
H        -10.61744       -2.12845       -1.24527
H         -2.82673       -1.28765        2.07124
H         -2.23685        1.47777        1.40088
H         -1.99742        0.54632        3.70896
H         -3.05508        1.97950        3.72805
H         -3.76403        0.34815        3.82824
H         -2.25492       -1.74267       -0.38553
H         -2.22661       -0.01191       -0.66306
H         -0.31180        0.20146        1.01639
H         -0.41661       -1.52041        1.33492
H         -4.40184        5.89632        0.89200
H         -5.75794        6.83085        1.54705
H         -4.93913        5.61956        2.55866
H         -7.95991        7.00125        1.14446
H         -9.30648        5.94839       -1.42414
H         -9.49253        7.61273       -0.60777
H        -12.40638        3.53813       -0.21187
H        -11.98152        3.67043       -1.92683
H        -13.25977        2.55164       -1.41645
H        -12.70627       -1.19073       -1.14249
H        -13.52975        0.33845       -1.39641
H        -12.60370        0.47187       -3.74656
H        -11.75032       -1.06426       -3.50048
H        -13.53247       -1.02905       -3.49458
H         -9.90451       -4.67680       -0.37698
H         -9.37021       -4.52054       -2.06102
H         -8.42825       -5.51733       -0.92044
H         -3.74149       -3.46710       -0.32651
H         -1.84607       -6.22904        2.35666
H         -1.97554       -4.72516        3.34557
H         -3.32984       -5.88908        3.32124
H          2.61092       -2.12357       -1.43833
H          2.45106       -0.49419       -2.10233
H          4.15228       -1.14686        0.42097
H          5.21171        1.77491       -2.37280
H          5.56383        0.24038       -3.17598
H          3.87882        0.70813       -2.88175
H          6.44984        1.33875       -0.23809
H          6.14955       -0.14110        0.68293
H          7.29215       -1.47275       -1.13240
H          7.65458        0.01979       -2.00171
H          8.90513        0.88159        0.01852
H          8.63937       -0.65848        0.83188
H         10.16331       -0.29557       -1.80425
H          9.17684       -2.59307       -1.58452
H         10.93969       -2.65400       -1.45395
H          9.93980       -2.77314        0.01269
H         11.20703        0.80220        0.19415
H         11.24037       -0.74764        1.03070
H         12.79289       -1.66429       -0.71787
H         12.69848       -0.14921       -1.61466
H         13.64845        1.07289        0.38089
H         13.80773       -0.45572        1.24154
H         15.20656        0.22794       -1.39987
H         14.90447       -2.24418       -1.08667
H         16.61126       -1.79963       -0.95216
H         15.66721       -2.13867        0.51729
H         15.87727        1.65430        0.54541
H         16.32343        0.21377        1.45577
H         18.11778       -0.30789       -0.22132
H         17.59414        1.05112       -1.21568
H         18.20311        2.64604        0.62610
H         18.60746        1.29191        1.67850
H         20.44668        0.62039        0.11844
H         19.81643        3.25730       -1.34098
H         21.25756        2.24930       -1.60893
H         19.65027        1.62378       -2.02819
H         20.89764        2.03532        2.12963
H         22.00143        2.45973        0.79843
H         20.61371        3.50800        1.17262
H         -7.12167        1.74127        0.37154
H         -7.59452       -0.24824       -0.13872

