--Link1--
#n B3LYP/SVP Opt=ReadFC Geom=AllCheck Guess=Read Freq=savenormalmodes Td

pheophytin-s1-geom-freq

  0  1
C,-6.72702602173913,-2.1317751086956522,0.453749
C,-6.323949021739129,2.567874891304348,1.423239
C,-10.90309502173913,3.1782018913043477,-0.233838
C,-11.42702002173913,-1.603889108695652,-0.948546
N,-6.78805102173913,0.24555389130434793,0.82542
C,-6.11455502173913,-0.9299991086956522,0.829144
C,-4.66799402173913,-0.7750001086956522,1.277506
C,-4.67400702173913,0.6589888913043479,1.864946
C,-5.995950021739129,1.209710891304348,1.340886
C,-4.60055202173913,0.6871548913043479,3.40142
C,-3.6721030217391295,-0.9696941086956521,0.113923
C,-2.2116500217391297,-0.9612871086956521,0.562349
C,-1.24059002173913,-1.230662108695652,-0.571428
O,-1.54289002173913,-1.642936108695652,-1.665454
O,0.02371697826087016,-0.9656501086956522,-0.20008
N,-8.62372102173913,2.5827458913043477,0.49406
C,-7.51372102173913,3.2028398913043477,1.018746
C,-7.792806021739129,4.609326891304348,1.064483
C,-9.07488602173913,4.806934891304348,0.537699
C,-9.611027021739131,3.494175891304348,0.206637
C,-6.823967021739129,5.642340891304348,1.549961
C,-9.71964902173913,6.102987891304347,0.369457
C,-10.65030302173913,6.467258891304348,-0.533837
N,-10.79153802173913,0.7254188913043479,-0.490246
C,-11.44775702173913,1.9171478913043478,-0.541893
C,-12.84315102173913,1.733769891304348,-0.979287
C,-13.00112602173913,0.3897508913043479,-1.189384
C,-11.698447021739131,-0.2193411086956521,-0.875196
C,-13.84355902173913,2.8344738913043477,-1.145709
C,-14.21455702173913,-0.34885110869565206,-1.67765
C,-14.200835021739131,-0.6433711086956521,-3.188156
N,-9.10427402173913,-1.436690108695652,-0.226549
C,-10.19567602173913,-2.193693108695652,-0.640716
C,-9.79945902173913,-3.5838201086956523,-0.662615
C,-8.46524902173913,-3.5909921086956524,-0.248947
C,-8.06013502173913,-2.251844108695652,0.018459
C,-10.65568002173913,-4.745835108695652,-1.044932
C,-7.34431602173913,-4.487566108695653,0.013304
O,-7.27697002173913,-5.694748108695652,-0.059204
C,-6.139485021739129,-3.538708108695652,0.437504
C,-5.55138302173913,-4.022883108695652,1.751147
O,-5.80941402173913,-3.580276108695652,2.84536
O,-4.7103740217391294,-5.047022108695653,1.54257
C,-4.19022802173913,-5.690782108695652,2.705297
C,1.05403497826087,-1.232929108695652,-1.177947
C,2.37337097826087,-0.8936011086956521,-0.563868
C,3.35146697826087,-0.1303111086956521,-1.085954
C,3.2693669782608703,0.5617478913043479,-2.42461
C,4.64734797826087,0.0638818913043479,-0.325369
C,5.88219697826087,-0.576504108695652,-0.986466
C,7.159698978260871,-0.3877661086956521,-0.161201
C,8.45592197826087,-0.9250091086956521,-0.800201
C,8.41653497826087,-2.4481771086956523,-0.988853
C,9.677722978260869,-0.47312910869565206,0.02468
C,11.04862297826087,-0.7550511086956521,-0.601228
C,12.210396978260869,-0.1928041086956521,0.226374
C,13.616257978260869,-0.3694771086956521,-0.381642
C,14.011192978260869,-1.848216108695652,-0.502645
C,14.648496978260871,0.4410528913043479,0.427356
C,16.05608197826087,0.5228258913043479,-0.174922
C,16.99595897826087,1.433974891304348,0.623071
C,18.45550997826087,1.483911891304348,0.132396
C,18.585173978260872,2.055852891304348,-1.28591
C,19.329812978260872,2.272803891304348,1.115993
H,-5.56385502173913,3.2263218913043477,1.847617
H,-11.57968102173913,4.025799891304348,-0.323261
H,-12.232132021739131,-2.2697351086956523,-1.261061
H,-4.4450160217391295,-1.516194108695652,2.062053
H,-3.8398550217391296,1.260653891304348,1.465016
H,-3.6403720217391298,0.27594789130434794,3.752747
H,-4.69252802173913,1.713728891304348,3.788988
H,-5.40973702173913,0.08314189130434793,3.841543
H,-3.87099202173913,-1.921058108695652,-0.401437
H,-3.8361450217391297,-0.18457810869565208,-0.643393
H,-1.92229702173913,-0.011094108695652083,1.039695
H,-2.03540202173913,-1.738035108695652,1.32881
H,-5.918957021739129,5.678788891304348,0.91862
H,-7.2633430217391295,6.648977891304348,1.54403
H,-6.4877610217391295,5.431670891304348,2.579394
H,-9.36454202173913,6.879827891304347,1.056937
H,-11.02160302173913,5.790309891304347,-1.30604
H,-11.04273902173913,7.487311891304348,-0.542959
H,-13.97005702173913,3.415179891304348,-0.216014
H,-13.536308021739131,3.550517891304348,-1.927825
H,-14.831531021739131,2.4439828913043478,-1.429531
H,-14.31727202173913,-1.298572108695652,-1.124262
H,-15.11810802173913,0.2335508913043479,-1.433227
H,-14.16038102173913,0.29001389130434796,-3.771566
H,-13.323454021739131,-1.245871108695652,-3.472033
H,-15.104799021739131,-1.196254108695652,-3.491413
H,-11.550063021739131,-4.818916108695652,-0.401961
H,-11.01642902173913,-4.659700108695652,-2.084794
H,-10.088476021739131,-5.682036108695653,-0.953465
H,-5.36825802173913,-3.6763221086956523,-0.339402
H,-3.53685102173913,-6.493798108695652,2.34296
H,-3.6198140217391295,-4.982445108695652,3.325497
H,-5.00497702173913,-6.109835108695652,3.314798
H,0.9965509782608699,-2.3024241086956523,-1.448667
H,0.8360399782608703,-0.665455108695652,-2.093807
H,2.5401099782608707,-1.349130108695652,0.419556
H,3.5918239782608703,1.613186891304348,-2.334126
H,3.94483097826087,0.09061289130434794,-3.159329
H,2.25961697826087,0.5521058913043478,-2.856431
H,4.83349797826087,1.148725891304348,-0.207996
H,4.53621097826087,-0.34398210869565204,0.693059
H,5.6779379782608705,-1.649381108695652,-1.141539
H,6.036957978260871,-0.14488110869565207,-1.991423
H,7.29005297826087,0.6916498913043478,0.037415
H,7.027169978260871,-0.8589651086956521,0.831471
H,8.545815978260869,-0.4618181086956521,-1.802771
H,7.562592978260871,-2.763207108695652,-1.607745
H,9.32585897826087,-2.823071108695652,-1.482544
H,8.33005097826087,-2.9610601086956523,-0.014785
H,9.592567978260869,0.6139268913043479,0.205374
H,9.62877497826087,-0.9449801086956521,1.024783
H,11.179388978260869,-1.841045108695652,-0.735572
H,11.081302978260869,-0.3171061086956521,-1.616815
H,12.03411397826087,0.8862068913043478,0.388259
H,12.19611397826087,-0.6502951086956521,1.234238
H,13.58949497826087,0.058166891304347906,-1.403502
H,13.29051897826087,-2.4169971086956523,-1.109795
H,14.99710597826087,-1.971440108695652,-0.976074
H,14.05729297826087,-2.323649108695652,0.492987
H,14.262552978260869,1.469277891304348,0.551564
H,14.71124197826087,0.02207389130434792,1.450032
H,16.503695978260872,-0.4850491086956521,-0.233153
H,15.97721497826087,0.8805338913043478,-1.216954
H,16.587409978260872,2.462887891304348,0.63505
H,16.994326978260872,1.101796891304348,1.677444
H,18.832170978260873,0.44282789130434785,0.110629
H,18.197496978260872,3.088843891304348,-1.330258
H,19.63929697826087,2.0841268913043476,-1.606766
H,18.03211097826087,1.459798891304348,-2.028188
H,19.284337978260872,1.8446618913043482,2.130722
H,20.38605197826087,2.2789988913043477,0.801002
H,18.997841978260873,3.323459891304348,1.183956
H,-8.71770602173913,1.577444891304348,0.387432
H,-9.18186502173913,-0.42107910869565207,-0.146798

