%nproc=4
%Mem=2GB
# td(NStates=1) B3LYP/SVP nosymm

phycocyanobilin-emi Single Point

0 1
O  -4.22221589  -4.95298320   1.79983234
O   2.85095787  -4.90701547   1.07809779
O   6.97744439  -1.59206129   1.85058454
O   3.59921522  -3.06449548   0.14972690
O   7.66867614  -0.46349748   0.02265235
O  -3.06103678   2.37433313  -0.44270772
N  -0.28386330  -0.53906863  -0.63358676
N   1.51981413   1.92511541  -0.52071306
N  -3.21424875  -3.12631321   0.73294408
N  -0.81717590   2.95999606  -0.10425965
C   0.69767147  -2.39018787  -1.46451001
C   0.89181959  -1.05176430  -1.08264296
C  -0.67793096  -2.64673604  -1.20661882
C  -1.30113377  -1.46010212  -0.74396173
C   3.77215294   1.51423279  -0.34780795
C   2.40768825   0.88029149  -0.60009524
C   2.13147507  -0.46832401  -0.90187148
C   3.47341958   2.78605264   0.17537354
C   1.64517923  -3.44225733  -2.14051201
C  -5.39181113  -2.80704579   1.37285655
C  -3.56143469  -1.83728533   0.26516717
C   2.02081864   3.03419146  -0.01862020
C  -4.89779683  -1.57820566   0.58976891
C   5.11837349   0.78305719  -0.42777099
C  -2.54104167  -1.00498558  -0.39967053
C  -1.50906952  -3.82730788  -1.72349270
C  -4.23226759  -3.78728260   1.40439481
C   2.10709017  -4.51675871  -1.15890265
C   5.41691371  -0.15150483   0.86963563
C   4.39331126   3.90273759   0.67937668
C   1.22862918   4.13810763   0.32377378
C  -6.69032395  -3.51049259   0.84420956
C  -5.72619726  -0.63337830   0.07640828
C  -0.17661534   4.08422235   0.21651951
C  -0.99119547   5.18007155   0.38346070
C  -2.31343340   4.69376151   0.13263281
C   2.88269110  -4.03110864   0.08296402
C  -5.38483118   0.53342069  -0.63507132
C   6.79678355  -0.73537217   0.83561244
C  -3.63576984   5.34530360   0.38106781
C  -2.16066859   3.22713187  -0.28436501
C  -0.60544821   6.53305634   0.86076040
C  -4.38165577   5.70005156  -0.99924082
H  -0.41538946   0.29460368   0.02245592
H   3.06595706  -1.03732273  -1.10993493
H   2.69277367  -2.97011214  -2.37757396
H   1.17943763  -3.70230951  -2.94056201
H  -5.52391112  -2.38418191   2.34998469
H   5.02234753   0.00405719  -1.39899492
H   5.93835747   1.50675402  -0.67282743
H  -2.69840734   0.14908762  -0.41303716
H   0.41625885   1.81676064  -0.48330799
H  -1.64764825  -4.68962494  -1.08270664
H  -2.46323693  -3.51752053  -1.93554814
H  -0.98778942  -4.27321584  -2.45837868
H  -2.39488267  -3.86461175   0.37938181
H   1.17341611  -5.01066072  -0.71420003
H   2.68480613  -5.27850657  -1.54594844
H   4.62178001  -0.89144373   0.81374652
H   5.25432618   0.41532232   1.94079672
H   4.17447642   4.92841792   0.27898561
H   5.49440584   3.76002205   0.27231705
H   4.64065873   3.94467854   1.66362347
H   1.74845711   4.85417090   0.89866922
H  -7.47556879  -2.86659505   1.28524757
H  -6.94029398  -4.34324648   1.39771956
H  -7.00269170  -3.72787155  -0.22501117
H  -6.69095383  -0.60715154   0.41356699
H  -4.62106307   1.38783881  -0.01708641
H  -6.28671980   1.03714656  -0.96054837
H  -4.75459047   0.21404181  -1.59627044
H  -3.44175723   6.19332383   1.06961272
H  -4.34808345   4.66573428   1.01278037
H  -0.12811282   6.47332933   2.02185222
H  -1.40504482   7.18160619   1.03572350
H   0.05329983   7.10386816   0.12539276
H  -3.65166195   6.44037540  -1.69837311
H  -5.32417223   6.05626434  -0.78274279
H  -4.38927045   4.67956446  -1.59806174
H   3.43215132  -4.67916709   1.87715486
H   7.90143844  -1.82870593   1.77732787




