%nproc=4
%Mem=2GB
# td(NStates=1) B3LYP/SVP nosymm

phycocyanobilin-emi Single Point

0 1
O  -4.25489200  -4.88628800   1.81971600
O   2.98971300  -4.85693200   1.07862700
O   6.95695700  -1.55730300   1.87320500
O   3.79942500  -3.11975000  -0.07660600
O   7.59463400  -0.54104900  -0.01967300
O  -3.03413900   2.38949200  -0.39438600
N  -0.26005300  -0.49806900  -0.58987100
N   1.54507300   1.84567500  -0.37422400
N  -3.28011000  -3.13887000   0.67681400
N  -0.79504300   2.89850600  -0.08154200
C   0.64735700  -2.38041600  -1.41704900
C   0.94097700  -1.05768300  -0.97151100
C  -0.73871300  -2.59637800  -1.25937300
C  -1.29578000  -1.40688600  -0.70870000
C   3.78539200   1.51833500  -0.27733200
C   2.49894200   0.88174500  -0.55815000
C   2.22749800  -0.43742100  -0.89525400
C   3.53359900   2.83197800   0.09009700
C   1.62594900  -3.35298700  -2.01654400
C  -5.49093300  -2.80385100   1.34735700
C  -3.58140700  -1.86024100   0.21068200
C   2.09687900   3.03005800   0.03376600
C  -4.99303700  -1.62036100   0.51956100
C   5.10738100   0.81083100  -0.34041300
C  -2.63184300  -1.02444600  -0.35526200
C  -1.49337900  -3.79246900  -1.76683200
C  -4.31331600  -3.77768200   1.33874400
C   2.06866300  -4.48976300  -1.07773200
C   5.37197600  -0.11876500   0.85452800
C   4.50938700   3.89150700   0.49799700
C   1.27321600   4.12449700   0.32279400
C  -6.79349400  -3.47220200   0.89937900
C  -5.79419400  -0.59216000   0.13833100
C  -0.14080700   4.03750200   0.24188100
C  -1.08901400   5.15466300   0.46534500
C  -2.33526300   4.64498600   0.24094000
C   3.03418000  -4.05329800   0.00310800
C  -5.46290500   0.58711400  -0.70535200
C   6.75121000  -0.73530400   0.82101800
C  -3.68457100   5.28941500   0.28489300
C  -2.14448400   3.20039000  -0.11230200
C  -0.68408900   6.54330000   0.84948400
C  -4.29437400   5.52043300  -1.10908500
H  -0.39415100   0.40134200  -0.13260300
H   3.07639000  -1.09858800  -1.05912600
H   2.52118700  -2.82403400  -2.37452900
H   1.16993800  -3.81889100  -2.90639900
H  -5.60272700  -2.49375300   2.40460100
H   5.17487500   0.21618600  -1.26652700
H   5.92432600   1.54471900  -0.40425400
H  -2.86782300   0.04209700  -0.44602500
H   0.51769400   1.86156100  -0.52554500
H  -1.47264200  -4.65429500  -1.07490200
H  -2.54889000  -3.55413600  -1.95866900
H  -1.05820100  -4.14931200  -2.71410700
H  -2.34613700  -3.53269300   0.65334800
H   1.21170700  -4.99301700  -0.60610100
H   2.59895600  -5.26893100  -1.65618100
H   4.64767000  -0.94836600   0.89263900
H   5.26654600   0.41961300   1.81196900
H   4.38474400   4.80583600  -0.10628200
H   5.54908300   3.55466800   0.38210400
H   4.36967400   4.18527900   1.55283100
H   1.73221400   5.06822600   0.61924800
H  -7.65431700  -2.79916500   1.02730400
H  -6.96936100  -4.37617900   1.50159600
H  -6.74303000  -3.76583900  -0.16088400
H  -6.82477700  -0.64091500   0.50998900
H  -4.90027900   1.36179100  -0.14738700
H  -6.37622600   1.05925000  -1.09683900
H  -4.80688000   0.32837800  -1.55235200
H  -3.63014500   6.24594900   0.83123500
H  -4.36561800   4.63668100   0.85973700
H  -0.10855500   6.55434600   1.79158400
H  -1.55889700   7.19545300   0.98648300
H  -0.04168000   7.00714300   0.08042900
H  -3.67093000   6.20374300  -1.70797500
H  -5.30292800   5.95883900  -1.03122800
H  -4.37523100   4.56829700  -1.65492000
H   3.66599500  -4.53787500   1.70217600
H   7.85975400  -1.90611000   1.77617000




