%NProcShared=4
#n B3LYP/SVP Opt

 chlorophyll-b-s0-geom

0 1
C         -4.23400      -15.92300        0.00000
C         -4.68600      -14.45000        0.00000
C         -4.27000      -12.93500        0.00000
C         -5.02200      -11.63500        0.00000
C         -6.56600      -11.57100        0.00000
O         -7.88300      -12.33500        0.00000
C         -4.01800      -10.51900        0.00000
C         -4.18000       -8.57400        0.00000
C         -3.51700       -7.22600        0.00000
C         -2.40000       -8.23000        0.00000
C         -2.00200       -9.65000        0.00000
C         -0.82400      -10.56000        0.00000
C         -1.10100       -7.47800        0.00000
C          0.29200       -7.99400        0.00000
C         -1.41400       -6.00900        0.00000
C          0.53000       -5.84800        0.00000
C          1.87800       -6.51000        0.00000
C          3.34600       -6.19700        0.00000
C          3.54100       -4.65800        0.00000
C          4.09800       -7.49600        0.00000
C          5.50100       -6.76400        0.00000
C          6.73100       -5.78900        0.00000
C          8.27100       -5.93100        0.00000
O          8.69300       -7.37200        0.00000
O          9.32600       -4.82800        0.00000
C         10.69300       -5.61700        0.00000
C         11.99400       -4.86600        0.00000
C         13.29400       -5.61700        0.00000
C         13.29400       -7.11900        0.00000
C         14.59400       -4.86600        0.00000
C         15.89500       -5.61700        0.00000
C         17.19500       -4.86600        0.00000
C         18.49500       -5.61700        0.00000
C         18.49500       -7.11900        0.00000
C         19.79500       -4.86600        0.00000
C         21.09600       -5.61700        0.00000
C         22.39600       -4.86600        0.00000
C         23.69600       -5.61700        0.00000
C         23.69600       -7.11900        0.00000
C         24.99700       -4.86600        0.00000
C         26.29700       -5.61700        0.00000
C         27.59700       -4.86600        0.00000
C         28.89800       -5.61700        0.00000
C         30.19800       -4.86600        0.00000
C         28.89800       -7.11900        0.00000
C          3.09500       -8.61300        0.00000
N          1.72200       -8.00400        0.00000
Mg        -0.80000       -9.16800        0.00000
N         -2.90800       -5.85400        0.00000
N          0.63400      -11.68800        0.00000
C          0.30400      -13.15300        0.00000
C         -1.45400      -13.28400        0.00000
C         -2.80100      -12.62100        0.00000
N         -2.64600      -11.12800        0.00000
C          1.59500      -13.91900        0.00000
C          1.84400      -15.42400        0.00000
C          2.72300      -12.92800        0.00000
C          4.21800      -12.78900        0.00000
O          5.04000      -14.08800        0.00000
C          4.54800      -11.32400        0.00000
C          6.11500      -11.41200        0.00000
O          7.51700      -12.02000        0.00000
O          7.45000      -10.56700        0.00000
C          8.78000      -11.26500        0.00000
C          3.25600      -10.55800        0.00000
C          2.12800      -11.54900        0.00000

