%NProcShared=4
%Chk=chlorophyll-b-s0-geom.chk
%Mem=6GB
#n B3LYP/SVP Opt

 chlorophyll-b-s0-geom

0 1
Mg        39.84073      110.02425       11.74294
C         37.30261      109.08216       13.81671
C         38.75717      107.84190        9.32410
C         42.31398      111.30141        9.70774
C         40.68981      112.29968       14.20432
N         38.25704      108.65182       11.59152
C         37.35379      108.40725       12.48511
C         36.29933      107.42745       12.00587
C         36.87334      106.91831       10.66881
C         38.03308      107.84485       10.45635
C         37.37508      105.46797       10.77149
C         34.93536      108.15957       11.84380
C         34.98259      109.41263       10.93413
C         33.93930      110.42654       11.31716
O         33.97825      110.91193       12.43999
O         33.03459      110.86701       10.40769
N         40.47421      109.61587        9.81792
C         39.92311      108.69783        8.99839
C         40.60480      108.67696        7.78938
C         41.61408      109.62865        7.86523
C         41.49310      110.20248        9.14751
C         40.33256      107.79982        6.59207
C         42.54596      109.86326        6.70683
C         43.62306      110.65474        6.61858
N         41.26371      111.53110       11.92142
C         42.19865      111.87540       10.91904
C         43.02769      112.99075       11.42871
C         42.56572      113.26331       12.65490
C         41.46254      112.31184       12.93295
C         44.16506      113.69316       10.77103
O         44.53410      113.40921        9.64479
C         43.08381      114.35057       13.57766
C         42.72906      115.74343       13.05355
N         39.19802      110.56342       13.59617
C         39.65860      111.49331       14.46426
C         38.88397      111.48187       15.64449
C         37.94007      110.51458       15.41648
C         38.15361      110.01157       14.20647
C         38.98826      112.31376       16.88668
C         36.80003      109.85974       15.99571
O         36.31292      110.08635       17.09177
C         36.29255      108.88215       14.96271
C         36.27731      107.47043       15.47525
O         37.31005      106.94627       15.87157
O         35.10105      106.79335       15.49016
C         34.95925      105.49898       15.94006
C         32.28933      112.03249       10.53197
C         32.59408      112.91025        9.35027
C         32.35188      112.55074        8.06835
C         31.64640      111.26200        7.70090
C         32.78449      113.44471        6.92506
C         34.27749      113.83736        6.95570
C         35.29310      112.70273        7.21886
C         35.28878      111.48900        6.26013
C         35.51443      111.93112        4.80233
C         36.40570      110.51057        6.72168
C         36.36946      109.10555        6.08854
C         35.29786      108.19497        6.72876
C         35.32730      106.76034        6.14514
C         34.63631      106.71037        4.77222
C         34.78741      105.65070        7.09656
C         33.28045      105.58591        7.41099
C         32.76469      106.69162        8.34600
C         31.26403      106.53614        8.68735
C         30.86386      107.58050        9.73618
C         30.37370      106.69612        7.44229
H         38.42971      107.14023        8.56947
H         43.06343      111.70499        9.08496
H         40.96736      113.01126       14.96407
H         36.17244      106.58597       12.72252
H         36.12080      106.98966        9.85728
H         36.52658      104.78835       10.99741
H         38.13409      105.36888       11.57904
H         37.83269      105.14064        9.81410
H         34.62604      108.46100       12.85079
H         34.13794      107.47059       11.49261
H         34.90949      109.11291        9.86777
H         35.93843      109.95800       11.06045
H         39.48981      107.10154        6.73323
H         41.23417      107.19106        6.36979
H         40.09523      108.43570        5.71385
H         42.33672      109.30561        5.80025
H         44.02349      111.27267        7.39301
H         44.17283      110.68144        5.68245
H         44.70568      114.46792       11.30074
H         44.18129      114.24037       13.70624
H         42.63448      114.27178       14.58335
H         41.62499      115.84819       12.98043
H         43.16563      115.94016       12.05531
H         43.10944      116.51328       13.75731
H         38.04357      112.87943       17.02838
H         39.82465      113.03661       16.84123
H         39.14525      111.64905       17.76135
H         35.27211      109.19820       14.68109
H         33.89612      105.19629       15.84348
H         35.25387      105.43159       17.00908
H         35.58419      104.81165       15.33118
H         32.55393      112.59088       11.45719
H         31.20619      111.79716       10.57777
H         33.07750      113.86114        9.55652
H         32.29022      110.61499        7.07931
H         30.73194      111.50917        7.12205
H         31.31974      110.67393        8.57233
H         32.18777      114.38332        6.93917
H         32.56645      112.92948        5.96490
H         34.42587      114.57492        7.77383
H         34.51851      114.36828        6.01025
H         35.11224      112.32068        8.24732
H         36.30498      113.16430        7.21398
H         34.30818      110.99058        6.33702
H         35.50166      111.06682        4.10982
H         36.49164      112.45207        4.70298
H         34.71213      112.62033        4.46923
H         36.37484      110.36916        7.82559
H         37.38317      110.98739        6.48854
H         37.34962      108.62886        6.30859
H         36.27503      109.16961        4.98823
H         34.29339      108.64603        6.61814
H         35.55390      108.13424        7.80667
H         36.39811      106.48603        6.01305
H         34.70423      105.68905        4.34181
H         35.10794      107.41541        4.05939
H         33.56384      106.98617        4.86578
H         35.36117      105.66094        8.04762
H         35.02978      104.68423        6.60010
H         33.10298      104.62105        7.93764
H         32.72140      105.54961        6.45822
H         32.90808      107.69003        7.90524
H         33.35505      106.63654        9.28712
H         31.08624      105.53074        9.12927
H         29.79047      107.47217       10.00117
H         31.02940      108.60281        9.34765
H         31.46466      107.45208       10.66129
H         30.56903      105.89910        6.69790
H         30.54520      107.68488        6.96379
H         29.30231      106.61681        7.72252

