--Link1--
<<<<<<< HEAD

%NProcShared=6
%OldChk=b-carotene-s0.chk
%Chk=b-carotene-charged-sp.chk
%Mem=6GB
#n wB97XD/Def2TZVP Geom=Checkpoint Guess=Read

 b-carotene-charged-sp

1 2
=======
%Mem=7GB
%CPU=0-6
%OldChk=b-carotene-s0.chk
%Chk=b-carotene-s0-sp.chk
#n wB97XD/Def2TZVP Geom=Checkpoint 

b-carotene-s0-sp

  1  2

>>>>>>> fc88ea9dce660de2dd9fc91a9a5b5562aacd3d83
