%NProcShared=4
%Mem=3GB
%Chk=cla-s0-wb97x-aug-cc-pVTZ.chk
#n wB97X/Gen Opt

 cla-s0-wb97x-aug-cc-pVTZ

0 1
Mg         7.08860        0.68991       -0.13458
C          4.97277       -2.03346       -0.51824
C          4.63085        2.72090       -1.33787
C          9.16247        3.34820        0.31614
C          9.59678       -1.46066        0.96522
N          5.06727        0.36497       -0.80857
C          4.38373       -0.82558       -0.85223
C          2.94098       -0.61372       -1.28786
C          2.97326        0.83657       -1.83552
C          4.29502        1.36965       -1.28883
C          2.92377        0.90330       -3.37066
C          1.95387       -0.81547       -0.11932
C          0.48916       -0.76564       -0.55011
C         -0.47639       -1.01247        0.59329
O         -0.16723       -1.38159        1.70074
O         -1.74473       -0.77691        0.21539
N          6.91882        2.69367       -0.44258
C          5.83318        3.34760       -0.93926
C          6.09755        4.77689       -1.01062
C          7.38531        4.96097       -0.53134
C          7.89355        3.63111       -0.18946
C          5.15104        5.80665       -1.54352
C          8.15980        6.19072       -0.39413
C          7.69374        7.44499       -0.25462
N          9.04294        0.90315        0.53341
C          9.70718        2.08703        0.64871
C         11.05167        1.86225        1.15412
C         11.17792        0.49903        1.33353
C          9.90425       -0.08784        0.94099
C         12.06748        2.93337        1.41405
C         12.36202       -0.25536        1.87199
C         12.30578       -0.50280        3.38945
N          7.29240       -1.29591        0.16911
C          8.37689       -2.04896        0.60599
C          8.03116       -3.46188        0.62452
C          6.70930       -3.50588        0.18823
C          6.31022       -2.16481       -0.07339
C          8.91093       -4.60305        1.02540
C          5.58982       -4.39948       -0.10244
O          5.51260       -5.60501       -0.05120
C          4.38193       -3.44091       -0.52961
C          3.80367       -3.90024       -1.85598
O          4.04946       -3.42015       -2.93741
O          2.98188       -4.94616       -1.67797
C          2.46825       -5.56039       -2.85889
C         -2.76931       -1.01678        1.20630
C         -4.09438       -0.71760        0.58384
C         -5.07405        0.06598        1.07188
C         -4.98831        0.82697        2.37236
C         -6.37519        0.21402        0.30995
C         -7.60529       -0.38600        1.01615
C         -8.88736       -0.25128        0.18735
C        -10.18060       -0.74072        0.86927
C        -10.14023       -2.24624        1.16762
C        -11.40645       -0.34989        0.01957
C        -12.77363       -0.57490        0.67596
C        -13.94008       -0.08178       -0.18832
C        -15.34092       -0.19302        0.44621
C        -15.74067       -1.65152        0.71124
C        -16.37757        0.54173       -0.42699
C        -17.77649        0.69499        0.18146
C        -18.72200        1.52518       -0.69439
C        -20.17262        1.64216       -0.18885
C        -20.27367        2.36676        1.16035
C        -21.05728        2.32749       -1.23857
H          3.85913        3.38017       -1.73938
H          9.82101        4.20331        0.47412
H         10.38735       -2.13508        1.30058
H          2.69133       -1.32514       -2.09128
H          2.13908        1.43432       -1.43191
H          1.96696        0.50542       -3.74575
H          3.02739        1.93826       -3.73188
H          3.73508        0.30461       -3.81448
H          2.14054       -1.78335        0.36963
H          2.14098       -0.05382        0.65637
H          0.21969        0.19642       -1.01605
H          0.28147       -1.52905       -1.32171
H          4.53102        6.25410       -0.74587
H          5.69695        6.63101       -2.02749
H          4.46122        5.37888       -2.28634
H          9.24813        6.06131       -0.39959
H          8.38483        8.28774       -0.17051
H          6.62851        7.67607       -0.19410
H         11.74597        3.61512        2.22033
H         13.03603        2.50796        1.71396
H         12.24333        3.55576        0.52045
H         12.45499       -1.22281        1.35012
H         13.28526        0.29757        1.63200
H         13.19199       -1.06111        3.73267
H         12.26685        0.44792        3.94444
H         11.41072       -1.08187        3.66679
H          9.24989       -4.50679        2.07095
H          8.37035       -5.55440        0.92681
H          9.81686       -4.65618        0.39806
H          3.60349       -3.59519        0.23688
H          1.88187       -4.84271       -3.45303
H          3.28723       -5.94398       -3.48593
H          1.83138       -6.38705       -2.52097
H         -2.69900       -2.07387        1.51919
H         -2.55539       -0.41088        2.09819
H         -4.26409       -1.22362       -0.37406
H         -3.97558        0.84739        2.79674
H         -5.31956        1.86989        2.22988
H         -5.65510        0.38954        3.13530
H         -6.56284        1.29001        0.12983
H         -6.27039       -0.25325       -0.68331
H         -7.39837       -1.44677        1.23707
H         -7.75577        0.10756        1.99285
H         -9.01722        0.81235       -0.08358
H         -8.76158       -0.78934       -0.77163
H        -10.26593       -0.20604        1.83603
H         -9.28553       -2.51540        1.80679
H        -11.04894       -2.58482        1.68800
H        -10.05454       -2.82814        0.23309
H        -11.31859        0.71907       -0.24725
H        -11.36674       -0.89966       -0.94033
H        -12.90553       -1.64533        0.90260
H        -12.79831       -0.05257        1.65108
H        -13.75920        0.97705       -0.44857
H        -13.93831       -0.62846       -1.15083
H        -15.30273        0.32992        1.42236
H        -15.79500       -2.22021       -0.23378
H        -15.01829       -2.16246        1.36592
H        -16.72400       -1.72437        1.20025
H        -15.98604        1.54927       -0.65760
H        -16.45646        0.02371       -1.40206
H        -18.22894       -0.29828        0.34955
H        -17.68142        1.15800        1.17974
H        -18.30519        2.54278       -0.82274
H        -18.74070        1.08232       -1.70709
H        -20.55702        0.61336       -0.04745
H        -19.87760        3.39477        1.08513
H        -21.32189        2.43970        1.49327
H        -19.71242        1.85030        1.95433
H        -21.03274        1.79060       -2.20096
H        -22.10786        2.37859       -0.90907
H        -20.71799        3.36107       -1.42646

H     0
S   5   1.00
      3.387000D+01           6.068000D-03
      5.095000D+00           4.530800D-02
      1.159000D+00           2.028220D-01
      3.258000D-01           5.039030D-01
      1.027000D-01           3.834210D-01
S   1   1.00
      3.258000D-01           1.000000D+00
S   1   1.00
      1.027000D-01           1.000000D+00
S   1   1.00
      0.0252600              1.0000000
P   1   1.00
      1.407000D+00           1.000000D+00
P   1   1.00
      3.880000D-01           1.000000D+00
P   1   1.00
      0.1020000              1.0000000
D   1   1.00
      1.057000D+00           1.0000000
D   1   1.00
      0.2470000              1.0000000
****
C     0
S   10   1.00
      8.236000D+03           5.310000D-04
      1.235000D+03           4.108000D-03
      2.808000D+02           2.108700D-02
      7.927000D+01           8.185300D-02
      2.559000D+01           2.348170D-01
      8.997000D+00           4.344010D-01
      3.319000D+00           3.461290D-01
      9.059000D-01           3.937800D-02
      3.643000D-01          -8.983000D-03
      1.285000D-01           2.385000D-03
S   10   1.00
      8.236000D+03          -1.130000D-04
      1.235000D+03          -8.780000D-04
      2.808000D+02          -4.540000D-03
      7.927000D+01          -1.813300D-02
      2.559000D+01          -5.576000D-02
      8.997000D+00          -1.268950D-01
      3.319000D+00          -1.703520D-01
      9.059000D-01           1.403820D-01
      3.643000D-01           5.986840D-01
      1.285000D-01           3.953890D-01
S   1   1.00
      9.059000D-01           1.000000D+00
S   1   1.00
      1.285000D-01           1.000000D+00
S   1   1.00
      0.0440200              1.0000000
P   5   1.00
      1.871000D+01           1.403100D-02
      4.133000D+00           8.686600D-02
      1.200000D+00           2.902160D-01
      3.827000D-01           5.010080D-01
      1.209000D-01           3.434060D-01
P   1   1.00
      3.827000D-01           1.000000D+00
P   1   1.00
      1.209000D-01           1.000000D+00
P   1   1.00
      0.0356900              1.0000000
D   1   1.00
      1.097000D+00           1.000000D+00
D   1   1.00
      3.180000D-01           1.000000D+00
D   1   1.00
      0.1000000              1.0000000
F   1   1.00
      7.610000D-01           1.0000000
F   1   1.00
      0.2680000              1.0000000
****
N     0
S   10   1.00
      1.142000D+04           5.230000D-04
      1.712000D+03           4.045000D-03
      3.893000D+02           2.077500D-02
      1.100000D+02           8.072700D-02
      3.557000D+01           2.330740D-01
      1.254000D+01           4.335010D-01
      4.644000D+00           3.474720D-01
      1.293000D+00           4.126200D-02
      5.118000D-01          -8.508000D-03
      1.787000D-01           2.384000D-03
S   10   1.00
      1.142000D+04          -1.150000D-04
      1.712000D+03          -8.950000D-04
      3.893000D+02          -4.624000D-03
      1.100000D+02          -1.852800D-02
      3.557000D+01          -5.733900D-02
      1.254000D+01          -1.320760D-01
      4.644000D+00          -1.725100D-01
      1.293000D+00           1.518140D-01
      5.118000D-01           5.999440D-01
      1.787000D-01           3.874620D-01
S   1   1.00
      1.293000D+00           1.000000D+00
S   1   1.00
      1.787000D-01           1.000000D+00
S   1   1.00
      0.0576000              1.0000000
P   5   1.00
      2.663000D+01           1.467000D-02
      5.948000D+00           9.176400D-02
      1.742000D+00           2.986830D-01
      5.550000D-01           4.984870D-01
      1.725000D-01           3.370230D-01
P   1   1.00
      5.550000D-01           1.000000D+00
P   1   1.00
      1.725000D-01           1.000000D+00
P   1   1.00
      0.0491000              1.0000000
D   1   1.00
      1.654000D+00           1.000000D+00
D   1   1.00
      4.690000D-01           1.000000D+00
D   1   1.00
      0.1510000              1.0000000
F   1   1.00
      1.093000D+00           1.0000000
F   1   1.00
      0.3640000              1.0000000
****
O     0
S   10   1.00
      1.533000D+04           5.080000D-04
      2.299000D+03           3.929000D-03
      5.224000D+02           2.024300D-02
      1.473000D+02           7.918100D-02
      4.755000D+01           2.306870D-01
      1.676000D+01           4.331180D-01
      6.207000D+00           3.502600D-01
      1.752000D+00           4.272800D-02
      6.882000D-01          -8.154000D-03
      2.384000D-01           2.381000D-03
S   10   1.00
      1.533000D+04          -1.150000D-04
      2.299000D+03          -8.950000D-04
      5.224000D+02          -4.636000D-03
      1.473000D+02          -1.872400D-02
      4.755000D+01          -5.846300D-02
      1.676000D+01          -1.364630D-01
      6.207000D+00          -1.757400D-01
      1.752000D+00           1.609340D-01
      6.882000D-01           6.034180D-01
      2.384000D-01           3.787650D-01
S   1   1.00
      1.752000D+00           1.000000D+00
S   1   1.00
      2.384000D-01           1.000000D+00
S   1   1.00
      0.0737600              1.0000000
P   5   1.00
      3.446000D+01           1.592800D-02
      7.749000D+00           9.974000D-02
      2.280000D+00           3.104920D-01
      7.156000D-01           4.910260D-01
      2.140000D-01           3.363370D-01
P   1   1.00
      7.156000D-01           1.000000D+00
P   1   1.00
      2.140000D-01           1.000000D+00
P   1   1.00
      0.0597400              1.0000000
D   1   1.00
      2.314000D+00           1.000000D+00
D   1   1.00
      6.450000D-01           1.000000D+00
D   1   1.00
      0.2140000              1.0000000
F   1   1.00
      1.428000D+00           1.0000000
F   1   1.00
      0.5000000              1.0000000
****
Mg     0
S   15   1.00
      1.649000D+05           7.299290D-05
      2.471000D+04           5.666520D-04
      5.628000D+03           2.962690D-03
      1.596000D+03           1.229620D-02
      5.210000D+02           4.273240D-02
      1.880000D+02           1.230130D-01
      7.301000D+01           2.748320D-01
      2.990000D+01           4.018180D-01
      1.254000D+01           2.646970D-01
      4.306000D+00           3.326120D-02
      1.826000D+00          -4.413350D-03
      7.417000D-01           2.060240D-03
      1.457000D-01          -8.384700D-04
      7.612000D-02           7.081950D-04
      3.310000D-02          -2.006020D-04
S   15   1.00
      1.649000D+05          -1.842480D-05
      2.471000D+04          -1.435000D-04
      5.628000D+03          -7.487100D-04
      1.596000D+03          -3.144070D-03
      5.210000D+02          -1.104810D-02
      1.880000D+02          -3.360580D-02
      7.301000D+01          -8.259460D-02
      2.990000D+01          -1.593140D-01
      1.254000D+01          -1.528880D-01
      4.306000D+00           1.908490D-01
      1.826000D+00           5.799640D-01
      7.417000D-01           3.720290D-01
      1.457000D-01           2.116910D-02
      7.612000D-02          -1.193440D-02
      3.310000D-02           2.773290D-03
S   15   1.00
      1.649000D+05           3.551760D-06
      2.471000D+04           2.764200D-05
      5.628000D+03           1.444040D-04
      1.596000D+03           6.057440D-04
      5.210000D+02           2.135270D-03
      1.880000D+02           6.499340D-03
      7.301000D+01           1.614460D-02
      2.990000D+01           3.157660D-02
      1.254000D+01           3.163740D-02
      4.306000D+00          -4.391400D-02
      1.826000D+00          -1.510930D-01
      7.417000D-01          -2.176680D-01
      1.457000D-01           2.598070D-01
      7.612000D-02           5.472450D-01
      3.310000D-02           3.259100D-01
S   1   1.00
      1.457000D-01           1.000000D+00
S   1   1.00
      3.310000D-02           1.000000D+00
S   1   1.00
      1.200000D-02           1.000000D+00
P   10   1.00
      3.169000D+02           2.075320D-03
      7.486000D+01           1.628690D-02
      2.372000D+01           7.386970D-02
      8.669000D+00           2.142970D-01
      3.363000D+00           3.821540D-01
      1.310000D+00           3.981780D-01
      4.911000D-01           1.528780D-01
      2.364000D-01          -4.375400D-03
      8.733000D-02           6.295820D-03
      3.237000D-02          -1.567690D-03
P   10   1.00
      3.169000D+02          -3.297270D-04
      7.486000D+01          -2.587540D-03
      2.372000D+01          -1.191200D-02
      8.669000D+00          -3.502270D-02
      3.363000D+00          -6.399680D-02
      1.310000D+00          -7.044360D-02
      4.911000D-01          -3.758360D-02
      2.364000D-01           1.770430D-01
      8.733000D-02           5.667070D-01
      3.237000D-02           3.961430D-01
P   1   1.00
      8.733000D-02           1.000000D+00
P   1   1.00
      3.237000D-02           1.000000D+00
P   1   1.00
      9.000000D-03           1.000000D+00
D   1   1.00
      2.998000D-01           1.000000D+00
D   1   1.00
      1.285000D-01           1.000000D+00
D   1   1.00
      4.440000D-02           1.000000D+00
F   1   1.00
      2.417000D-01           1.0000000
F   1   1.00
      8.650000D-02           1.000000D+00
****

