%NProcShared=4
%Mem=3GB
%Chk=cla-s0-wb97-tzvp.chk
#n wB97/Gen Opt

 cla-s0-wb97-tzvp

0 1
Mg         7.08860        0.68991       -0.13458
C          4.97277       -2.03346       -0.51824
C          4.63085        2.72090       -1.33787
C          9.16247        3.34820        0.31614
C          9.59678       -1.46066        0.96522
N          5.06727        0.36497       -0.80857
C          4.38373       -0.82558       -0.85223
C          2.94098       -0.61372       -1.28786
C          2.97326        0.83657       -1.83552
C          4.29502        1.36965       -1.28883
C          2.92377        0.90330       -3.37066
C          1.95387       -0.81547       -0.11932
C          0.48916       -0.76564       -0.55011
C         -0.47639       -1.01247        0.59329
O         -0.16723       -1.38159        1.70074
O         -1.74473       -0.77691        0.21539
N          6.91882        2.69367       -0.44258
C          5.83318        3.34760       -0.93926
C          6.09755        4.77689       -1.01062
C          7.38531        4.96097       -0.53134
C          7.89355        3.63111       -0.18946
C          5.15104        5.80665       -1.54352
C          8.15980        6.19072       -0.39413
C          7.69374        7.44499       -0.25462
N          9.04294        0.90315        0.53341
C          9.70718        2.08703        0.64871
C         11.05167        1.86225        1.15412
C         11.17792        0.49903        1.33353
C          9.90425       -0.08784        0.94099
C         12.06748        2.93337        1.41405
C         12.36202       -0.25536        1.87199
C         12.30578       -0.50280        3.38945
N          7.29240       -1.29591        0.16911
C          8.37689       -2.04896        0.60599
C          8.03116       -3.46188        0.62452
C          6.70930       -3.50588        0.18823
C          6.31022       -2.16481       -0.07339
C          8.91093       -4.60305        1.02540
C          5.58982       -4.39948       -0.10244
O          5.51260       -5.60501       -0.05120
C          4.38193       -3.44091       -0.52961
C          3.80367       -3.90024       -1.85598
O          4.04946       -3.42015       -2.93741
O          2.98188       -4.94616       -1.67797
C          2.46825       -5.56039       -2.85889
C         -2.76931       -1.01678        1.20630
C         -4.09438       -0.71760        0.58384
C         -5.07405        0.06598        1.07188
C         -4.98831        0.82697        2.37236
C         -6.37519        0.21402        0.30995
C         -7.60529       -0.38600        1.01615
C         -8.88736       -0.25128        0.18735
C        -10.18060       -0.74072        0.86927
C        -10.14023       -2.24624        1.16762
C        -11.40645       -0.34989        0.01957
C        -12.77363       -0.57490        0.67596
C        -13.94008       -0.08178       -0.18832
C        -15.34092       -0.19302        0.44621
C        -15.74067       -1.65152        0.71124
C        -16.37757        0.54173       -0.42699
C        -17.77649        0.69499        0.18146
C        -18.72200        1.52518       -0.69439
C        -20.17262        1.64216       -0.18885
C        -20.27367        2.36676        1.16035
C        -21.05728        2.32749       -1.23857
H          3.85913        3.38017       -1.73938
H          9.82101        4.20331        0.47412
H         10.38735       -2.13508        1.30058
H          2.69133       -1.32514       -2.09128
H          2.13908        1.43432       -1.43191
H          1.96696        0.50542       -3.74575
H          3.02739        1.93826       -3.73188
H          3.73508        0.30461       -3.81448
H          2.14054       -1.78335        0.36963
H          2.14098       -0.05382        0.65637
H          0.21969        0.19642       -1.01605
H          0.28147       -1.52905       -1.32171
H          4.53102        6.25410       -0.74587
H          5.69695        6.63101       -2.02749
H          4.46122        5.37888       -2.28634
H          9.24813        6.06131       -0.39959
H          8.38483        8.28774       -0.17051
H          6.62851        7.67607       -0.19410
H         11.74597        3.61512        2.22033
H         13.03603        2.50796        1.71396
H         12.24333        3.55576        0.52045
H         12.45499       -1.22281        1.35012
H         13.28526        0.29757        1.63200
H         13.19199       -1.06111        3.73267
H         12.26685        0.44792        3.94444
H         11.41072       -1.08187        3.66679
H          9.24989       -4.50679        2.07095
H          8.37035       -5.55440        0.92681
H          9.81686       -4.65618        0.39806
H          3.60349       -3.59519        0.23688
H          1.88187       -4.84271       -3.45303
H          3.28723       -5.94398       -3.48593
H          1.83138       -6.38705       -2.52097
H         -2.69900       -2.07387        1.51919
H         -2.55539       -0.41088        2.09819
H         -4.26409       -1.22362       -0.37406
H         -3.97558        0.84739        2.79674
H         -5.31956        1.86989        2.22988
H         -5.65510        0.38954        3.13530
H         -6.56284        1.29001        0.12983
H         -6.27039       -0.25325       -0.68331
H         -7.39837       -1.44677        1.23707
H         -7.75577        0.10756        1.99285
H         -9.01722        0.81235       -0.08358
H         -8.76158       -0.78934       -0.77163
H        -10.26593       -0.20604        1.83603
H         -9.28553       -2.51540        1.80679
H        -11.04894       -2.58482        1.68800
H        -10.05454       -2.82814        0.23309
H        -11.31859        0.71907       -0.24725
H        -11.36674       -0.89966       -0.94033
H        -12.90553       -1.64533        0.90260
H        -12.79831       -0.05257        1.65108
H        -13.75920        0.97705       -0.44857
H        -13.93831       -0.62846       -1.15083
H        -15.30273        0.32992        1.42236
H        -15.79500       -2.22021       -0.23378
H        -15.01829       -2.16246        1.36592
H        -16.72400       -1.72437        1.20025
H        -15.98604        1.54927       -0.65760
H        -16.45646        0.02371       -1.40206
H        -18.22894       -0.29828        0.34955
H        -17.68142        1.15800        1.17974
H        -18.30519        2.54278       -0.82274
H        -18.74070        1.08232       -1.70709
H        -20.55702        0.61336       -0.04745
H        -19.87760        3.39477        1.08513
H        -21.32189        2.43970        1.49327
H        -19.71242        1.85030        1.95433
H        -21.03274        1.79060       -2.20096
H        -22.10786        2.37859       -0.90907
H        -20.71799        3.36107       -1.42646

H     0
S   3   1.00
     34.0613410              0.60251978D-02
      5.1235746              0.45021094D-01
      1.1646626              0.20189726
S   1   1.00
      0.32723041             1.0000000
S   1   1.00
      0.10307241             1.0000000
P   1   1.00
      0.8000000              1.0000000
****
C     0
S   6   1.00
  13575.3496820              0.22245814352D-03
   2035.2333680              0.17232738252D-02
    463.22562359             0.89255715314D-02
    131.20019598             0.35727984502D-01
     42.853015891            0.11076259931
     15.584185766            0.24295627626
S   2   1.00
      6.2067138508           0.41440263448
      2.5764896527           0.23744968655
S   1   1.00
      0.57696339419          1.0000000
S   1   1.00
      0.22972831358          1.0000000
S   1   1.00
      0.95164440028D-01      1.0000000
P   4   1.00
     34.697232244            0.53333657805D-02
      7.9582622826           0.35864109092D-01
      2.3780826883           0.14215873329
      0.81433208183          0.34270471845
P   1   1.00
      0.28887547253           .46445822433
P   1   1.00
      0.10056823671           .24955789874
D   1   1.00
      1.09700000             1.0000000
D   1   1.00
      0.31800000             1.0000000
F   1   1.00
      0.76100000             1.0000000
****
N     0
S   6   1.00
  19730.8006470              0.21887984991D-03
   2957.8958745              0.16960708803D-02
    673.22133595             0.87954603538D-02
    190.68249494             0.35359382605D-01
     62.295441898            0.11095789217
     22.654161182            0.24982972552
S   2   1.00
      8.9791477428           0.40623896148
      3.6863002370           0.24338217176
S   1   1.00
      0.84660076805          1.0000000
S   1   1.00
      0.33647133771          1.0000000
S   1   1.00
      0.13647653675          1.0000000
P   4   1.00
     49.200380510            0.55552416751D-02
     11.346790537            0.38052379723D-01
      3.4273972411           0.14953671029
      1.1785525134           0.34949305230
P   1   1.00
      0.41642204972           .45843153697
P   1   1.00
      0.14260826011           .24428771672
D   1   1.00
      1.65400000             1.0000000
D   1   1.00
      0.46900000             1.0000000
F   1   1.00
      1.09300000             1.0000000
****
O     0
S   6   1.00
  27032.3826310              0.21726302465D-03
   4052.3871392              0.16838662199D-02
    922.32722710             0.87395616265D-02
    261.24070989             0.35239968808D-01
     85.354641351            0.11153519115
     31.035035245            0.25588953961
S   2   1.00
     12.260860728            0.39768730901
      4.9987076005           0.24627849430
S   1   1.00
      1.1703108158           1.0000000
S   1   1.00
      0.46474740994          1.0000000
S   1   1.00
      0.18504536357          1.0000000
P   4   1.00
     63.274954801            0.60685103418D-02
     14.627049379            0.41912575824D-01
      4.4501223456           0.16153841088
      1.5275799647           0.35706951311
P   1   1.00
      0.52935117943           .44794207502
P   1   1.00
      0.17478421270           .24446069663
D   1   1.00
      2.31400000             1.0000000
D   1   1.00
      0.64500000             1.0000000
F   1   1.00
      1.42800000             1.0000000
****
Mg     0
S   7   1.00
  31438.3495550              0.60912311326D-03
   4715.5153354              0.47066196465D-02
   1073.1629247              0.24135820657D-01
    303.57238768             0.93628959834D-01
     98.626251042            0.26646742093
     34.943808417            0.47890929917
     12.859785199            0.33698490286
S   3   1.00
     64.876913004            0.19180889307D-01
     19.725520777            0.90913704392D-01
      2.8951804339          -0.39563756125
S   2   1.00
      1.1960454710           1.6827603373
      0.54329451156          0.52141091954
S   1   1.00
      0.10099104092          1.0000000
S   1   1.00
      0.36865728085D-01      1.0000000
P   5   1.00
    179.87189612             0.53799549018D-02
     42.120069376            0.39318014098D-01
     13.120503032            0.15740129476
      4.6257503609           0.35919094128
      1.6695211016           0.45533379310
P   1   1.00
      0.58551012105           .21986432910
P   1   1.00
      0.18914796195          1.0000000
P   1   1.00
      0.53768755187D-01      1.0000000
D   1   1.00
      3.4440000              1.0000000
D   1   1.00
      0.2900000              1.0000000
D   1   1.00
      0.0700000              1.0000000
****

