%nproc=4
%Mem=2GB
# td=(NStates=1) CAM-B3LYP/6-31G(d,p) 

TD

0 1
 8  14.65763128812881 -2.36838977207721 -0.36772369536954
 8 -14.94422948694869  1.76363166826683  1.01776130713071
 6  11.20981332733273 -1.51577412951295  1.04932109310931
 6 -12.30246541054105 -1.10449206710671  0.63892753675368
 6  12.71074464046405 -1.80908020412041  1.07328222022202
 6 -13.62425914491449 -0.27765578547855  0.76673948594860
 6  13.30907894689469 -1.97612993509351 -0.32592613761376
 6 -13.57763705670567  1.15448410951095  1.06259751075108
 6  10.97353668066807 -0.22262988998900  0.17275398239824
 6 -11.30697706170617 -0.25883689058906 -0.22658033403340
 6  13.18867935893589 -0.58549703480348 -1.01386414041404
 6 -12.82471490949095  1.71699470657066 -0.10636998999900
 6  11.87016288528853  0.07580796369637 -0.80615325832583
 6 -11.53856445144514  1.00095672477248 -0.55266726272627
 6  10.73556459745975 -1.13721916291629  2.54394777877788
 6  10.38206882688269 -2.64952272027203  0.61732512251225
 6 -11.76577838383838 -1.39928962086209  2.08348447944794
 6 -12.67064355935594 -2.53010423232323 -0.01357009500950
 6  9.61857709870987  0.29348830183018  0.27244120412041
 6 -10.04880045204520 -0.97203994589459 -0.49737102210221
 6  11.56730261026103  1.09964513841384 -1.84805679567957
 6 -10.58198648664866  1.70812028912891 -1.46933382338234
 6  9.34707861286129  1.66317256025603  0.10684732473247
 6 -8.72013341034103 -0.49010095899590 -0.45035013701370
 6  8.01275038003800  2.30340632363236  0.27282805780578
 6 -7.48747678167817 -1.17570589848985 -0.57578374737474
 6  7.90230201420142  3.70676953195320  0.53713789778978
 6 -7.70398869586959 -2.71281085798580 -0.98279696469647
 6  6.97856782778278  1.48810775177518 -0.02727521252125
 6 -6.41569426642664 -0.55047330923092 -0.46197512251225
 6  5.68447916191619  2.06442068006801  0.10965793479348
 6 -5.02538108410841 -1.01037811071107 -0.66324320232023
 6  4.54788357435744  1.23407960196020 -0.21489357435744
 6 -3.96551784878488 -0.26649887388739 -0.50611342634263
 6  3.15125261626163  1.70022441344134  0.04774889088909
 6 -2.59811526752675 -0.59612969196920 -0.58103645864586
 6  2.95687725472547  3.13715140714071  0.33619127712771
 6 -2.30501926992699 -2.01267475947595 -1.02379360536054
 6  2.22129121812181  0.80716278027803 -0.03370405040504
 6 -1.59328128812881  0.45707359635964 -0.39590354135414
 6  0.81754858385839  1.09638245224522 -0.02277094909491
 6 -0.18041791179118  0.24399679967997 -0.35207617761776
 1  13.24842342234223 -1.18777218731873  1.66490217921792
 1  12.76686018501850 -2.91363457755776  1.53967165116512
 1 -14.36350932393239 -0.94370181208121  1.38920984198420
 1 -14.17578107310731 -0.23510138203820 -0.35074693069307
 1  12.64682568956896 -2.65896520362036 -0.89556011401140
 1 -12.97839827182718  1.38281226332633  1.95452318631863
 1  13.73254784178418  0.15152773067307 -0.25929111011101
 1  13.57993355035503 -0.45648100520052 -2.06230896189619
 1 -13.68133334233423  1.86449150925092 -0.94105684868487
 1 -12.38511448444845  2.82815783588359  0.18235927192719
 1  11.01968465746575 -2.07625605460546  3.16082077807781
 1  9.57917624462446 -0.95136493549355  2.54113086808681
 1  11.47523126512651 -0.36962582968297  3.00727411341134
 1  10.63832009500950 -3.13815858985899 -0.41258794179418
 1  10.66517552045204 -3.41092973597360  1.31964140414041
 1  9.56732404940494 -2.35192650065007  0.61127784878488
 1 -11.69364105010501 -0.46007850175018  2.61082137913791
 1 -10.77868070707071 -1.90864340824082  1.96498028202820
 1 -12.45210610361036 -2.16970439033903  2.49647022702270
 1 -13.49066951595159 -2.85923461936194  0.64813294429443
 1 -11.79875511051105 -3.19024561346135  0.13639653765376
 1 -13.24553241224122 -2.15631482338234 -0.95197793979398
 1  8.86174807780778 -0.28645305630563  0.71983910491049
 1 -10.11097586258626 -2.05853291719172 -0.66706050805081
 1  10.56890818281828  1.06486115611561 -1.82152421142114
 1  11.77720354935493  2.13000394329433 -1.53020862886289
 1  12.14367603760376  1.07303815871587 -2.88658134713471
 1 -11.22556695769577  2.40607617171717 -2.24957567856786
 1 -10.10437641564156  1.04952897199720 -2.26854282128213
 1 -10.07059124312431  2.56438909300930 -1.01688484448445
 1  14.68210733873387 -3.16143147024702  0.36801508150815
 1 -15.39329402240224  1.61871917201720  1.90061115711571
 1  10.48868478747875  2.23102001000100  0.05289211421142
 1 -8.58072280828083  0.53140774187419 -0.08313893989399
 1  8.91656934393439  4.14812819481948  1.03642948394839
 1  7.59180556755676  4.16530139113911 -0.40428677467747
 1  7.23939319931993  3.86126719471947  1.37565440344034
 1 -7.93838663266327 -3.30430508840884  0.00697540854085
 1 -8.73931830283028 -2.70544054695470 -1.61496338533853
 1 -6.82671844384438 -3.15382992289229 -1.32149758375838
 1  7.10942679767977  0.49328254325433 -0.37529540454045
 1 -6.37196417241724  0.55964345944595 -0.08393351835184
 1  5.56137384238424  3.13858953095310  0.31503801280128
 1 -5.03128359935994 -1.91207888588859 -1.04700085008501
 1  4.63475666866687  0.18461320732073 -0.59625169316932
 1 -4.01938334233423  0.85618499049905 -0.17507622662266
 1  3.41292692069207  3.53148503850385  1.13567680868087
 1  1.96548480948095  3.58219920192019  0.41394599659966
 1  3.55128050805080  3.86342296729673 -0.44011706970697
 1 -2.75661677667767 -2.53468576057606 -0.15891355635564
 1 -2.62440115311531 -2.27873493549355 -1.98679742174217
 1 -1.36471685668567 -2.33096064606461 -0.92426096909691
 1  2.35462682568257 -0.25958923992399 -0.13311952395240
 1 -2.07065168816882  1.51347959195920 -0.26280018701870
 1  0.32574287328733  2.13269869686969  0.20033204320432
 1  0.11878366336634 -0.82925308930893 -0.58371004500450

