%nproc=4
%Mem=2GB
# td=(NStates=1) CAM-B3LYP/6-31G(d,p) 

TD

0 1
 8  14.73447897289729 -2.19300223332333 -0.33269019201920
 8 -14.83262832683268  1.84350965606561  0.92764229522952
 6  11.26407875387539 -1.55413796589659  1.02431859285929
 6 -12.42290745474547 -0.97767938583858  0.56082972697270
 6  12.76620018601860 -1.79412870897090  1.09551444344434
 6 -13.75066178517852 -0.30604862476248  0.57893070507051
 6  13.36224426342634 -1.84453677577758 -0.37000054505451
 6 -13.54707400040004  1.18805746684668  0.96744799579958
 6  10.97436676367637 -0.25710333733373  0.09354606160616
 6 -11.27233359735974 -0.17298830573057 -0.19994767076708
 6  13.22104259525953 -0.46961544664466 -0.95535828982898
 6 -12.71366380438044  1.89997300440044 -0.11809116211621
 6  11.92915878487849  0.19815019791979 -0.84605724872487
 6 -11.52402299729973  1.04442107120712 -0.54492648864886
 6  10.77196823782378 -1.08316375737574  2.44616800080008
 6  10.34232485248525 -2.63739150715072  0.47857124712471
 6 -11.78207001300130 -1.40021971387139  1.97686381738174
 6 -12.67237373237324 -2.34798602050205 -0.20798953695369
 6  9.63059830083008  0.31266021902190  0.19498345834583
 6 -10.09202477447745 -0.97861060296030 -0.52713399839984
 6  11.70062594259426  1.25298047194719 -1.91453344334433
 6 -10.60031831983198  1.86920639773977 -1.46515340534053
 6  9.36736064106411  1.61078732173217  0.10171681168117
 6 -8.83607500450045 -0.42336428532853 -0.42860796279628
 6  8.06545565056506  2.30047603060306  0.15460623562356
 6 -7.58704673867387 -1.19861818971897 -0.59248541754175
 6  8.00812259625963  3.76043489848985  0.38967315131513
 6 -7.63081137813781 -2.60174975187519 -1.01642032703270
 6  6.89483945494549  1.52630157115712  0.01634914991499
 6 -6.36168886588659 -0.54700296219622 -0.36094501950195
 6  5.57745845984598  1.92133637163716  0.13939090809081
 6 -5.06954550055006 -1.12190926382638 -0.43895077307731
 6  4.48488727472747  1.13492968696870 -0.07739982498250
 6 -3.96783808080808 -0.34287651165117 -0.13053586858686
 6  3.15926341734173  1.65378976997700  0.02763687968797
 6 -2.61037649364936 -0.77203728272827 -0.32346070107011
 6  2.90263183018302  3.03481117311731  0.49411706970697
 6 -2.51332010001000 -2.11376486848685 -0.71966319231923
 6  2.14791388038804  0.64777684168417 -0.18870955095510
 6 -1.52599455945595  0.17307519651965 -0.19708365936594
 6  0.78452528152815  0.91611442544254 -0.07047571957196
 6 -0.23143301330133 -0.11616921692169 -0.34995596559656
 1  13.26323490349035 -0.77754116421642  1.58869455845585
 1  12.95798929792979 -2.79109232333233  1.41847953195320
 1 -14.42854582758276 -0.63090053195320  1.40507142814281
 1 -14.05971946694669 -0.49371724362436 -0.50746260226023
 1  12.84198520552055 -2.58482778987899 -0.80227078507851
 1 -13.02008244024402  1.07390137223722  1.90978871287129
 1  13.86715130213021  0.35220779867987 -0.22122730373037
 1  13.57870342734273 -0.43539889698970 -2.10518324932493
 1 -13.35445065406540  1.99536459655966 -1.22614535753575
 1 -12.45858183118312  2.80517553765377  0.32355339133913
 1  10.84320700970097 -1.86834526352635  3.19138383438344
 1  9.81446977397740 -0.87622742174217  2.58937569256926
 1  11.20137387938794 -0.20507937503750  2.72556594259426
 1  10.69352561556156 -2.90187496149615 -0.51742842584258
 1  10.41184018691869 -3.45186382938294  1.03618305830583
 1  9.18901621862186 -2.49427073507351  0.49076579757976
 1 -11.78221990799080 -0.46268876277628  2.44528482548255
 1 -10.71070390939094 -1.91879442334233  1.85276906090609
 1 -12.45523641664166 -2.16326374627463  2.69388996899690
 1 -13.53984443344334 -2.89707840374037  0.33774190519052
 1 -11.85817105210521 -3.13570015891589 -0.20292739473947
 1 -12.93286114511451 -2.21619081098110 -1.29702244424442
 1  8.78835073807381 -0.40556496749675  0.59170629162916
 1 -10.17757252225223 -2.07934499839984 -0.79303310531053
 1  10.75197648964896  1.26849151915191 -2.33551561056106
 1  11.99828565756576  2.44362530543054 -1.55668127612761
 1  12.41322299229923  0.97013786868687 -2.76773946294629
 1 -11.15161956295630  2.63599916401640 -2.05000572157216
 1 -10.19229520752075  1.25770979007901 -2.24895086208621
 1 -9.91425560956096  2.53855650975098 -0.76230938693869
 1  14.85841496949695 -3.03669899699970 -0.04720644064406
 1 -15.40685537853785  1.77694499459946  1.81866296229623
 1  10.12910882988299  2.41481838983899 -0.12915609060906
 1 -8.71738647464746  0.53487808890889 -0.14514514051405
 1  8.92943063006301  4.33899728172817  0.75792163316332
 1  7.34807119411941  4.11570643164316 -0.55522186818682
 1  7.17036629662966  4.02954402240224  1.27022386038604
 1 -8.04920771477148 -3.22401705960596 -0.21936722572257
 1 -8.20854522552255 -2.66627663056306 -2.06097798679868
 1 -6.68947471947195 -3.22886742664266 -1.25428086208621
 1  6.99466532153215  0.41703491849185 -0.03514138913891
 1 -6.20143711971197  0.51010850595060  0.11112598759876
 1  5.55078278327833  3.02618829082908  0.37740424942494
 1 -4.88672914391439 -2.17217489548955 -0.67944409440944
 1  4.42535572857286  0.10992573857386 -0.51885395339534
 1 -4.03056446044604  0.74808418041804  0.13097437843784
 1  3.45096072407241  3.32248413841384  1.46502974397440
 1  2.03586184718472  3.39207018901890  0.37781238323832
 1  3.55424080408041  3.68033465846585 -0.18263132113211
 1 -3.11184229922992 -2.95779807180718 -0.03032069706971
 1 -2.58630734373437 -2.36422348434843 -1.85998474047405
 1 -1.39091947694769 -2.60765831583158 -0.28673721672167
 1  2.57315867886789 -0.38185146614661 -0.51651786378638
 1 -1.76733135613561  1.20902914691469  0.16862295529553
 1  0.17874817381738  2.02019744674467 -0.13559154915492
 1  0.37268905390539 -0.93186335033503 -0.59227090109011

