%nproc=4
%Mem=2GB
# td=(NStates=1) CAM-B3LYP/6-31G(d,p) 

TD

0 1
 8  14.62309783478348 -2.27327026012601 -0.36552347534753
 8 -14.80128519251925  1.83682898799880  0.69797932893289
 6  11.09508185418542 -1.48889144124412  0.93263942494249
 6 -12.28699386338634 -1.01505312321232  0.76024966896690
 6  12.62091565756575 -1.88688798489849  1.12187707970797
 6 -13.71807852685268 -0.34706272617262  0.57881069306931
 6  13.19155719471947 -1.97823014511451 -0.29849339433943
 6 -13.50003929692969  1.13584224532453  0.74820607160716
 6  10.89770909790979 -0.30914854185419 -0.01529482248225
 6 -11.21225758975898 -0.28810981788179 -0.15175285128513
 6  13.18252874387439 -0.63530201530153 -1.03927668166817
 6 -12.71087352535253  1.74372737983798 -0.40226957995800
 6  11.89203507250725 -0.01751136823682 -0.97219986298630
 6 -11.45987658265827  0.93555018411841 -0.67949994599460
 6  10.76623766476648 -1.13354879587959  2.29606299029903
 6  10.23564418441844 -2.72685045304530  0.54961835183518
 6 -11.85124693069307 -1.29980967286729  2.21249738073807
 6 -12.51723821882188 -2.39096031793179  0.02473373537354
 6  9.64195943694369  0.39345829882988  0.17385134513451
 6 -9.99934550655066 -0.96255899779978 -0.25973725872587
 6  11.67491337133713  1.30553572747275 -1.84615660566057
 6 -10.39171745974597  1.80920039713971 -1.40372726272627
 6  9.31509541454145  1.73055929892989  0.07119375937594
 6 -8.75809720672067 -0.44518646754675 -0.19330443244324
 6  7.98961806680668  2.32445842884288  0.21967274227423
 6 -7.53721175517552 -1.18843717161716 -0.54056022502250
 6  7.86323810781078  3.84827368236824  0.50026421042104
 6 -7.53058135513551 -2.63918349524953 -1.09858854385439
 6  6.96936690769077  1.55428436943694  0.06359387438744
 6 -6.34094679167917 -0.52846110801080 -0.28945787078708
 6  5.60875158915892  2.16760099809981  0.18918588758876
 6 -5.07993653965397 -1.06595366826683 -0.60633751175118
 6  4.52104089008901  1.34996119011901  0.06085400040004
 6 -3.91566286328633 -0.29335155915592 -0.25904871987199
 6  3.09306679767977  1.75082947394739  0.17145126112611
 6 -2.60685614161416 -0.76344642364236 -0.41625998099810
 6  2.78300986798680  3.14612230423042  0.63093075107511
 6 -2.38977774577458 -2.05908940094009 -1.02988421442144
 6  2.14682377137714  0.77018908290829 -0.08133881388139
 6 -1.50415237523752  0.15608349734973 -0.28922287328733
 6  0.73511034003400  0.93765657965797  0.02220354835484
 6 -0.11217108710871 -0.06747434743474 -0.41073204320432
 1  13.11142972297230 -1.03506691679168  1.60569625862586
 1  12.80057355635564 -2.76053926802680  1.63634131813181
 1 -14.24574754775478 -0.67411485338534  1.32442336333633
 1 -14.13359685468547 -0.65561343324332 -0.45342719871987
 1  12.55890689768977 -2.68046735383538 -0.86260681868187
 1 -13.09689012101210  1.40291427352735  1.61433916791679
 1  14.06888147514752  0.09998257615762 -0.97846302730273
 1  13.51048660566057 -1.06473183028303 -2.21409414041404
 1 -13.44467967696770  1.60213527362736 -1.33409615261526
 1 -12.45603157615762  2.79029404950495 -0.11397036103610
 1  11.05498818781878 -1.76628505750575  3.03089778577858
 1  9.57918624562456 -1.09393919291929  2.39348610361036
 1  11.02026576857686 -0.09208807590759  2.81655504150415
 1  10.52370863386339 -3.22687746174617 -0.46734341734173
 1  10.23331233413341 -3.49665830883088  1.28932837283728
 1  9.12935025202520 -2.28885019301930  0.30127684868487
 1 -12.03173485948595 -0.57065955985599  2.86390668766877
 1 -10.71659449844985 -1.91466401030103  2.35612939693969
 1 -12.79259015201520 -1.85750317021702  2.72192277227723
 1 -13.31948239723972 -2.86919561546155  0.60536866786679
 1 -11.68594382938294 -3.10858744764476  0.18484138213821
 1 -12.69473733273327 -2.21029022092209 -0.94580732273227
 1  8.88866076907691 -0.34022843384338  0.50390751175117
 1 -9.96209097409741 -2.02000906480648 -0.41248505050505
 1  10.57955924792479  1.33805847584758 -1.97186924592459
 1  12.25275110411041  2.00606154905490 -1.35974158215822
 1  12.13016468646865  1.00755161006101 -3.00267295629563
 1 -10.95294969596960  2.57320288438844 -2.13071379237924
 1 -9.63275925392539  1.12996701580158 -2.01989795679568
 1 -9.79227341134113  2.25363801790179 -0.60013316931693
 1  14.62036116411641 -3.25148047514752 -0.14030575057506
 1 -15.35649034203420  1.51017831793179  1.44098519451945
 1  10.24074999399940  2.43115002300230 -0.01740491549155
 1 -8.72712744874487  0.58916351745175  0.14508388238824
 1  8.83956164316432  3.99735311731173  1.14316015701570
 1  7.56958334533453  4.34530939193919 -0.40605695169517
 1  7.07370663066307  3.86401746974697  1.29329616761676
 1 -7.92235502950295 -3.36653131103110 -0.25939122812281
 1 -8.29154352535254 -2.62151215411541 -1.84736662566257
 1 -6.50518629062906 -2.71189572947295 -1.61392682668267
 1  7.01680753575358  0.55756897189719 -0.24429230423042
 1 -6.41084806080608  0.42366986208621  0.07892276727673
 1  5.81072877787779  3.26776244824482  0.20853736273627
 1 -4.88655912691269 -2.03411108910891 -1.05909205920592
 1  4.49674286728673  0.43458820482048 -0.34997706570657
 1 -4.11328273227323  0.68142751475148  0.16149743074307
 1  2.83696932493249  3.10096198619862  1.90203344434443
 1  1.62937119811981  3.42184316631663  0.07067166916692
 1  3.77178255825583  3.90694731973197  0.35089203120312
 1 -3.18696981198120 -2.82756504850485 -0.55767343234323
 1 -2.56880559355936 -2.13819088108811 -2.24135287728773
 1 -1.31285167016702 -2.43993154315431 -0.56070461346135
 1  2.67392875587559 -0.00769405040504 -0.53761997399740
 1 -1.81762638563856  1.09223746774677  0.14993108610861
 1  0.45354565356536  1.88076350335034  0.50610262026203
 1  0.17338912391239 -1.00291045504550 -1.10769244324432

