%nproc=4
%Mem=2GB
# td=(NStates=1) CAM-B3LYP/6-31G(d,p) 

TD

0 1
 8  14.65860138513851 -2.36280921402140 -0.19516643964396
 8 -14.75614067806781  1.80064536963696  1.00510004100410
 6  11.08996134213421 -1.52461501360136  0.98676483748375
 6 -12.37584274827483 -1.02529414731473  0.60328397239724
 6  12.63032659865986 -1.94750404650465  1.13369826182618
 6 -13.70739745874588 -0.42838085798580  0.69271208320832
 6  13.40494853385339 -1.93210553265327 -0.23978752375238
 6 -13.55500479347935  1.11208987008701  0.95857710871087
 6  10.99446877387739 -0.20260788778878  0.06586329332933
 6 -11.31308767276728 -0.27436844374437 -0.09989766576658
 6  13.31593208420842 -0.58816730183018 -0.87392014601460
 6 -12.77802024002400  1.80601360846085 -0.28587794079408
 6  12.02169803880388  0.18356873977398 -0.81378402140214
 6 -11.45789638463846  0.93940056915692 -0.62022401840184
 6  10.53026406740674 -1.33923936493649  2.41116450045004
 6  10.32876349634964 -2.66450421842184  0.35974936493649
 6 -11.92855466146615 -1.32867255915592  2.18272440344034
 6 -12.55684217921792 -2.42484370627063  0.01565282728273
 6  9.73759900090009  0.33933288628863  0.34780874087409
 6 -10.09129470147015 -0.96485922782278 -0.49286057105711
 6  11.79760564056406  1.20895606950695 -1.88853084308431
 6 -10.53459174717472  1.78582805990599 -1.49021591159116
 6  9.36984088908891  1.72932917591759  0.09112575257526
 6 -8.80650204720472 -0.55622757165717 -0.34407950995100
 6  8.07668677367737  2.34475045804580  0.25215599059906
 6 -7.58601663566357 -1.27656598449845 -0.65467163616362
 6  8.03447523152315  3.75356421142114  0.47258144214421
 6 -7.62781107810781 -2.67590716761676 -1.01151983698370
 6  6.97757772877288  1.60404934593459 -0.01455394039404
 6 -6.38762145914591 -0.54625288718872 -0.27016594159416
 6  5.60508122212221  2.06301053905391  0.07964493349335
 6 -5.04201274727473 -0.97753482638264 -0.51649852785279
 6  4.42102088808881  1.33705989999000 -0.10308239323932
 6 -3.96258755575558 -0.18535075907591 -0.33974678967897
 6  3.04936242724272  1.74744913591359 -0.01723760776078
 6 -2.64400985698570 -0.56571665066507 -0.59852820782078
 6  2.94804637163716  3.17156484848485  0.43110076807681
 6 -2.31394016201620 -2.09383287528753 -0.94024525052505
 6  2.14745383438344  0.79941200520052 -0.30621130113011
 6 -1.59113107310731  0.27005489448945 -0.26577052805281
 6  0.71098792779278  0.97641045504550 -0.14069274127413
 6 -0.27157702770277  0.10408280828083 -0.44945591559156
 1  13.07056563656366 -1.24662807290729  1.75011070007001
 1  12.75648914791479 -2.81443465756576  1.46954463846385
 1 -14.38427140014002 -0.91221866376638  1.64299522052205
 1 -14.16293978897890 -0.52327019891989 -0.20202205820582
 1  12.70374138113811 -2.46702600970097 -0.80822138013801
 1 -12.81454188618862  1.21918590069007  1.82388012201220
 1  14.00008459545955  0.09557213511351 -0.32821800280028
 1  13.75768132513251 -0.44545990309031 -1.94238696969697
 1 -13.48002321132113  2.08038309840984 -1.03131587458746
 1 -12.52303827682768  2.85128014811481  0.34446548254826
 1  11.02041473047305 -2.16073450245024  2.92513720972097
 1  9.29216754375438 -1.36234603360336  2.47280403540354
 1  10.94785852785279 -0.46618548564856  2.92685607160716
 1  10.74024028702870 -2.89804457845785 -0.63462014501450
 1  10.49396839973997 -3.38184682768277  0.90741018101810
 1  9.20971828882888 -2.51197250525053  0.22858957995800
 1 -11.97116880288029 -0.36293878777878  2.53101339833983
 1 -10.98028086708671 -1.88095063896390  2.12350613461346
 1 -12.69906079907991 -1.76744416431643  2.69524010401040
 1 -13.67047749674967 -2.95749444534453  0.36878500950095
 1 -11.85186042104210 -3.35348193709371  0.12951584958496
 1 -12.72479033803380 -2.24453364526453 -1.15382812481248
 1  8.97425932893290 -0.32584699569957  0.77504462546255
 1 -10.21415618061806 -1.99079614351435 -0.61143494549455
 1  10.59955124712471  1.49019368936894 -1.75045710471047
 1  12.42100792979298  2.18107905080508 -1.53278888688869
 1  12.15727739773977  0.97466832173217 -2.99892258125813
 1 -10.96983138413841  2.52590815491549 -2.13971469246925
 1 -9.80254623262326  1.12659667876788 -2.22888885588559
 1 -9.93599778377838  2.26869952405241 -0.69601275727573
 1  14.58286741474147 -3.41485681278128 -0.17986970697070
 1 -15.02388708170817  1.58505580568057  1.96827792379238
 1  10.30084600360036  2.32583949194920 -0.03108628362836
 1 -8.66811154715472  0.52356695779578 -0.23688431443144
 1  9.04206189318932  4.17622100410041  0.99943578457846
 1  7.70429681668167  4.13091795279528 -0.65198154415442
 1  7.38845810581058  3.79531059905991  1.29707654565457
 1 -7.95572836683668 -3.35559021692169  0.05796050705070
 1 -8.39476384738474 -2.83917392029203 -1.71038292729273
 1 -6.66079185118512 -3.03866840674067 -1.30078551255125
 1  7.12009786478648  0.60621383638364 -0.12564043904390
 1 -6.49000597659766  0.48904639973997  0.09567444244424
 1  5.72196990199020  3.13545921792179  0.46338284728473
 1 -5.03415388638864 -1.98044572257226 -0.75947209720972
 1  4.49301249424943  0.23424817081708 -0.29102117011701
 1 -4.18468987298730  0.73715308730873  0.13292457345735
 1  3.20316594459446  3.40990288028803  1.63748698969897
 1  1.84015227622762  3.68370935293529  0.15236983898390
 1  3.48855423542354  3.93957058205821 -0.31651470947095
 1 -2.86976809180918 -2.91376366836684 -0.32869053405341
 1 -2.56031474447445 -2.36418348034803 -1.79844858685869
 1 -1.27637802280228 -2.36145369536954 -0.85848439143914
 1  2.42814417741774 -0.09831311231123 -0.67663387538754
 1 -2.00602522552255  1.16711495549555 -0.03893780078008
 1  0.56992729172917  2.08439386638664  0.10300231023102
 1  0.21675346034603 -0.79341950595060 -0.69042071607161

