%nproc=4
%Mem=2GB
# td=(NStates=1) CAM-B3LYP/6-31G(d,p) 

TD

0 1
 8  14.80133565856586 -2.21174410751075 -0.43827075007501
 8 -14.92438750275027  1.80714601970197  0.77853738473847
 6  11.19686203220322 -1.47949050115012  0.98501466246625
 6 -12.38116328032803 -1.01612323022302  0.62149579357936
 6  12.72859642564256 -1.79234853095310  1.00513540554055
 6 -13.75861258025803 -0.31487950785079  0.50074288628863
 6  13.33484152315232 -1.84517683978398 -0.32233577857786
 6 -13.71558085108511  1.09757841894189  0.78625987698770
 6  10.95278460546055 -0.26993462046205 -0.01844513751375
 6 -11.29340570457046 -0.21078208510851 -0.23825150115012
 6  13.27881837283728 -0.54417290239024 -1.02675542954295
 6 -12.87853029102910  1.77605061216122 -0.27384673767377
 6  11.89303517251725  0.17045742864286 -0.97671031403140
 6 -11.51274186918692  1.06969359845985 -0.59898189418942
 6  10.82822386338634 -1.07646308730873  2.48289167316732
 6  10.43341396139614 -2.72749051705171  0.58984237423742
 6 -11.91655346134613 -1.33887357925793  2.04663079407941
 6 -12.45428192319232 -2.33554477637764 -0.03880261826183
 6  9.64781002200220  0.41561051405141  0.21839579957996
 6 -10.02931850385039 -0.93013575547555 -0.50188147314731
 6  11.66461234123412  1.23788896279628 -2.01462345234523
 6 -10.65767405540554  1.88906838393839 -1.50175706570657
 6  9.37558146314632  1.69262550555056  0.11166780678068
 6 -8.77145854285429 -0.47024897379738 -0.31584668666867
 6  8.08708781378138  2.27398338133813  0.10486126112611
 6 -7.55698373237324 -1.10310863876388 -0.68099426842684
 6  7.97275905990599  3.72459131413141  0.42201638563856
 6 -7.64572286928693 -2.60484006090609 -1.10894957995800
 6  6.94370434143414  1.46532547354735 -0.07305979097910
 6 -6.36325902290229 -0.51604986688669 -0.30994991999200
 6  5.61423213721372  2.04802904090409  0.20228719771977
 6 -5.04301284728473 -1.11496856975698 -0.39964684268427
 6  4.48032681868187  1.15391158515852 -0.02505459045905
 6 -3.95939723672367 -0.26782900690069 -0.05310812581258
 6  3.14126161716172  1.58591298229823  0.12158627462746
 6 -2.62016747274727 -0.71346142514251 -0.31323967896790
 6  2.93839540654065  3.00205789778978  0.64981263926393
 6 -2.32798156615662 -2.11941543354335 -0.75272649864986
 6  2.17712680168017  0.65549761376138 -0.12753343334333
 6 -1.61516347634763  0.18337622662266  0.01827787678768
 6  0.81075790479048  0.90594340834083  0.09654098209821
 6 -0.23219308930893 -0.00915851585159 -0.21367233723372
 1  13.15390397039704 -1.12506591669167  1.79994568356836
 1  12.78718221722172 -2.86232944704470  1.42343002700270
 1 -14.51728470147015 -0.73014045594559  1.18283920492049
 1 -14.21121461646165 -0.45132300420042 -0.44905676167617
 1  12.82232323932393 -2.65641494859486 -1.12646320432043
 1 -13.04845527752775  1.48049203130313  1.70331806580658
 1  14.02363695069507  0.29057163506351 -0.62537771877188
 1  13.72016757375738 -0.33367872497250 -2.10876360736074
 1 -13.39984519351935  1.94789985008501 -1.23414615761576
 1 -12.68754472747275  2.69243426352635  0.05596663266327
 1  11.27334002300230 -1.84059248824883  2.99878457445745
 1  9.64656298329833 -1.12440223922392  2.73243999899990
 1  11.25725946794680 -0.12568143524352  2.66795018101810
 1  10.91439770277028 -3.21521629562956 -0.43100978397840
 1  10.52005100800080 -3.44470311331133  1.35694513451345
 1  9.23116043304331 -2.58634994299430  0.50705742674267
 1 -11.81951363736374 -0.32217471137114  2.66022631963196
 1 -11.07577041604161 -1.78504104800480  2.32172595659566
 1 -12.73996488948895 -1.82323974387439  2.73158373837384
 1 -13.61094154315431 -2.63788248414842  0.21686981798180
 1 -11.88674390939094 -3.05349193809381  0.29454235223522
 1 -12.51652951195119 -2.43685287718772 -1.28704144614461
 1  8.95939784278428 -0.45568997999800  0.59834695569557
 1 -10.19044380938094 -1.94086115001500 -0.73802760476048
 1  10.64803609560956  1.48518318831883 -2.14256631563156
 1  12.31669749874987  2.08575951885188 -1.75040064806481
 1  12.13148481848185  0.89552040694069 -3.10557324632463
 1 -11.29474387538754  2.07539310341034 -2.52411313231323
 1 -9.82473845184518  1.32439645874587 -1.90531649864986
 1 -10.33623780778078  2.90396305040504 -1.10436359235924
 1  14.96415554355436 -3.09082440954095 -0.17701942194219
 1 -15.33679837283728  1.37278457855786  1.51029212521252
 1  10.27052297129713  2.39326623462346 -0.03203637863786
 1 -8.63545828182818  0.63844844594459  0.17669704370437
 1  8.99656734373437  4.01981536353635  0.72224806580658
 1  7.55061144814481  4.44240910191019 -0.26743308930893
 1  7.27695695569557  3.77199826782678  1.34824166216622
 1 -8.24405719971997 -3.30914557245725 -0.23209849884989
 1 -8.58977334833483 -2.66856685958596 -2.05082697169717
 1 -6.59012478447845 -3.01545608550855 -1.25773120712071
 1  7.04228008300830  0.52450566556656 -0.34122199719972
 1 -6.63066004200420  0.48772626772677  0.17427230223022
 1  5.27035474047405  2.89833550555056  0.57686419541954
 1 -4.76849732073207 -1.96965464346435 -0.85591174117412
 1  4.71329452245225  0.05414016001600 -0.36191825982598
 1 -4.11231263526353  0.69828920092009  0.19574085508551
 1  3.58299392739274  3.19589147914791  1.61984522552255
 1  1.77861612261226  3.09661064306431  1.11670627262726
 1  3.18491387138714  3.65020164516452 -0.15650870887089
 1 -2.49166028102810 -3.06929922192219  0.09521185618562
 1 -2.98699741274127 -2.23491055305531 -1.72296103810381
 1 -1.25799618461846 -2.39733728372837 -1.29223776677668
 1  2.58503986698670 -0.24604788578858 -0.63423963596360
 1 -1.85089971297130  1.13983222722272  0.33214930793079
 1  0.57327762676268  2.06829225622562  0.61962397239724
 1  0.10282206720672 -1.17462762676268 -0.42791446544654

