%nproc=4
%Mem=2GB
# td=(NStates=1) CAM-B3LYP/6-31G(d,p) 

TD

0 1
 8  14.60067559255926 -2.29477241034103 -0.38348527152715
 8 -14.80920598459846  1.78022332743274  0.92603213421342
 6  11.33276562256226 -1.38345089718972  1.15043120412041
 6 -12.39630479447945 -1.09233085098510  0.66076972097210
 6  12.88337190319032 -1.62226152225223  1.14087897989799
 6 -13.72055877487749 -0.26556457635764  0.66368918091809
 6  13.20982902190219 -2.01075339743974 -0.32473601860186
 6 -13.46169546254625  1.17649631073107  0.95423667466747
 6  10.93939326632663 -0.21576920392039  0.06321302830283
 6 -11.33172953695370 -0.20974198109811 -0.22162983898390
 6  13.15162565356536 -0.70862934803480 -1.23079583358336
 6 -12.74855729372937  1.85043805090509 -0.19738909190919
 6  11.76125199419942  0.01284166706671 -0.99203184618462
 6 -11.53378397339734  1.07750437953795 -0.54281627762776
 6  11.02604364536454 -0.83042848384838  2.52455583958396
 6  10.34184480448045 -2.63567133513351  0.85410880088009
 6 -11.80865267126713 -1.47618731063106  1.94770090109011
 6 -12.59172566756676 -2.34800602250225 -0.13549228722872
 6  9.65178041904190  0.41495044804480  0.23750771077108
 6 -10.06874244624463 -0.94978772067207 -0.54044532953295
 6  11.53348922892289  1.10849602350235 -1.94752674267427
 6 -10.49668795679568  1.81889136623662 -1.26962385238524
 6  9.30425433043304  1.66333257625763  0.05662230223022
 6 -8.83001439843984 -0.47871982088209 -0.19582468446845
 6  8.11286039103910  2.24606058905891  0.15903667866787
 6 -7.59329736373637 -1.23372170007001 -0.56212238123812
 6  8.00254203820382  3.71349020402040  0.30826501050105
 6 -7.62547084408441 -2.65869544644464 -1.09506819181918
 6  6.87581755275528  1.39830877187719  0.06602411741174
 6 -6.37015971297130 -0.59971823372337 -0.41768069306931
 6  5.63482419641964  2.05938017601760  0.22055902490249
 6 -5.08159670567057 -0.99277635053505 -0.62103898189819
 6  4.51978076407641  1.22828902290229  0.03537145214521
 6 -3.94943624062406 -0.24261648564857 -0.28072088708871
 6  3.11965945694569  1.61648603960396  0.24931904790479
 6 -2.56200165616562 -0.71121120012001 -0.59040739573957
 6  2.83895546254625  3.01645933793379  0.73346100410041
 6 -2.33161192919292 -2.04908840084008 -1.15154638063806
 6  2.08481757075708  0.70900296429643 -0.18493917391739
 6 -1.58734069406941  0.24757264626463 -0.23754770577058
 6  0.76146297529753  0.98341115511551 -0.09451812381238
 6 -0.21519138913891 -0.04746234623462 -0.35894686468647
 1  13.49943852385239 -0.65759917001700  1.50991668066807
 1  13.01984548354836 -2.58525173927393  1.93994167816782
 1 -14.59500247324732 -0.43477091899190  1.35031595259526
 1 -14.28911240624062 -0.42940081198120 -0.12809466546655
 1  12.50689169616962 -2.63920322742274 -0.76404696269627
 1 -12.91715214721472  1.31972595469547  1.97910564456446
 1  13.94848943594359  0.14651722962296 -0.75597077807781
 1  13.31190674767477 -0.96825218231823 -2.34891762276228
 1 -13.56680188918892  2.10334539463946 -0.94998774177418
 1 -12.33532950595059  2.83641866196620  0.04001503750375
 1  11.23566625562556 -1.56165459445945  3.09471416741674
 1  9.96520484748475 -0.57284708370837  2.68149490449045
 1  11.77211095309531 -0.27742660976098  2.96439982598260
 1  10.50013627662766 -3.19145391939194 -0.06775345834583
 1  10.75009401230123 -3.47210585358536  1.65454489448945
 1  9.43364068106811 -2.16909821782178  1.00776749774978
 1 -11.78734042004201 -0.51328382228223  2.68755905290529
 1 -10.65489832883288 -1.78413095699570  1.63168695269527
 1 -12.52894378737874 -2.23727114701470  2.40758133813381
 1 -13.38671912091209 -2.95581427732773  0.53905203620362
 1 -11.87210244524453 -3.05095168406841 -0.32016911891189
 1 -12.96232409140914 -2.23068226012601 -1.21459420142014
 1  9.05465736873687 -0.51773618461846  0.62030915191519
 1 -10.19417418241824 -1.96964402830283 -0.82094589658966
 1  10.48123941594159  1.37860253025303 -1.95244730373037
 1  11.96421225022502  1.93707465036504 -1.72095770377038
 1  11.98541021102110  0.92428328322832 -2.90893358235824
 1 -11.18772317331733  2.46121168526853 -1.92436315731573
 1 -9.78881485948595  1.33151717081708 -1.90975694269427
 1 -9.79480366436644  2.74383703780378 -0.89595275127513
 1  14.57964709270927 -3.04634996209621  0.09222750275027
 1 -15.45516020902090  1.37838513861386  1.63075417141714
 1  10.18878479747975  2.36293320132013 -0.33430660566057
 1 -8.48539327532753  0.43813841494149  0.13816319031903
 1  8.97548523552355  4.28245162716272  0.13852969396940
 1  7.17400378737874  4.15585044604460 -0.36773311931193
 1  7.57738699869987  4.07321838983898  1.36014285228523
 1 -8.19861265526553 -3.39207386528653 -0.39802509150915
 1 -7.94740911191119 -2.64296429932993 -2.19691158015802
 1 -6.54773054505451 -3.03078761866187 -1.29854528852885
 1  6.96015187018702  0.32087530253025 -0.00774864986499
 1 -6.56047302330233  0.54996249134913 -0.15108023302330
 1  5.51758946394639  3.12828850085009  0.43996050505050
 1 -5.12657312831283 -2.06125380338034 -1.03565971597160
 1  4.66203939693969  0.27836258225823 -0.45572764076408
 1 -4.24755615961596  0.88236760876088 -0.18676739573957
 1  3.90636626462646  3.14736662666267  1.47170041104110
 1  1.77788604960496  3.34946592859286  1.16052065406541
 1  3.10749612961296  3.71331795679568 -0.16329938793879
 1 -3.11094220922092 -2.55780807280728 -0.50928859385939
 1 -2.73104181718172 -2.12375943794379 -2.07084582658266
 1 -1.34695508050805 -2.65587313731373 -1.23821236423642
 1  2.39623098609861 -0.33250653165316 -0.41003721572157
 1 -1.83542816581658  1.15294353835384  0.22704879787979
 1  0.51868216721672  1.90666609360936  0.36709871987199
 1  0.06692847784778 -1.03114327832783 -1.09063073707371

