%nproc=4
%Mem=2GB
# td=(NStates=1) CAM-B3LYP/6-31G(d,p) 

TD

0 1
 8  14.72427795279528 -2.24445737883788 -0.11408833183318
 8 -14.67941300530053  1.84518982408241  1.11219075007501
 6  11.21885423142314 -1.40229278137814  1.03299946094609
 6 -12.32912807680768 -0.96485810371037  0.71163480748075
 6  12.73846741274127 -1.73010230633063  1.11166605860586
 6 -13.69250596959696 -0.29435745564556  0.72590540254025
 6  13.33881192019202 -1.88786110821082 -0.24985853085309
 6 -13.45433472647265  1.18828748984898  0.98886013701370
 6  10.98403773077308 -0.27493512051205  0.05568227522752
 6 -11.27866423042304 -0.19439044594459 -0.07287496349635
 6  13.33382387338734 -0.45866435153515 -0.87092984698470
 6 -12.73253569156916  1.82404541164116 -0.17166651965197
 6  11.92362823182318  0.15694607750775 -0.84256689968997
 6 -11.59327992299230  1.02404903400340 -0.47990998699870
 6  10.63209425042504 -1.06894233523352  2.33309669366937
 6  10.54065468546855 -2.68938670667067  0.58358174817482
 6 -11.87272907890789 -1.34694438633863  2.14931106210621
 6 -12.66339283428343 -2.33154437633763 -0.00029876787679
 6  9.63383862486249  0.31910086308631  0.11744570457046
 6 -10.07316288828883 -1.03235597749775 -0.35524680968097
 6  11.72036791679168  1.22176735063506 -1.85164715471547
 6 -10.67061534953495  1.68587806490649 -1.50593748374837
 6  9.38198210321032  1.63549979297930  0.05635227522752
 6 -8.85427682468247 -0.27558950785078 -0.51941704370437
 6  8.05170427542754  2.27821380438044  0.22255303030303
 6 -7.64580261426143 -1.15411373927393 -0.74538070707071
 6  7.92464424842484  3.73394224922492  0.52029621362136
 6 -7.70577887488749 -2.67587716461646 -1.02096078107811
 6  6.91956192719272  1.54479342034203 -0.04220670567057
 6 -6.41257395439544 -0.58389665156516 -0.41845077007701
 6  5.56338705270527  2.01126536453645  0.15467243624362
 6 -5.11669021502150 -1.03028010091009 -0.79356623462346
 6  4.45649443544354  1.13700989498950 -0.05457754275428
 6 -3.93621491849185 -0.29767199119912 -0.54338715371537
 6  3.20606809780978  1.56793118411841  0.10251436743674
 6 -2.61938739473947 -0.75691577057706 -0.73545190019002
 6  2.89608117511751  3.02503019501950  0.48855651365137
 6 -2.27331609960996 -2.09771326332633 -1.00461168716872
 6  2.11324041304130  0.59819188318832 -0.07244792479248
 6 -1.63980594059406  0.24468235723572 -0.44633858485849
 6  0.75467229622962  0.90482329632963 -0.06615528752875
 6 -0.27266713671367  0.02112451245125 -0.26072704270427
 1  13.23061164116412 -0.89014242434243  1.86826251525153
 1  12.68052155115512 -2.44524773887389  1.92393007700770
 1 -14.46837981098110 -0.80486792869287  1.42200312131213
 1 -14.31649514451445 -0.42390026192619 -0.12125398139814
 1  12.81900290729073 -2.54799410651065 -0.98892945094509
 1 -12.81326175817582  1.51232521462146  1.86386412041204
 1  13.97710229722972  0.22059463736374 -0.47737291829183
 1  13.58318387538754 -0.56859221632163 -1.92958568956896
 1 -13.44833004200420  1.65663072317232 -1.06523926692669
 1 -12.64975094809481  2.90004502460246  0.26186722272227
 1  11.10595328432843 -1.93696212521252  2.99519421542154
 1  9.38085641264126 -1.25576537553755  2.51622837783778
 1  11.28463220522052 -0.49676854395440  2.88253163916392
 1  10.65024128712871 -2.86360113411341 -0.54983166616662
 1  10.59295829872987 -3.56844548754875  1.25659509950995
 1  9.38924624162416 -2.37410871887189  0.75041176217622
 1 -11.72614430043004 -0.59227172107211  2.81159145614561
 1 -10.94341718071807 -1.82795533943394  2.09370315431543
 1 -12.81792268526853 -2.08047546744675  2.63862444244424
 1 -13.70950139913991 -2.65883457935794  0.32851098209821
 1 -11.88656389138914 -3.11874846374637 -0.11142824482448
 1 -12.89132699169917 -2.22197138903890 -0.98277101910191
 1  8.83060496349635 -0.33826823782378  0.15080220122012
 1 -9.90730549554955 -2.02683974787479 -0.33776757875788
 1  10.75019631163116  1.31490616061606 -2.07775983498350
 1  12.00469629862986  2.36710765366537 -1.56082169016902
 1  12.23843551355135  1.14773562846285 -2.75066775577558
 1 -11.15953035403540  2.31012657675768 -2.22803352435244
 1 -10.01661763976398  1.17914193329333 -2.08531449844984
 1 -10.08843302730273  2.46069872397240 -1.06441959795980
 1  14.73203233123312 -3.37478280538054 -0.15987770777078
 1 -15.04136882988299  1.48662596269627  2.00411150715072
 1  10.26487240624062  2.37802471047105  0.08420524552455
 1 -8.67399213521352  0.65214981608161 -0.27756838283828
 1  8.90097778477848  4.09279266126613  0.49736557755776
 1  7.44635102210221  4.35353021402140 -0.39390573657366
 1  7.29289854985499  3.66972804080408  1.47654449244924
 1 -7.74450724472447 -3.27401205910591  0.05652036303630
 1 -8.34519889088909 -2.99520952385239 -1.85000688968897
 1 -6.59662543454345 -3.02877741764176 -1.25786122012201
 1  7.08821467646765  0.49049226422642 -0.28965684068407
 1 -6.58236521252125  0.55675317041704 -0.39156428142814
 1  5.39304700970097  3.11917758975898  0.22229873887389
 1 -5.04934540554055 -1.99997767576758 -1.21108725872587
 1  4.66438963196320 -0.02217747174717 -0.11672374037404
 1 -4.14995639963996  0.85689506150615 -0.54807352635264
 1  3.25509113711371  3.14196608660866  1.55913915491549
 1  1.77560582158216  3.30354133613361  0.49887448944894
 1  3.56415179517952  3.71770839583958 -0.17179023702370
 1 -2.25472658765877 -2.84354664666467 -0.05934359935994
 1 -3.22937165016502 -2.44257131913191 -1.81717045904590
 1 -1.12667305230523 -2.18065561556156 -1.50482902590259
 1  2.49105046804680 -0.27960124112411 -0.25500171217122
 1 -2.05417004000400  1.20661890589059 -0.21486539353935
 1  0.65608590759076  2.03729915691569  0.03842585258526
 1  0.05753753875388 -0.92664282828283 -0.61505317931793

