%nproc=4
%Mem=2GB
# td=(NStates=1) CAM-B3LYP/6-31G(d,p) 

TD

0 1
 8  14.58278380338034 -2.44437737083708 -0.25851277427743
 8 -14.67779284328433  1.89723502860286  1.07199673067307
 6  11.08741108710871 -1.51419397149715  0.97122328332833
 6 -12.44217938193819 -1.08995061296130  0.45224886888689
 6  12.58149171517152 -1.95123441954195  0.94828972097210
 6 -13.75851257025703 -0.32008002790279  0.55387819981998
 6  13.20109814881488 -1.98283060516052 -0.42438598359836
 6 -13.51293058605861  1.06241490259026  0.79535078607861
 6  10.93240256725673 -0.31447907490749 -0.08564185718572
 6 -11.32455881988199 -0.35319632653265 -0.32001967796780
 6  13.29962045304530 -0.54437292239224 -0.84308706270627
 6 -12.67020945894589  1.74115712281228 -0.27727708070807
 6  11.92094796379638  0.10008039093909 -0.80337298029803
 6 -11.55530612561256  0.93769039813981 -0.73095509150915
 6  10.66298733973397 -1.01797723872387  2.43460684468447
 6  10.24448506850685 -2.72468023602360  0.49301269126913
 6 -11.87314912091209 -1.45081477337734  1.87997412841284
 6 -12.77127362236224 -2.40042126402640 -0.19113785178518
 6  9.63536877787779  0.39780873387339 -0.00254629462946
 6 -10.05447101910191 -1.10849359125913 -0.59659094409441
 6  11.68108398839884  1.13704887878788 -2.02009399939994
 6 -10.52735102310231  1.81781125822582 -1.55551244124412
 6  9.36225013001300  1.68426466946695  0.06520316031603
 6 -8.85847724472447 -0.56253820272027 -0.24440954295430
 6  8.11035014001400  2.26406238923892  0.13226400140014
 6 -7.55124315831583 -1.22906123402340 -0.42810897989799
 6  8.09850163416342  3.83464231923192  0.48337252125212
 6 -7.59784808180818 -2.72259183608361 -0.98228691369137
 6  6.98803877487749  1.67989693069307 -0.05194767976798
 6 -6.43669636663666 -0.64403266516652 -0.17123604860486
 6  5.66178689268927  2.07547178517852  0.05234220322032
 6 -5.04656320232023 -1.00132720562056 -0.38481535953595
 6  4.59496828282828  1.36099229322932 -0.08618070307031
 6 -3.94485578257826 -0.21395361936194 -0.15102791779178
 6  3.18928641964196  1.77458184918492  0.16707082308231
 6 -2.57971342734273 -0.63882396139614 -0.21703005800580
 6  2.97087865486549  3.15609330133013  0.58381603960396
 6 -2.28742751075108 -1.96886037803780 -0.75294652065207
 6  2.10487957695770  0.92944500850085 -0.08651933193319
 6 -1.58839079907991  0.27355524452445 -0.00114406540654
 6  0.74665149414941  1.04655746974697  0.06900822882288
 6 -0.18380825082508  0.15765816581658 -0.28024899489949
 1  13.19793837383738 -1.19442285238524  1.53873956295629
 1  12.87975147414742 -2.86680989508951  1.51761944594459
 1 -14.31101407440744 -0.88298574047405  1.29432035303530
 1 -14.32398589358936 -0.48897676957696 -0.44256611261126
 1  12.66315732273227 -2.65789509660966 -1.10920147814781
 1 -13.07545797779778  1.31483546564657  1.82090982498250
 1  13.89721430843084  0.02961553945395 -0.20832601360136
 1  13.64244980198020 -0.68262361946195 -1.75556828782878
 1 -13.38151336033603  2.00563562366237 -1.19608235123512
 1 -12.21472744574457  2.76463148324833  0.13997503350335
 1  11.02613530253025 -1.85510393939394  3.04429912591259
 1  9.52011033803380 -0.76444624362436  2.61701845684568
 1  11.17890163216322 -0.00633950105010  2.64964835083508
 1  10.83231949494949 -3.08111288528853 -0.59100578357836
 1  10.06804580748075 -3.60463910691069  1.13592303230323
 1  9.23611092809281 -2.11654296229623  0.48803552455245
 1 -11.77243892989299 -0.38050054395440  2.52239253625363
 1 -10.84719755875588 -1.73507605150515  1.91580536453645
 1 -12.52376326932693 -2.10633805370537  2.42143272327233
 1 -13.45627607660766 -2.96118481438144  0.23716184718472
 1 -11.82174740974098 -3.03573016191619 -0.04492159415942
 1 -12.84229208820882 -2.25415460736074 -1.26409915191519
 1  8.86151805480548 -0.42841725272527  0.35917303830383
 1 -10.11147591259126 -2.22824988888889 -0.66358016001600
 1  10.58388968096810  1.30687535753575 -2.08379043804381
 1  12.32947877687769  1.91463240614061 -1.88808441644164
 1  12.18105977597760  0.74374522942294 -3.02021471047105
 1 -11.00226462746275  2.06498206230623 -2.59264998599860
 1 -9.29814579257926  1.53798781788179 -1.87901386838684
 1 -10.44578876287629  2.84228688278828 -0.79702285828583
 1  14.66815594359436 -3.42666799389939 -0.28693041304130
 1 -15.02493718671867  1.55834313441344  2.00088118411841
 1  10.08695461446145  2.45350225822582 -0.00016319131913
 1 -8.53865860186019  0.32859746084608  0.16638601260126
 1  9.08925661266127  4.41790517251725  0.39626546754675
 1  7.47300368736874  4.49157401840184 -0.02027837383738
 1  7.82044130413041  4.02607367536754  1.45196203420342
 1 -8.22695548954896 -3.48524318221822 -0.46829211821182
 1 -8.01981635263526 -2.60078008090809 -2.05368725772577
 1 -6.56460223222322 -3.23449798969897 -1.20319575357536
 1  7.08234408940894  0.61395461046105 -0.13531140614061
 1 -6.63159013501350  0.24562205730573  0.48642351735174
 1  5.70935864086409  3.11830750275027  0.41199770877088
 1 -4.84987545854585 -2.09059673767377 -0.60250640064006
 1  4.73023621662166  0.23411815781578 -0.61206327432743
 1 -4.09742114611461  0.77444681668167  0.19092037303730
 1  3.32344797279728  3.30326221622162  1.50672391339134
 1  2.04915317631763  3.57662864486449  0.47189179117912
 1  3.54302968296830  3.71077770277028 -0.11396445444544
 1 -3.19718083308331 -2.65777806980698 -0.29243690869087
 1 -2.45602431543154 -1.97932499449945 -1.85007374937494
 1 -1.28885927092709 -2.41321887188719 -0.53121166416642
 1  2.68954031703170  0.03479019801980 -0.47773398539854
 1 -1.98694331733173  1.27696594059406  0.44116020902090
 1  0.38522882188219  2.08895432243224  0.49423143314331
 1  0.08504028902890 -0.80277044104410 -0.51401307530753

