%nproc=4
%Mem=2GB
# td=(NStates=1) CAM-B3LYP/6-31G(d,p) 

TD

0 1
 8  14.89809533453345 -2.09339227232723 -0.12198912191219
 8 -14.71391645564556  2.01902720782078  1.06574610561056
 6  11.40793313931393 -1.42255480758076  0.97963412441244
 6 -12.52084724872487 -1.02777439533953  0.49385302930293
 6  12.82378594459446 -1.64705400150015  1.08188308030803
 6 -13.83442016101610 -0.18480650055006  0.62385519751975
 6  13.43463150215022 -1.82120444254425 -0.38325187018702
 6 -13.51915120812081  1.29318797989799  0.89974122512251
 6  10.96749607660766 -0.25355298229823  0.11156786378638
 6 -11.31402776677668 -0.20760176707671 -0.13323099909991
 6  13.23591408240824 -0.55413389848985 -1.04237699169917
 6 -12.68978141614161  1.91991499859986 -0.17340669366937
 6  11.83995986498650  0.07347773067307 -0.94362700570057
 6 -11.51962255725573  1.07852448154815 -0.44460645664566
 6  10.90871191219122 -0.98098353935394  2.47654103810381
 6  10.49373999399940 -2.62967073507351  0.56214960496050
 6 -12.00284209020902 -1.42074176607661  1.95457158815882
 6 -12.66057255225522 -2.28211943384338 -0.26513525152515
 6  9.65775101610161  0.27357631063106  0.11523548354835
 6 -10.01824739673967 -0.92569531143114 -0.36563784878488
 6  11.59472535253525  1.12629780368037 -1.94453644364436
 6 -10.54610289828983  1.79168864596460 -1.43134002400240
 6  9.33296720172017  1.71857810081008 -0.02392575257526
 6 -8.77303870087009 -0.45280722962296 -0.27702280428043
 6  8.03396250125012  2.32495847884788  0.10308108310831
 6 -7.60146818081808 -1.22517084498450 -0.57762393139314
 6  7.93364514851485  3.74873372837284  0.50640482448245
 6 -7.77747604460446 -2.63231280818082 -1.09058774377438
 6  6.85447541854185  1.51629057005701  0.07977549254925
 6 -6.36355905290529 -0.59130739263926 -0.41949087408741
 6  5.60664137813781  1.94301853985399  0.22185915491549
 6 -5.04038258425843 -1.15288236113611 -0.54536141414141
 6  4.48818760476048  1.25613180718072 -0.02462454745475
 6 -3.99915121212121 -0.42194441844184 -0.21535435043504
 6  3.12476996799680  1.56339073007301  0.09937405340534
 6 -2.63440889688969 -0.85415549454946 -0.42181053605361
 6  2.75346691369137  3.04485217721772  0.59098675667567
 6 -2.44101286928693 -2.37232072407241 -1.06424765076508
 6  2.14410349934994  0.70767283128313 -0.20597127712771
 6 -1.63567552755276  0.01092898189819 -0.20131408240824
 6  0.76387321632163  0.89040185418542 -0.03925259725973
 6 -0.18374824482448 -0.13414101410141 -0.37128809880988
 1  13.38258683868387 -0.95047845794579  1.76253194219422
 1  12.99876337533753 -2.68503171727173  1.54089177317732
 1 -14.47565053805381 -0.50385782768277  1.29312023302330
 1 -14.42751624662466 -0.49244711661166 -0.25252710871087
 1  12.81967297429743 -2.57889719681968 -0.99075963396340
 1 -13.01397182918292  1.29262324442444  1.80359809380938
 1  13.88354294129413  0.18321089898990 -0.59291447244724
 1  13.49762531953195 -0.57041239833983 -2.12560529152915
 1 -13.19121433043304  2.04011907200720 -1.14821756475648
 1 -12.33589956295630  3.01403642374237  0.22763379937994
 1  11.05754844384438 -1.91984041304130  3.30022471847185
 1  9.81551987898790 -0.69036883588359  2.43731048604861
 1  11.41986572857286 -0.06334520162016  2.72196558255826
 1  10.67826408940894 -3.15118989298930 -0.28692537553755
 1  10.82505150805081 -3.37717636063606  1.41638107810781
 1  9.44259157615762 -2.28573988198820  0.54742146314631
 1 -11.54110579657966 -0.58252074597460  2.52842313931393
 1 -11.03844668366837 -2.10041258515852  1.93991777577758
 1 -12.98581947494749 -1.89676709660966  2.55064564456446
 1 -13.58075852485248 -2.77575627152715  0.18532666366637
 1 -11.71907714271427 -3.08408499739974 -0.20146724872487
 1 -13.03742160116012 -2.00803999589959 -1.36980972297230
 1  8.68318022102210 -0.25456986798680  0.35811293229323
 1 -10.21977674267427 -1.96508357225723 -0.81175497749775
 1  10.50134142614261  1.15847051705171 -2.02569462846285
 1  11.91726755575558  2.14080502340234 -1.62455806380638
 1  12.03082475247525  0.86502735763576 -2.89125181418142
 1 -11.11096549754975  2.36576214031403 -2.23137385838584
 1 -9.78377435543554  1.06565058415842 -1.88559452645265
 1 -10.05380956495650  2.89345199929993 -1.07339049504951
 1  14.86426555455546 -3.07152247934793  0.13144142414241
 1 -15.11986667966797  1.40107740784078  1.75560665666567
 1  10.25967188618862  2.29645655365537 -0.09627280228023
 1 -8.66828156415642  0.52847744884488  0.26983635763576
 1  8.84666235323532  4.15328871087109  0.60761660266027
 1  7.46052243924392  4.37984284528453 -0.45496184218422
 1  7.47171643164316  3.94706577457746  1.52826966496650
 1 -8.46608940294029 -3.25210986888689 -0.33031832083208
 1 -8.23760813181318 -2.59482948584859 -2.14159604860486
 1 -6.83265903790379 -3.23395793569357 -1.04428986298630
 1  6.94149000400040  0.44748796379638 -0.15846372137214
 1 -6.14053102910291  0.30541803690369  0.08410328532853
 1  5.43251095609561  3.05747141914191  0.46849335833583
 1 -4.93766423742374 -2.06142382038204 -1.07605375537554
 1  4.62700589358936  0.19149389538954 -0.45287735573557
 1 -3.95690709470947  0.49161853385339  0.25422670367037
 1  3.05953158115812  3.12162405240524  1.48582182318232
 1  1.83519178017802  3.28685966796680  0.53214781678168
 1  3.13976935693569  3.88183480848085 -0.09380243824382
 1 -2.51457257225723 -3.20056234823482 -0.20944860986099
 1 -3.16669538253825 -2.45699276127613 -1.80609935193519
 1 -1.37000738573857 -2.48101565156516 -1.57715625862586
 1  2.50336169916992 -0.30451373237324 -0.30271648364836
 1 -1.95664028702870  0.99246749074907  0.20124621762176
 1  0.41040133913391  1.94926035303530  0.30035204520452
 1  0.27933971897190 -1.07433759775978 -0.81871354535454

