%nproc=4
%Mem=2GB
# td=(NStates=1) CAM-B3LYP/6-31G(d,p) 

TD

0 1
 8  14.71408693369337 -2.03258619171917 -0.34502142514251
 8 -14.88005306930693  1.95606091119112  0.88109764076408
 6  11.27860020602060 -1.42325487758776  0.96261242224222
 6 -12.24299946394639 -0.87208882678268  0.71143478747875
 6  12.73176674267427 -1.82097139323932  0.87552244424442
 6 -13.69003572257226 -0.20150817071707  0.58308112011201
 6  13.39986802580258 -1.72589491159116 -0.40203374837484
 6 -13.52740203320332  1.39810847194719  0.83475472647265
 6  11.01367069406941 -0.21304893189319  0.07807451445145
 6 -11.24004036803680 -0.17662866976698 -0.20310798679868
 6  13.31000149114911 -0.31899038413841 -1.00616337033703
 6 -12.74041647964796  1.88727173427343 -0.37131648464846
 6  11.89389525852585  0.16252663556356 -0.87893053605361
 6 -11.58696929192919  1.01992862196220 -0.67730972697270
 6  10.73888492949295 -1.05583102410241  2.36675005900590
 6  10.43208382838284 -2.69151691969197  0.41897528752875
 6 -11.70778258425842 -0.93113280518052  2.13718984998500
 6 -12.48490498549855 -2.35297651955196  0.22850411241124
 6  9.56341158215822  0.27582653565357  0.15843980398040
 6 -10.08278385038504 -0.93378612051205 -0.40543182818282
 6  11.73047892789279  1.30899607350735 -1.85266725672567
 6 -10.58028631663166  1.81703118021802 -1.61286817681768
 6  9.30341424642464  1.59678592159216  0.20962760276028
 6 -8.81076247324732 -0.45420736963696 -0.36468157015702
 6  7.93861296629663  2.20486646964696  0.30467124212421
 6 -7.57523555755576 -1.21942026992699 -0.53257942694269
 6  8.01333311731173  3.73789264426443  0.72928711271127
 6 -7.74166246324632 -2.69019859675968 -0.93877256225623
 6  6.82345231623162  1.52449139013901 -0.09125161016102
 6 -6.37988068506851 -0.61722998489849 -0.48985791079108
 6  5.47765847984799  2.06668090609061  0.25064203320332
 6 -5.05686423242324 -1.25340241314131 -0.67288416641664
 6  4.42013079907991  1.21164735873587 -0.00112219721972
 6 -3.87373867086709 -0.48167039103910 -0.44419723472347
 6  3.10076756775678  1.59624401540154  0.17678179417942
 6 -2.61903735973597 -0.96993707270727 -0.59394774977498
 6  2.80124169116912  2.95622331433143  0.72534019201920
 6 -2.23190195819582 -2.32012550455046 -1.01421264726473
 6  2.11578066706671  0.62312437643764 -0.10233091309131
 6 -1.52173413341334 -0.09637174817482 -0.13259721072107
 6  0.70779760876088  0.82729554355436 -0.04693336533653
 6 -0.17482735273527 -0.20888848884888 -0.18084905490549
 1  13.04234281428143 -1.21086449654965  1.78760444944494
 1  12.74018751775177 -2.83650686478648  1.31209889388939
 1 -14.43004597759776 -0.66693413531353  1.30844176517652
 1 -14.15508900390039 -0.24201207310731 -0.32423427942794
 1  12.70335134213421 -2.29057836493649 -1.03187374537454
 1 -13.02444287628763  1.60568455055506  1.76942467646765
 1  13.89440402740274  0.37786036393639 -0.54439962096210
 1  13.62425798279828 -0.20246560366037 -2.08882161316132
 1 -13.58413362236224  2.03249830993099 -1.01702444544454
 1 -12.42157813081308  2.75386040614061 -0.20228919291929
 1  10.99442213121312 -1.80569899889989  3.16468116411641
 1  9.56644497149715 -0.95856565556556  2.30612736773677
 1  11.17523126512651 -0.07129599669967  2.67808119411941
 1  10.66182244524452 -3.19850462446245 -0.52444912791279
 1  10.52223122602260 -3.51236987998800  1.06105554555456
 1  9.39877719471947 -2.50547185518552  0.40089681068107
 1 -11.41767345334533  0.01724923102310  2.61871216821682
 1 -10.90317315631563 -1.46926947084709  2.23359714371437
 1 -12.57172806580658 -1.48880630053005  2.44402498249825
 1 -13.32980342934293 -2.65046374227423  1.01761989298930
 1 -11.48267350235024 -2.94396098499850  0.65237813581358
 1 -12.78729658865887 -2.46734592649265 -0.75871861386139
 1  8.77420932393239 -0.69874428542854  0.10771789278928
 1 -10.07201196619662 -2.03865092899290 -0.29833363536354
 1  10.50627191919192  1.64273894389439 -1.90856291529153
 1  12.27869369836984  2.21687263016302 -1.28609421742174
 1  11.95954762476248  0.96728758365837 -2.86278896789679
 1 -11.25039944094409  2.46700226432643 -2.13631435243524
 1 -9.91901787978798  1.22167618671867 -2.20427639463946
 1 -9.81468565256526  2.47988064216422 -1.14237739373937
 1  14.80935006300630 -2.85578090519052  0.11602988298830
 1 -15.43690838383838  1.45783308340834  1.60370146614661
 1  10.29502542154215  2.16862377037704  0.12817964296430
 1 -8.55982071807181  0.61857645874587 -0.31239186518652
 1  9.09482716971697  4.12236561856186  0.67588342934293
 1  7.43280966796680  4.23532839383938  0.00152380638064
 1  7.50368962896290  4.04414548254825  1.67923476147615
 1 -8.40655344934494 -3.02498715661566 -0.06874216321632
 1 -8.39335370637064 -2.64456445934593 -1.99387127612761
 1 -7.05178095009501 -3.51142568246825 -0.91312674667467
 1  6.95459131413141  0.46920013501350 -0.27397527252725
 1 -6.31963893989399  0.55374286938694 -0.37412253725373
 1  5.30768847384739  2.94621029302930  0.50245675467547
 1 -5.08623909490949 -2.25321299929993 -0.87383353335334
 1  4.59029222222222  0.22217696369637 -0.15684775277528
 1 -3.99815121912191  0.48419779177918  0.06021730273027
 1  3.85669129712971  3.47861975197520  1.41497473847385
 1  1.81134939593959  2.67945892789279  1.62479708170817
 1  2.50214559455946  3.61999862486249 -0.42213527152715
 1 -2.28010912591259 -3.29381167316732 -0.11464912991299
 1 -2.88225693869387 -2.85166222822282 -1.70704944694469
 1 -1.14465485048505 -2.55040259025903 -1.34513305630563
 1  2.49498086108611 -0.30404368536854 -0.66098231023102
 1 -1.93955857885789  0.90600884488449  0.15288138113811
 1  0.05704600360036  1.72683811081108  0.63123513351335
 1  0.14024580958096 -1.33737390139014 -0.67098877287729

