%nproc=4
%Mem=2GB
# td=(NStates=1) CAM-B3LYP/6-31G(d,p) 

TD

0 1
 8  14.63730925592559 -2.29978291139114 -0.02621954495450
 8 -14.69976504050405  1.82156746184618  1.00474000500050
 6  11.14196654265426 -1.47766031813181  0.96697285828583
 6 -12.29833499749975 -1.11786340424042  0.67564120812081
 6  12.59082264826483 -1.80054935103510  1.03622851485149
 6 -13.70805752475247 -0.35279329922992  0.75311812381238
 6  13.30205824482448 -1.97069939203920 -0.23788733373337
 6 -13.50882017501750  1.15675433653365  0.98131938293829
 6  10.98614794179418 -0.30292791979198  0.05440214721472
 6 -11.32760912491249 -0.25494650155015 -0.15076275227523
 6  13.29787027802780 -0.53043152825283 -0.91956471047105
 6 -12.82711514951495  1.70313332043204 -0.19009836283628
 6  11.90804667366737  0.12758314121412 -0.85526816981698
 6 -11.59734032903290  1.01435806490649 -0.60861285728573
 6  10.70960200120012 -1.06008144914491  2.37495087908791
 6  10.43742436243624 -2.71345911391139  0.39056244624462
 6 -11.83312511851185 -1.32053174507451  2.04655078607861
 6 -12.52771926692669 -2.45043626552655 -0.05925466346635
 6  9.66797203820382  0.33310226322632  0.13563752375238
 6 -10.09019459145915 -0.94269701160116 -0.41406269126913
 6  11.77568344834483  1.18467364126413 -1.94114610461046
 6 -10.69441772977298  1.82920239733973 -1.45531242124212
 6  9.34625853085309  1.67083332633263  0.10621726172617
 6 -8.79729112611261 -0.51673362226223 -0.33907900990099
 6  8.09256836183618  2.19157514051405  0.19516029102910
 6 -7.57375540954095 -1.15196352425243 -0.68160432943294
 6  7.96730851485149  3.68318717371737  0.65505968996900
 6 -7.61987028402840 -2.54700427732773 -1.11792047704770
 6  6.87634760576058  1.52752169316932 -0.05856834183418
 6 -6.34318701570157 -0.43503176507651 -0.41117004200420
 6  5.69995070907091  2.09160339833983  0.10738770777078
 6 -5.07806635263526 -1.08508558145815 -0.56347322532253
 6  4.52946173217322  1.32085827982798 -0.06959904490449
 6 -3.98452974997500 -0.39698192219222 -0.24974778977898
 6  3.16562405340534  1.70565495649565 -0.02868875287529
 6 -2.60032548854885 -0.67102718171817 -0.36733508850885
 6  2.84303587058706  3.08279597159716  0.31799945794579
 6 -2.25138390639064 -2.13791728372837 -0.88272949894990
 6  2.13271236023602  0.78591065506551 -0.25626630663066
 6 -1.62439439943994  0.21694958395840 -0.22071602260226
 6  0.72875970497050  1.08274108810881 -0.12124079607961
 6 -0.22868273827383  0.12332473247325 -0.48921989198920
 1  13.16293487348735 -1.15334874497450  1.63586927592759
 1  12.66989048804881 -2.85093830793079  1.57585526952695
 1 -14.33347632063206 -0.86054349624963  1.62085300630063
 1 -14.40406390139014 -0.52553042494249 -0.16765862186219
 1  12.77175818281828 -2.64879418651865 -0.91641219921992
 1 -13.28967939993999  1.30161414351435  2.02975070907091
 1  13.90763535053505  0.15199777767777 -0.44589977097710
 1  13.60247580458046 -0.43372872997300 -1.97178990999100
 1 -13.70298550755075  1.74218927902790 -1.02433517651765
 1 -12.65500147314732  2.83589860996100 -0.17266623062306
 1  10.77060974997500 -1.87767619661966  3.22174687068707
 1  9.60777910491049 -1.13585338433843  2.34310106510651
 1  10.98291203320332  0.01428256115612  2.70423380938094
 1  10.52874913791379 -3.04028880288029 -0.76402308530853
 1  10.42465146804680 -3.69141778477848  0.83132257225723
 1  9.32946026302630 -2.36161746974697  0.61153787478748
 1 -11.95620730673067 -0.44551704560456  2.72220251725172
 1 -10.76959979897990 -1.63361590549055  1.75976976097610
 1 -12.40781167416742 -2.04078149804980  2.57407798779878
 1 -13.46078652765276 -2.85423411931193  0.17700583158316
 1 -11.73553878887889 -3.21050763966397  0.03772667066707
 1 -12.54427228622862 -2.10006919881988 -1.06120886288629
 1  8.74954685768577 -0.28938334933493  0.45796291729173
 1 -10.24969973497350 -1.95902296619662 -0.86122992499250
 1  10.61905319731973  1.35757042704270 -2.11195325432543
 1  12.19704553355336  2.03360430333033 -1.71554716271627
 1  12.24775644564456  0.83578443334333 -2.86970965996600
 1 -11.29916431743174  2.49400496459646 -2.11307202820282
 1 -9.91388736673667  1.35714973407341 -2.07214318131813
 1 -10.33173735773577  2.49711236533653 -0.93919707570757
 1  14.70301942994299 -3.11804713181318  0.61446972697270
 1 -15.12411710471047  1.79044634473447  1.86246734273427
 1  10.29794571357136  2.34275118311831  0.14709153415342
 1 -8.78478321432143  0.67082168326833  0.10139951395140
 1  9.03585127212721  3.97435081708171  0.82551839283928
 1  7.38156454345435  4.33318817981798 -0.10140648664866
 1  7.23275253525352  3.74035510351035  1.57678451645165
 1 -7.93047584158416 -3.06698135603560 -0.24662995199520
 1 -8.49378374937494 -2.72756275917592 -1.91415330433043
 1 -6.56206197819782 -3.08909344924492 -1.50592602660266
 1  6.74664051905191  0.50583379837984 -0.17166504150415
 1 -6.57360433643364  0.63873136823682 -0.12896802180218
 1  5.75665337033703  3.21176684868487  0.23161967096710
 1 -4.93934440544054 -2.02564024202420 -0.85136128612861
 1  4.67225041804180  0.20393513951395 -0.20380244824482
 1 -3.97485888988899  0.58937830983098  0.03531481248125
 1  2.38751437943794  3.03913580358036  1.70584382538254
 1  1.89554781578158  3.71466244824482 -0.23311870987099
 1  4.02589796979698  3.95318194319432  0.33809075107511
 1 -2.64984609960996 -2.89720201220122 -0.15766343134313
 1 -2.50739945294529 -2.24143120512051 -1.89949869186919
 1 -1.07253763876388 -2.36792434243424 -0.80574911791179
 1  2.49472083508351 -0.26321960296030 -0.34342055405541
 1 -1.89634425742574  1.36647489148915  0.30672676567657
 1  0.34629492849285  1.89074450145015  0.75987799779978
 1  0.37327911291129 -0.70659082308231 -1.05779745374537

