%nproc=4
%Mem=2GB
# td=(NStates=1) CAM-B3LYP/6-31G(d,p) 

TD

0 1
 8  14.73206873187319 -2.10728366146615 -0.22969989298930
 8 -14.62215727972797  1.92066737183718  1.22161169216922
 6  11.23678602460246 -1.42312486458646  1.19790595159516
 6 -12.26259142314231 -1.04323594149415  0.65245888988899
 6  12.70723428942894 -1.79657895399540  1.08785367736774
 6 -13.59375609460946 -0.26684470437044  0.70922373437344
 6  13.30035807480748 -1.92560488258826 -0.36753029802980
 6 -13.33623291629163  1.28523718481848  1.11006225722572
 6  10.94619394639464 -0.29441706870687  0.08987569456946
 6 -11.25484184818482 -0.24992599949995 -0.13440111611161
 6  13.12172266326633 -0.58394687978798 -0.99863261726173
 6 -12.60489292729273  1.87505051215122 -0.15286463946395
 6  11.84084995399540  0.05707609050905 -0.85575821882188
 6 -11.49031962696270  0.97556418551855 -0.51229322532253
 6  10.94913595459546 -1.02096753775378  2.60177356135614
 6  10.35603622362236 -2.61415918391839  0.76043943394339
 6 -11.75766757275728 -1.41008069997000  2.06354248524852
 6 -12.69404589958996 -2.32737395929593 -0.04678341634163
 6  9.66577181818182  0.32447140014001  0.33545750575057
 6 -10.03383895589559 -0.98085082698270 -0.55410669566957
 6  11.49494537453745  1.20170534443444 -1.81129311931193
 6 -10.52838112611261  1.90010948804880 -1.31843873387339
 6  9.30333423842384  1.64959120212021  0.10117675767577
 6 -8.80529192619262 -0.52491444034403 -0.40583568556856
 6  7.92520162516252  2.22826880988099  0.09948072307231
 6 -7.57373540754075 -1.25453378127813 -0.67408357735774
 6  7.86849863386339  3.67139599459946  0.43784796879688
 6 -7.62109040604060 -2.69759933683368 -1.29132781778178
 6  6.79944991599160  1.57928686968697  0.03857137213721
 6 -6.39180187718772 -0.63636189808981 -0.42589151415142
 6  5.56064677867787  2.01020525852585  0.10369733873387
 6 -5.07310585658566 -1.13453052595260 -0.69970684868487
 6  4.40769955595560  1.25717191119112 -0.00571265626563
 6 -3.99455075207521 -0.45382760676068 -0.49607242224222
 6  3.14988247924792  1.64583897489749 -0.00515639963996
 6 -2.60196565256526 -0.76352643164316 -0.59483783878388
 6  2.81816338333833  3.11639933193319  0.33541119911991
 6 -2.38024679267927 -2.21356484848485 -1.03977520352035
 6  2.09336842584258  0.76371843584358 -0.33342402240224
 6 -1.65216717671767  0.14854274327433 -0.31407535853585
 6  0.69122595159516  1.07224003800380 -0.21857052905291
 6 -0.20591046104610  0.05501790179018 -0.35138610861086
 1  13.39173775377538 -1.06595000510051  1.64819050805081
 1  13.03528702770277 -2.69939315341534  1.51166885088509
 1 -14.44610758375838 -0.78205564746475  1.41050197119712
 1 -14.12285578057806 -0.09557742964296 -0.30831268726873
 1  12.59067007400740 -2.59559886698670 -0.90373093109311
 1 -12.55355578757876  1.45165914801480  2.01018875287529
 1  13.75673026002600  0.04570714861486 -0.58224340534053
 1  13.50708626562656 -0.82737809490949 -2.11477420842084
 1 -13.31274648364836  2.08393345344534 -0.98561130413041
 1 -12.34652062506251  2.92865788588859  0.27962899889989
 1  11.08516120512051 -1.67965639463946  3.62772746874687
 1  9.97731605860586 -0.83849364836484  2.78590534553455
 1  11.57404114611461 -0.27771663876388  2.74026741274127
 1  10.65220148314832 -3.08850362436244 -0.27350403340334
 1  10.19917892079208 -3.41629027202720  1.42711215121512
 1  9.25118243524352 -2.25028633663366  0.71673839483948
 1 -11.49750143614361 -0.40585307920792  2.58117841484148
 1 -10.80424326332633 -1.72704524842484  1.94654843884388
 1 -12.53521441444144 -1.94265168506851  2.66189676967697
 1 -13.71244169316932 -2.74715341124112  0.40525865686569
 1 -12.06141137613761 -2.98881547044704 -0.08178528052805
 1 -13.19944780378038 -2.10827001890189 -1.07789053105311
 1  8.95002690569057 -0.41731614261426  0.40992811381138
 1 -10.21657642264226 -2.07956502040204 -0.61328513051305
 1  10.51759305130513  1.50958562856286 -1.85346740574057
 1  12.04380020902090  2.09366030893089 -1.51903751175117
 1  12.01531320132013  0.83770462536254 -2.60515320432043
 1 -10.92024642564256  2.93080864496450 -1.85257597859786
 1 -9.89794577257726  1.39753377247725 -1.93003897089709
 1 -9.74309849384938  2.35837849194919 -0.68209136513651
 1  14.88986811481148 -3.03450877797780 -0.10640236023602
 1 -15.05645033803380  1.22885018511851  1.88199929592959
 1  10.07572349134914  2.25445235323532  0.22377920292029
 1 -8.86341107710771  0.56747134823482 -0.04058468446845
 1  8.80055774277428  4.22286566856686  0.46026186718672
 1  7.18481486848685  4.18531339233923 -0.09446579257926
 1  7.50019927992799  3.67169823782378  1.46644348234823
 1 -8.06913970797080 -3.26764142204220 -0.46166145514551
 1 -8.40864523552355 -2.75350535343534 -2.01327321632163
 1 -6.56016178817882 -3.06243078297830 -1.33992942694269
 1  6.92635849084909  0.52811602660266 -0.31346922192219
 1 -6.33203017901790  0.36264375947595  0.11811668666867
 1  5.14197190219022  3.09656532853285  0.40369687868787
 1 -4.74880535153515 -2.26022370037004 -1.17703385338534
 1  4.68800199319932  0.14658940494049 -0.22898496649665
 1 -4.15173657765777  0.63711308330833 -0.27638635763576
 1  3.55477110511051  3.73126501650165  1.18578181918192
 1  1.75060332133213  3.42302328432843  0.84281888388839
 1  3.03319869986999  3.58788541354135 -0.61136419441944
 1 -3.06161727672767 -2.86937922992299 -0.39313697869787
 1 -2.81903061606161 -2.20960802280228 -2.19006774877488
 1 -1.20702108710871 -2.63489103910391 -0.87654619761976
 1  2.24452581558156 -0.24430771177118 -0.61233744574457
 1 -2.16709133213321  1.10736898089809 -0.06147005400540
 1  0.37379767876788  2.03607903490349 -0.06007399739974
 1 -0.00454866986699 -0.97514767876788 -0.51938361236124

