%nproc=4
%Mem=2GB
# td=(NStates=1) CAM-B3LYP/6-31G(d,p) 

TD

0 1
 8  14.58716424142414 -2.51568450155015 -0.21709863286329
 8 -14.82271733573357  1.70636594169417  0.95555508650865
 6  11.13569591559156 -1.49281183328333  0.98795495649565
 6 -12.26094125812581 -1.11285290319032  0.72496614061406
 6  12.65479904590459 -1.87623691979198  1.12361725372537
 6 -13.59875659465947 -0.32263028292829  0.69682249424942
 6  13.28394643364337 -1.98002032413241 -0.29407295229523
 6 -13.52443173617362  1.13200186128613  0.89847109810981
 6  10.95000432743274 -0.31498912591259 -0.02453574657466
 6 -11.28571493549355 -0.35875688258826 -0.17790546654665
 6  13.25539603060306 -0.64559304440444 -0.95150790479048
 6 -12.82224466246625  1.67452045914591 -0.31057041004100
 6  11.89015488448845  0.10276065896590 -0.84822746574657
 6 -11.53002359735973  0.95229185828583 -0.60540253625363
 6  10.81855289628963 -1.02882832383238  2.44633801780178
 6  10.36848746874687 -2.74620238823882  0.48729211921192
 6 -11.66454826082608 -1.29002869476948  2.14745087608761
 6 -12.42351884688469 -2.54148537043704  0.19183044504450
 6  9.58220346134613  0.24343329632963  0.02592655265527
 6 -10.05161073307331 -1.00237297919792 -0.41280256525653
 6  11.75357123712371  1.25826100000000 -1.86813880388039
 6 -10.68176646464646  1.72289176627663 -1.69726661666167
 6  9.29863376837684  1.60233647664766  0.09619625962596
 6 -8.78051944894490 -0.43888583748375 -0.24619972197220
 6  8.02433153815381  2.30155613861386  0.25452622762276
 6 -7.53048108210821 -1.03122145004500 -0.59707587658766
 6  8.06649843384339  3.76731558655866  0.52525670967097
 6 -7.66631492849285 -2.47324690159016 -1.01715040004000
 6  6.85079505050505  1.51457039803980  0.11401891689169
 6 -6.28923162016202 -0.47520578247825 -0.12806173117312
 6  5.64429514351435  2.03853809180918  0.25082205120512
 6 -5.07544609060906 -0.87267434033403 -0.60792767076708
 6  4.39205799179918  1.32707890189019 -0.02410449544954
 6 -3.91784308130813 -0.25870809480948 -0.38780159515952
 6  3.13054054505451  1.84341873287329  0.04340845684568
 6 -2.61399685568557 -0.63733381238124 -0.70351870687069
 6  2.84587615461546  3.26648434043404  0.50280793879388
 6 -2.27329609760976 -1.99884337633763 -1.26558778477848
 6  2.08968805780578  0.90926299029903 -0.20744142414241
 6 -1.64630659065907  0.23218110711071 -0.17628157915792
 6  0.69863669266927  1.08006082008201 -0.02316098809881
 6 -0.24949481948195  0.12871527152715 -0.31869283928393
 1  13.24115269526953 -1.16775018511851  1.63033872287229
 1  12.69295279427943 -2.80785399949995  1.69930761476148
 1 -14.31999497249725 -0.72840028192819  1.38035895689569
 1 -13.99506300130013 -0.59293716561656 -0.29234109010901
 1  12.58961996899690 -2.61932123922392 -0.92129268726873
 1 -13.07446787878788  1.18371235333533  1.79228696269627
 1  14.04580916791679 -0.07689511161116 -0.50163534453445
 1  13.66191174817482 -0.84882023912391 -1.95642837383738
 1 -13.52128733773377  1.65313037313731 -1.12753549654966
 1 -12.68394436743674  2.71222624272427 -0.03838280228023
 1  10.88827151615162 -1.90734916391639  3.11573626962696
 1  9.62621094809481 -0.97232703170317  2.48204495949595
 1  11.40282402440244 -0.02862172927293  2.67778116411641
 1  10.56655291829183 -3.20232500650065 -0.43279996299630
 1  10.42981198409841 -3.55707435043504  1.20304974497450
 1  9.24965228222822 -2.34695600360036  0.49727644864486
 1 -11.18897058305831 -0.55360785468547  2.70344064106411
 1 -10.72564540354036 -1.89904244814481  2.01475525952595
 1 -12.38626951995199 -1.78802622252225  2.73021360136014
 1 -13.36245669466947 -2.99248794469447  0.72550068106811
 1 -11.51066630163016 -3.09651624052405  0.45430832883288
 1 -12.60166802580258 -2.74396358825883 -0.97492023402340
 1  8.63206510951095 -0.35837024802480  0.62355947694769
 1 -10.17806257125713 -2.10539760366037 -0.98661246324632
 1  10.71598289028903  1.55559022902290 -2.08902096109611
 1  12.21760758975898  2.09522046494649 -1.32640824882488
 1  12.31079274927493  0.88124897979798 -2.68155084408441
 1 -11.25136953795379  2.14427999209921 -2.35391611261126
 1 -9.89313529152915  1.23271729082908 -2.41598756575658
 1 -10.18298248224822  2.36412906700670 -0.90108326432643
 1  14.43661278927893 -3.35959128622862  0.36495477547755
 1 -15.49331402440244  1.30673797389739  1.64819591559156
 1  10.21494741374138  2.29892680068007 -0.09416259125913
 1 -8.72647738373837  0.60742534363436  0.03385275927593
 1  9.09339702670267  3.87523090509051  0.69509535053505
 1  7.72453884088409  4.45671053205320 -0.30719706570657
 1  7.39304856485649  4.30808187618762  1.36424326232623
 1 -8.07724051805181 -3.08628328622862 -0.14750003900390
 1 -8.40189456045605 -2.68715871877188 -1.98415030403040
 1 -6.59906567856786 -2.70441498139814 -1.59485491949195
 1  7.17017287228723  0.43609682468247 -0.18713658865887
 1 -6.27434441044104  0.67032452755276  0.11844671967197
 1  5.52140984598460  3.04672034403440  0.38318482748275
 1 -5.17599807080708 -1.95675335333533 -1.07116326632663
 1  4.61348454145415  0.26356110211021 -0.43080514851485
 1 -4.13563496749675  0.69820919291929  0.15330661166117
 1  3.42316794479448  3.41309319931993  1.40332357335734
 1  1.74166242724272  3.27458844084408  0.82491709370937
 1  3.20480586058606  4.07681430643064 -0.08186124412441
 1 -3.12248336333633 -2.80661295329533 -1.00859852485248
 1 -2.74746345934593 -2.10400746274627 -2.36863560556056
 1 -1.19453983898390 -2.39287683768377 -1.08053659665967
 1  2.38976033903390 -0.13125640664066 -0.65315152715272
 1 -1.98332295529553  1.21838008200820  0.24949104210421
 1  0.24869516851685  2.06293172017202  0.15758776877688
 1  0.06490827582758 -0.91823198719872 -0.76311798579858

