%nproc=4
%Mem=2GB
# td=(NStates=1) CAM-B3LYP/6-31G(d,p) 

TD

0 1
 8  14.76378190319032 -2.29480241334133 -0.32358928192819
 8 -14.83424848884888  1.79901520662066  1.00985051605161
 6  11.25620796679668 -1.45354790689069  1.01274743574357
 6 -12.27685284928493 -1.01903352125213  0.64483812781278
 6  12.75147871387139 -1.89093838993899  1.07067195919592
 6 -13.67872459145915 -0.37070509040904  0.71962477447745
 6  13.37022506150615 -1.89370169226923 -0.33753729872987
 6 -13.60458975197520  1.12883154425443  0.94871612261226
 6  11.03571289828983 -0.32114974197420  0.07996470347035
 6 -11.31929829382938 -0.20263127002700 -0.18276595259526
 6  13.28652914391439 -0.55523400850085 -0.96058881288129
 6 -12.82686512451245  1.85153816091609 -0.25568492149215
 6  11.95858172717272  0.12438282118212 -0.84937758075808
 6 -11.50006060106011  1.03442007110711 -0.49319131513151
 6  10.98865990699070 -0.91053649464946  2.49206259025903
 6  10.44942556255626 -2.75083285128513  0.69069245924592
 6 -11.85338714471447 -1.25634532643264  2.06988311931193
 6 -12.52342883788379 -2.47090831273127  0.00519178117812
 6  9.58422366336634  0.36380533353335  0.23833779377938
 6 -10.09175474747475 -0.92622536443644 -0.47572885788579
 6  11.66450233023302  1.22038721262126 -1.82360435043504
 6 -10.58400668866887  1.84569404650465 -1.51948883888389
 6  9.39836374137414  1.66719296229623 -0.05424878487849
 6 -8.82868426542654 -0.44457640654065 -0.25242034403440
 6  8.07307641264126  2.28791477447745  0.11584235923592
 6 -7.59031706570657 -1.18026635453545 -0.53488965796580
 6  8.05216700070007  3.84247310231023  0.34486867086709
 6 -7.70572886988699 -2.51015059195920 -1.19632831783178
 6  6.91368133913391  1.50681962296230  0.00247776277628
 6 -6.41384408140814 -0.50758902080208 -0.48352727772777
 6  5.54549526352635  2.02786702470247  0.34240120912091
 6 -5.07928647464747 -1.04721179407941 -0.69299617761776
 6  4.40483926992699  1.31244743874387  0.02293020802080
 6 -3.96058735573557 -0.33089531353135 -0.48628144314431
 6  3.14432192319232  1.70427481848185  0.20720483648365
 6 -2.61578703470347 -0.80951103010301 -0.53553190819082
 6  2.76511807880788  3.10375806780678  0.59177683568357
 6 -2.40594936293629 -2.17718121012101 -0.97664889088909
 6  2.08251734073407  0.77930999499950 -0.18073875387539
 6 -1.65280724072407  0.05940382938294 -0.25971992299230
 6  0.68365519451945  0.90296311031103 -0.06323499549955
 6 -0.30511038103810 -0.06244384438444 -0.36847781778178
 1  13.44731331133113 -1.25078848894889  1.76234192319232
 1  12.76768026702670 -2.86314952905291  1.60906859085909
 1 -14.43873684668467 -0.90664810671067  1.38020894189419
 1 -14.10145364036404 -0.56688456035604 -0.34212606860686
 1  12.80709171617162 -2.65070437753775 -1.18260881888189
 1 -13.01859229122912  1.49754373647365  1.91684941894189
 1  13.96520110711071  0.13033561146115 -0.47157233823382
 1  13.65668122512251 -0.49783514061406 -2.09847257825783
 1 -13.38991420042004  1.98587364746475 -1.01045378837884
 1 -12.56938291129113  2.73251827192719  0.14590562656266
 1  11.60391308030803 -1.60954938393839  3.30829552555256
 1  9.88882720972097 -0.90979077807781  2.58156491149115
 1  11.52988673067307  0.01334246714672  2.45132851885189
 1  10.89765602860286 -3.39129390339034 -0.10206688968897
 1  10.59169817271727 -3.67963660666067  1.55706514651465
 1  9.44045136213621 -2.76370767876788  0.60966768776878
 1 -11.71308299429943 -0.22420491439144  2.57330762776278
 1 -10.77043988298830 -1.60805334923492  2.01534531853185
 1 -12.37134802780278 -2.08551597149715  2.67798837883788
 1 -13.57310775977598 -2.72798149404941  0.71716984798480
 1 -11.73021825682568 -3.04841143004300  0.10167306530653
 1 -12.97608546754675 -2.38202739463946 -1.08464120612061
 1  8.80915281828183 -0.22647705870587  0.79199632063206
 1 -10.22219698469847 -1.85569263316332 -1.12596639863986
 1  10.56396768876888  1.40251492149215 -2.04200625962596
 1  12.28043387238724  2.12994393729373 -1.77911351935193
 1  12.09147081708171  1.00160101500150 -2.91576426542654
 1 -11.34515891689169  2.30645620972097 -2.25894661566157
 1 -9.68932491049105  1.34959897899790 -1.94134010101010
 1 -10.26379056305631  2.70877353145315 -0.76786994299430
 1  14.84210333833383 -3.19787511461146  0.04849312931293
 1 -15.31787648064806  1.47634493459346  1.70524162016202
 1  10.24381030003000  2.22169907790779 -0.40401357635764
 1 -8.65771050705071  0.44617921902190  0.17094646864686
 1  8.97279496649665  4.45237861986199  0.24531037203720
 1  7.31661804880488  4.22383724472447 -0.40432677867787
 1  7.74922418241824  3.94881594959496  1.40062690069007
 1 -8.28396119011901 -3.06430108800880 -0.51728701770177
 1 -8.07916228722872 -2.33317332023202 -2.44728661766177
 1 -6.65340111211121 -3.03596813671367 -1.33880931493149
 1  6.87882373737374  0.55032824782478 -0.45885376037604
 1 -6.63265024102410  0.56812430753075 -0.20777590259026
 1  5.43532123712371  2.92017768976898  0.91534804380438
 1 -4.89492996399640 -2.02634031203120 -1.01065721572157
 1  4.46945013801380  0.17685243124312 -0.26541860986099
 1 -4.18177958195820  0.65958533053305 -0.13273199219922
 1  3.22697832583258  3.22182407240724  1.62769601060106
 1  1.65348360936094  3.31995297729773  0.70471507350735
 1  3.10524590459046  3.92953957895790  0.07622456445645
 1 -3.13101421642164 -2.86073836583658 -0.40798846384638
 1 -2.77607632063206 -2.21651871387139 -2.05102384438444
 1 -1.30074045904590 -2.72009955995600 -0.97263580658066
 1  2.31424278727873 -0.27418069906991 -0.43576978897890
 1 -1.97070169316932  1.13856210021002 -0.22383629062906
 1  0.15774607360736  1.97556298329833  0.34813682368237
 1  0.11399318431843 -1.28604876887689 -0.42079375337534

