%nproc=4
%Mem=2GB
# td=(NStates=1) CAM-B3LYP/6-31G(d,p) 

TD

0 1
 8  14.73778930393039 -2.27776070917092 -0.25220214321432
 8 -14.68752381638164  1.97771307640764  0.93707323832383
 6  11.18476082208221 -1.49567211931193  0.84644080508051
 6 -12.33288845284528 -0.98909052695270  0.76544018801880
 6  12.65233879987999 -1.91701099719972  0.93405829782978
 6 -13.69970668966897 -0.25885390529053  0.78824163616362
 6  13.41831987098710 -1.93137545964596 -0.35510905590559
 6 -13.51239053205320  1.21282994409441  0.96953820482048
 6  11.07621694869487 -0.20865849284928 -0.05395868886889
 6 -11.28279464346435 -0.22874388128813 -0.14916259225923
 6  13.30361085208521 -0.40333881898190 -0.82000475447545
 6 -12.72392483048305  1.86450945804580 -0.22704205720572
 6  12.00276614561456  0.20542092499250 -0.84078672167217
 6 -11.47123771877188  1.05305193429343 -0.63248524452445
 6  10.79386042704270 -1.14689013001300  2.30727411141114
 6  10.20949156915692 -2.62006977497750  0.44222761276128
 6 -11.81184299029903 -1.09174886678668  2.25250138113811
 6 -12.75278177317732 -2.45593681558156  0.20530179217922
 6  9.75968120912091  0.41151010401040  0.16875083508351
 6 -10.05409098109811 -1.02999574147415 -0.45782706770677
 6  11.95044092409241  1.50735590949095 -1.60744273427343
 6 -10.51284957295730  1.79368884598460 -1.55994288428843
 6  9.39497340234023  1.69355559855986  0.09067570757076
 6 -8.78236963396340 -0.49927187608761 -0.49945504750475
 6  8.07812691769177  2.19809579257926  0.33873464846485
 6 -7.71148918291829 -1.31850017791779 -0.67299346834683
 6  7.93106489048905  3.70491934693469  0.66966115011501
 6 -7.71620991799180 -2.86869644654465 -0.95871455645565
 6  6.91067103810381  1.54891383238324  0.13295081008101
 6 -6.44546724372437 -0.69973823572357 -0.48554747974797
 6  5.52834354835483  2.02109634763476  0.28797576657666
 6 -5.13202174817482 -1.16025309820982 -0.62490936893689
 6  4.41127991399140  1.22022821682168  0.09194710971097
 6 -3.97648894589459 -0.33666589058906 -0.47685050005000
 6  3.12321981298130  1.61892628362836  0.11438555455546
 6 -2.64685014101410 -0.72598267726773 -0.56658501350135
 6  2.81519308630863  3.10409810181018  0.33773143114311
 6 -2.37934670267027 -2.24080757275728 -0.91352257825783
 6  2.08478756775678  0.78644070807081 -0.22872355235524
 6 -1.59551151115112  0.14877276627663 -0.37280123112311
 6  0.68154498349835  0.88480129412941 -0.25484415641564
 6 -0.24845471547155  0.02299469946995 -0.48199916991699
 1  13.15252383238324 -1.24318772887289  1.82241793079308
 1  12.60943444244425 -3.09644285838584  1.54955263926393
 1 -14.14540751375138 -0.52297973987399  1.65819674067407
 1 -14.11245474047405 -0.37556542844284 -0.23321517751775
 1  12.84704571157116 -2.59691899899990 -0.99106966496650
 1 -12.90195062706271  1.38073205530553  1.83408114211421
 1  14.11559614661466  0.13187576547655 -0.18969415041504
 1  13.80919647664766 -0.59757511461146 -1.82992572357236
 1 -13.44850005900590  1.86811187128713 -0.84407715071507
 1 -12.48968494149415  2.90466548664866 -0.32040100410041
 1  11.03375606460646 -2.03845227422742  2.95244994099410
 1  9.74604293129313 -0.99741954095410  2.57154390939094
 1  11.47750149214921 -0.35318418551855  2.76938032403240
 1  10.63773003600360 -3.15336011001100 -0.52921960496050
 1  10.16930593349335 -3.52468111111111  1.12619205920592
 1  9.16883420042004 -2.22548385638564  0.41143786478648
 1 -11.63282496849685 -0.04750724462446  2.57554785178518
 1 -10.99199203820382 -1.60590313421342  2.17639142314231
 1 -12.62767366036604 -1.52709012891289  2.78885946594659
 1 -13.53603405240524 -2.73856255215522  0.73551168216822
 1 -11.97601283628363 -3.11774836373637  0.35292819081908
 1 -12.99076693569357 -2.36392558445845 -0.89634237623762
 1  8.72965486848685 -0.37589200020002  0.45329245024502
 1 -10.27429219421942 -2.02891995589559 -0.58055185718572
 1  11.03019431143114  1.92448711871187 -1.87245930493049
 1  12.31455728472847  2.36412735563556 -1.01989759775978
 1  12.67097876787679  1.38971982688269 -2.56973966296630
 1 -11.03146754775478  2.34334989908991 -2.46649737073707
 1 -10.07730370837084  1.12567658675868 -2.25488145514551
 1 -9.87771195519552  2.48146080018002 -1.11084424042404
 1  14.57742687068707 -3.31474680178018 -0.12663438343834
 1 -15.29050374337434  1.90562786288629  1.77229832583258
 1  10.22010792979298  2.43586049404940 -0.08627180218022
 1 -8.69075381138114  0.65252985408541 -0.49587021302130
 1  8.86029371637164  4.18010139213921  0.62822866386639
 1  7.27233362036204  4.31696655765577 -0.05014136013601
 1  7.38205746574657  4.03234430243024  1.50195703370337
 1 -8.31579437343734 -3.33818847674767 -0.28643393239324
 1 -8.15604997599760 -3.13966396929693 -2.17090897989799
 1 -6.55509128112811 -3.21605614551455 -0.85133056705671
 1  6.98722457745775  0.48552176717672  0.02550467546755
 1 -6.47476445244524  0.38229572467247 -0.43150827582758
 1  5.53938164316432  3.03362903490349  0.46667317631763
 1 -4.94553502450245 -2.19923760176018 -0.77853400340034
 1  4.65680887388739  0.17876262226223  0.07439537153715
 1 -4.09058046204620  0.77267663966397 -0.33538225722572
 1  3.10555618361836  3.26153804380438  1.48252149314931
 1  1.73903216421642  3.37169815181518 -0.12704810281028
 1  3.58773415341534  3.82181880688069 -0.17015007300730
 1 -2.80772188718872 -3.12339463146315 -0.22425009000900
 1 -2.86993570657066 -2.31090815281528 -1.91242998499850
 1 -1.31530191519152 -2.60959850985098 -1.11030957395740
 1  2.42136349934993 -0.21081436243624 -0.48072428442844
 1 -1.91925654865487  1.15131337533753 -0.07316122312231
 1  0.30927122612261  1.87507293429343 -0.05335332533253
 1  0.03452523752375 -0.97221738573857 -0.52585425942594

