%nproc=4
%Mem=2GB
# td=(NStates=1) CAM-B3LYP/6-31G(d,p) 

TD

0 1
 8  14.66004152915292 -2.36690962406241 -0.13261018401840
 8 -14.68908397239724  1.90171547664766  1.28086761776178
 6  11.18250059605960 -1.37153970607061  1.13301946294629
 6 -12.34935009900990 -1.02969458735874  0.61223486748675
 6  12.67516108210821 -1.60144944104410  1.20542543454345
 6 -13.73984070307031 -0.32319033893389  0.63246605860586
 6  13.20692873187319 -1.89404172627263 -0.08206175117512
 6 -13.48560785378538  1.16153481458146  1.09750100110011
 6  10.87941726872687 -0.35153278027803  0.01954866186619
 6 -11.22005836983698 -0.18779978687869 -0.12559023502350
 6  13.16212670367037 -0.72105059015902 -0.99879263326333
 6 -12.73857629562956  1.84866787388739  0.02586323332333
 6  11.79525539453945 -0.04064368146815 -0.92227487048705
 6 -11.45761635663566  1.06760338943894 -0.45564756075608
 6  10.69907094809481 -0.96108154915492  2.48531191519152
 6  10.47423804380438 -2.66514428242824  0.85789917991799
 6 -11.81666347234723 -1.52519221112111  2.00332646364636
 6 -12.64100059505951 -2.35387660956096 -0.23402214021402
 6  9.60432567356736  0.40874982798280  0.06640060006001
 6 -10.05793136513651 -0.85895863776378 -0.57328861386139
 6  11.55526140614061  1.13697887178718 -1.97920991099110
 6 -10.46940522852285  1.86924640174017 -1.32020891089109
 6  9.37684158915892  1.71033727672767  0.04501114111411
 6 -8.79551094809481 -0.45403735263526 -0.36475157715772
 6  8.12432153715372  2.32756873987399  0.08611938693869
 6 -7.62476051005101 -1.24012234013401 -0.64863103210321
 6  7.99294107810781  3.76494534953495  0.53945812981298
 6 -7.70267856485649 -2.62153173007301 -1.22226091109111
 6  6.94272424342434  1.62317125812581 -0.12059454445445
 6 -6.35890858785879 -0.72259052095210 -0.34189311431143
 6  5.62673338733873  2.04239847784778  0.15715268426843
 6 -5.05678422442244 -1.17182425532553 -0.56031290929093
 6  4.47481626762676  1.42798899289929 -0.20507259225923
 6 -3.88943024002400 -0.48497072107211 -0.39589240424042
 6  3.08989648064806  1.76679107010701 -0.00058594259426
 6 -2.53131858785879 -0.78413849284928 -0.66843519851985
 6  2.83523509050905  3.09552724472447  0.61484914291429
 6 -2.22866163416342 -2.16605009700970 -1.03941516751675
 6  2.04546363536354  0.86374843884388 -0.33711439143914
 6 -1.60189214921492  0.14184207320732 -0.54389834083408
 6  0.70574740374037  1.07670048404840 -0.05457412941294
 6 -0.15669553955396  0.05767816781678 -0.52709367936794
 1  13.40211879187919 -0.74673808390839  1.74480016901690
 1  12.87568106710671 -2.47590080418042  1.91122880688069
 1 -14.41479445244525 -0.95566300820082  1.29643056405640
 1 -14.29531302630263 -0.35357322922292 -0.35269712571257
 1  12.77933894089409 -2.87922722982298 -0.76321687968797
 1 -12.80315074707471  1.09227320942094  2.12195992999300
 1  13.92877746474647  0.10914349224923 -0.78555373637364
 1  13.29026458345835 -1.08325368246825 -2.08450118111811
 1 -13.34886009500950  1.98405346544654 -0.78804154715472
 1 -12.34208018101810  2.85245026512651  0.21821285728573
 1  10.99737242624262 -1.65471390039004  3.24672936893689
 1  9.44111243824382 -1.12295209420942  2.54835159015902
 1  10.89807354935493  0.11811294419442  2.55421880788079
 1  10.72730899389939 -3.19687446144614 -0.06322300530053
 1  10.67206620952095 -3.52553119611961  1.59081852185218
 1  9.31220853785379 -2.49441074907491  0.79335605660566
 1 -11.83412509850985 -0.49652214611461  2.81023132013201
 1 -10.68571141014101 -1.73507605150515  1.91024480848085
 1 -12.50792168516852 -2.32737015691569  2.34714529452945
 1 -13.42558300730073 -3.09497819371937  0.26261439243924
 1 -11.77605284028403 -3.03903049194919 -0.19707680968097
 1 -12.82614047304730 -1.98823801570157 -1.22692543454345
 1  8.56975887888789 -0.34416882788279  0.18052517351735
 1 -9.98273303830383 -1.97698476237624 -0.78631243324332
 1  10.55292658465847  1.12783745374537 -2.38755081408141
 1  12.09500532953295  1.96879782268227 -1.55366097409741
 1  12.26144781478148  0.71190204510451 -2.86579926892689
 1 -10.99655405640564  2.54707027112711 -1.88742946394639
 1 -9.88483446144614  1.25924994409441 -2.09989595659566
 1 -9.64654883888389  2.38249090319032 -0.70377353335334
 1  14.52949207720772 -3.11771709880988  0.70149842984298
 1 -15.30867556055605  1.29413671377138  1.68154925092509
 1  10.18721464046405  2.29758666666667 -0.08051122612261
 1 -8.72978771477148  0.46904150525053  0.06747612161216
 1  9.04037172417242  4.24099748174817  0.41903774477448
 1  7.43981036803680  4.51857671867187 -0.07546389238924
 1  7.69488874887489  3.82504357235724  1.66059289728973
 1 -8.14448724272427 -3.31444610251025 -0.52472776177618
 1 -8.44720909190919 -2.58738874177418 -2.00580246924692
 1 -6.52094786678668 -3.15262980288029 -1.67369280328033
 1  7.08227408240824  0.44259747474747 -0.48446632163216
 1 -6.38853582958296  0.30820831593159  0.33704857985799
 1  5.31125883088309  3.03737940994099  0.54425093409341
 1 -5.06362683368337 -2.27492517051705 -0.73595974597460
 1  4.58987218021802  0.24002874887489 -0.60801286928693
 1 -3.91473287728773  0.68614798679868 -0.04854357335734
 1  3.02203783178318  3.07130902090209  1.73840708170817
 1  1.82619088008801  3.39348033003300  0.33530813281328
 1  3.53132851285129  4.06672329732973  0.25061200320032
 1 -2.47278839383938 -2.91481377337734 -0.34992265726573
 1 -2.64897361036104 -2.44654171617162 -2.05857459945995
 1 -1.23429381438144 -2.33028057805780 -1.40915945894589
 1  2.30949231223122 -0.11248452945295 -0.71903811581158
 1 -1.90634525752575  1.11140938493849 -0.15503941094109
 1  0.17731803080308  1.96250167716772  0.38987099709971
 1  0.24029581458146 -0.98911907590759 -0.49985165916592

