%nproc=4
%Mem=2GB
# td=(NStates=1) CAM-B3LYP/6-31G(d,p) 

TD

0 1
 8  14.75990151515152 -2.18352128522852 -0.30462738573857
 8 -14.85111017501750  1.93457876297630  0.86959649064907
 6  11.32245459145915 -1.40768332043204  0.99678583958396
 6 -12.43739890389039 -1.09110072797280  0.45827947194719
 6  12.78821238723872 -1.62800209630963  1.04881977397740
 6 -13.72273899289929 -0.21604962486249  0.45940875287529
 6  13.37162520152015 -1.75836815891589 -0.28061160616062
 6 -13.56338563156316  1.31119978107811  0.80202145314531
 6  10.99226855385539 -0.25581320832083 -0.01350464346435
 6 -11.25362172617262 -0.11687269416942 -0.20654833083308
 6  13.23835432643264 -0.54372285738574 -1.21249400340034
 6 -12.81297373537354  1.83069607670767 -0.32872222522252
 6  11.77384325332533  0.12195257815782 -1.11049369236924
 6 -11.48108870387039  1.09057568666867 -0.61160315631563
 6  10.94885592659266 -1.00336577757776  2.42209559355936
 6  10.63253387338734 -2.68824659265927  0.50357374737474
 6 -12.01368317431743 -1.50266995889589  1.84522065306531
 6 -12.64939143414341 -2.27861908380838 -0.35291402940294
 6  9.61611685268527  0.34869382238224  0.26157011701170
 6 -10.04606017801780 -0.86298904080408 -0.38814009900990
 6  11.38879475947595  1.06059123302330 -2.15779776977698
 6 -10.49707799579958  1.98675815291529 -1.26044293429343
 6  9.33159706470647  1.64597084008401  0.06246288628863
 6 -8.79173057005701 -0.45806775567557 -0.32131723372337
 6  8.07200630563056  2.31403738673867  0.08160893589359
 6 -7.61273930793079 -1.16923525142514 -0.54697086608661
 6  8.04430621462146  3.79276813181318  0.43705788978898
 6 -7.68598689568957 -2.54726430333033 -1.06602528752875
 6  6.85529550055005  1.57156609760976 -0.06081856685669
 6 -6.43923662066207 -0.58960722262226 -0.33672259725973
 6  5.52685339933993  2.10350458845885  0.22398936793679
 6 -5.03863240924092 -1.18242531543154 -0.44846172417242
 6  4.42288107410741  1.29545573957396 -0.05901798679868
 6 -3.89656095309531 -0.45040726472647 -0.24828764376438
 6  3.10577806880688  1.63413780478048  0.15514963096310
 6 -2.56493194919492 -0.85073515251525 -0.32362071707171
 6  2.79803137013701  3.06717440944094  0.64483214121412
 6 -2.37961672967297 -2.29496298829883 -0.69020024602460
 6  2.11681077007701  0.64000606460646  0.05202452245225
 6 -1.45977793779378 -0.09761187218722  0.00359640864086
 6  0.74431126012601  0.78379119311931  0.34838616661666
 6 -0.11603147314731 -0.30602820282028 -0.12361333133313
 1  13.32607118711871 -0.78734214431443  1.56432212121212
 1  13.05217871687169 -2.68128134223422  1.62292997699770
 1 -14.53786675967597 -0.66797423932393  1.25237615861586
 1 -14.05669916491649 -0.18482635453545 -0.44039589558956
 1  12.97130813781378 -2.51717102420242 -0.71290184818482
 1 -13.04810524252425  1.47534151625163  1.85781351535154
 1  13.94913950095009  0.22440501840184 -0.80272545354535
 1  13.42390794779478 -0.68200355745575 -2.33000573157316
 1 -13.52802801180118  1.65033009310931 -1.26376911991199
 1 -12.73122909590959  2.97629264936494  0.02178321432143
 1  11.09355204420442 -1.71992042104210  3.10148484448445
 1  9.76254458145815 -1.00450024902490  2.59513626862686
 1  11.35422916491649 -0.00202907000700  2.79917330333033
 1  11.29145540854086 -3.00404517851785 -0.48607529052905
 1  10.96032503540354 -3.57945658865887  1.18866830683068
 1  9.49349666666667 -2.63387469546955  0.53911063206321
 1 -11.96372805880588 -0.52948544244424  2.52269256625663
 1 -11.08167100610061 -1.91771431533153  1.88194197819782
 1 -12.71161205420542 -2.26858427832783  2.38028860886089
 1 -13.54662511151115 -2.90676937283728 -0.15996786578658
 1 -12.08381361636164 -2.98886547544754 -0.26489359135914
 1 -12.81916977597760 -2.05368456035604 -1.61413415541554
 1  8.89787169016902 -0.14409882088209  0.72856997799780
 1 -10.01891665666567 -1.82518958285829 -0.71605540754075
 1  10.34686597859786  1.23528819881988 -2.09913197219722
 1  12.23748957795780  2.03230417331733 -2.18226383438344
 1  11.56392806280628  0.43494434933493 -3.19168185718572
 1 -10.99213361436144  2.55591115521552 -1.88304902590259
 1 -9.78244422242224  1.38584260336034 -1.72069803680368
 1 -9.88579276327633  2.65172782688269 -0.53928708470847
 1  14.63260238823882 -2.96718204530453  0.42455073507351
 1 -15.21874656765677  1.67937523762376  1.67105820182018
 1  10.11508742774278  2.32584949294929 -0.04463763876388
 1 -8.42863759975998  0.41611621272127  0.12207158115812
 1  8.91125881288129  4.09020240224022  0.18964480548055
 1  7.25493188018802  4.28312317331733 -0.17163350935093
 1  7.50863012301230  4.00340140814081  1.50270710871087
 1 -8.06137893189319 -3.19204386228623 -0.15551084008401
 1 -8.40301467246725 -2.61833183608361 -1.81353324232423
 1 -6.61697746974697 -2.78305284518452 -1.35992142614261
 1  7.01288714371437  0.64237745274527 -0.33961183618362
 1 -6.34794177017702  0.37452494759476  0.06227110211021
 1  5.53967167216722  3.18822449444945  0.52072858185819
 1 -4.98776924792479 -2.19090676867687 -0.65897204720472
 1  4.60533372637264  0.16853159915992 -0.33676574457446
 1 -4.12933433743374  0.50003937593759  0.10310159115912
 1  2.96968259625963  3.04765665566557  1.77313055405541
 1  1.61392965396540  3.21809279127913  0.26527112911291
 1  3.58300368036804  3.91533815881588  0.24557149914991
 1 -2.86836795179518 -2.93832612461246  0.06202853785379
 1 -2.85353406640664 -2.65054211621162 -1.61138988098810
 1 -1.26734711971197 -2.60604815481548 -0.85557410041004
 1  2.42540390339034 -0.21387466846685 -0.11200741274127
 1 -1.93412803580358  0.81145938993899  0.45122121512151
 1  0.61477177617762  1.87451287828783  0.45850786078608
 1  0.20773255825583 -1.40737090109011 -0.38146982098210

