%nproc=4
%Mem=2GB
# td=(NStates=1) CAM-B3LYP/6-31G(d,p) 

TD

0 1
 8  14.78140366536654 -2.29569250235024 -0.20011693469347
 8 -14.89619468346835  1.95193049814982  0.94923445444544
 6  11.23774612061206 -1.39020157225723  0.90245640664066
 6 -12.32262742674267 -0.91792341024102  0.56407005100510
 6  12.70905447144714 -1.82486178227823  1.02085697769777
 6 -13.65749246824682 -0.13281130103010  0.61357416941694
 6  13.36041408040804 -1.77647997009701 -0.30201374637464
 6 -13.56859615261526  1.22171083218322  0.82622387338734
 6  11.02466179317932 -0.17699532653265 -0.02668596159616
 6 -11.30803716771677 -0.14517552445245 -0.17106478247825
 6  13.37108759975997 -0.36544502960296 -0.82724547854785
 6 -12.67160959895990  1.86445945304530 -0.30903025602560
 6  11.97298316731673  0.27799818271827 -0.95718836183618
 6 -11.53136373137314  1.07347397649765 -0.71137313331333
 6  10.69053009400940 -1.13563900490049  2.27681106510651
 6  10.39029964996500 -2.60886865486549  0.44066745674567
 6 -11.80498230423042 -1.36696638853885  2.04320045104510
 6 -12.53067956295630 -2.34332555445545 -0.07934667266727
 6  9.63812905390539  0.32541149414941  0.07478143814381
 6 -10.09429500150015 -0.90474321622162 -0.42588387338734
 6  11.78832471247125  1.32305747964796 -1.91487347734773
 6 -10.54604289228923  1.98601807890789 -1.49608649864986
 6  9.29925383038304  1.62705894889489  0.06083272327233
 6 -8.77332872987299 -0.53654560346035 -0.39281438343834
 6  8.02175128012801  2.19337532053205  0.22599337433743
 6 -7.61068910291029 -1.30263859175918 -0.53028919791979
 6  7.96511829582958  3.62551140614061  0.76275045904590
 6 -7.70014831183118 -2.64288386528653 -0.95534421942194
 6  6.81892186318632  1.49207814881488 -0.00522300730073
 6 -6.40511320832083 -0.61280954285429 -0.36385531053105
 6  5.54230494449445  2.03168740674067  0.12638960796080
 6 -5.07739628562856 -1.19212628552855 -0.46208308630863
 6  4.44769355535554  1.21325751975198 -0.16535862086209
 6 -3.94961625862586 -0.46547877187719 -0.11379419441944
 6  3.11777926892689  1.72178656965697 -0.08409429342934
 6 -2.57792324832483 -0.89830990999100 -0.29844819981998
 6  2.79866143314331  3.11695938793879  0.38371602960296
 6 -2.36215498349835 -2.27779127112711 -0.75281650765077
 6  2.04314340334033  0.69957202120212 -0.17909858985899
 6 -1.58483044304430  0.04550243924392 -0.08048199919992
 6  0.76528335733573  0.77994080808081 -0.00827949995000
 6 -0.16818668866887 -0.09878747874788 -0.25734670467047
 1  13.18305688568857 -1.29547295739574  1.66121181018102
 1  12.77631113011301 -2.80101331543154  1.48702638663866
 1 -14.44850782378238 -0.70776821872187  1.36259718071807
 1 -13.99415291029103 -0.32503037493749 -0.37562941894189
 1  12.83574458145815 -2.32041134823482 -1.14158471647165
 1 -13.04626505850585  1.26329031113111  1.86723445744574
 1  13.85956054305431  0.34780735863586 -0.13076825782578
 1  13.86313187018702 -0.25563092019202 -1.80665339633963
 1 -13.70377558655866  1.98236329642964 -1.08510125312531
 1 -12.33021899489949  2.75253027312731  0.13515455145515
 1  11.13436612561256 -1.91499992899290  2.91153584958496
 1  9.61022934993499 -1.19288908790879  2.26370312531253
 1  11.04592833483348 -0.24716358345835  2.81209459545955
 1  10.33495975897590 -3.03500827482748 -0.63713039603960
 1  10.44092309520952 -3.49069771277128  0.99552899289929
 1  9.23363068006801 -2.42154346234623  0.45236195719572
 1 -11.73460514651465 -0.43623611751175  2.61527182418242
 1 -10.71235407440744 -1.80315285918592  1.90672445644564
 1 -12.56916780978098 -2.03793121302130  2.58578915891589
 1 -13.42107255625563 -2.81750044594459  0.33531166216622
 1 -11.73593882888289 -3.07991458035804  0.04647754575458
 1 -12.92543040204020 -2.09266845874587 -1.05309805180518
 1  8.65027693069307 -0.40562497349735  0.16071319231923
 1 -10.19243400840084 -1.95465252915292 -0.71488529052905
 1  10.72890418241824  1.74688935893589 -2.03246530553055
 1  12.57566339533953  2.36506744964496 -1.71680728872887
 1  11.97012868286829  0.89833068796880 -2.94212690169017
 1 -10.87146154715471  2.57358292239224 -2.18845956695670
 1 -9.93288926692669  1.31708572767277 -1.99642560956096
 1 -10.12721690569057  2.57824047814781 -0.61659481548155
 1  14.69683881188119 -3.32839816691669  0.06525480548055
 1 -15.40095478847885  1.38977627772777  1.58967006300630
 1  10.25298121712171  2.20476738473847  0.10235706070607
 1 -8.65564030003000  0.53799840094009  0.15382475647565
 1  9.05136282328233  4.03761714371437  1.02942878387839
 1  7.63649003600360  4.32125698669867 -0.09022536853685
 1  7.21250051005100  3.84397546554655  1.56605344334433
 1 -8.28928172217222 -3.24024868276828 -0.26271156015602
 1 -8.19014338533853 -2.70816081898190 -1.92972486148615
 1 -6.65148092009201 -3.18606314621462 -1.28519395339534
 1  6.91137699269927  0.49258247324732 -0.34399227422742
 1 -6.51121809780978  0.32764025912591 -0.02564768976898
 1  5.48038574357436  3.19321499349935  0.30473698269827
 1 -5.02654312531253 -2.22525020302030 -0.84921107110711
 1  4.51623481648165  0.08861360736074 -0.40926299429943
 1 -3.96460786478648  0.57440681268127  0.00189147014702
 1  2.68108373637364  3.08840073007301  1.59957319831983
 1  1.73884214521452  3.57668865086509 -0.04685008300830
 1  3.64361974197420  3.68794541954195  0.08834577657766
 1 -3.15346646164616 -3.00152244424442 -0.28032569756976
 1 -2.39081779477948 -2.07796485848585 -1.90967970997100
 1 -1.36287667266727 -2.66820437043704 -0.38171671467147
 1  2.53237460046005 -0.33493677467747 -0.42681889388939
 1 -1.86315093809381  1.11138938293829  0.32490858385839
 1  0.39888018701870  1.74129955695570  0.32233424342434
 1  0.16851863686369 -1.01251141514151 -0.88836051005100

