%nproc=4
%Mem=2GB
# td=(NStates=1) CAM-B3LYP/6-31G(d,p) 

TD

0 1
 8  14.57850337533753 -2.23010594369437 -0.51207813081308
 8 -14.72113717771777  1.91517682278228  0.93441297229723
 6  11.22422476847685 -1.38485103720372  1.03985014601460
 6 -12.33017818181818 -0.92722434033403  0.63763740774077
 6  12.69460302630263 -1.75848514461446  0.97792268426843
 6 -13.71034775377538 -0.23238125802580  0.80216302830283
 6  13.22620065906591 -1.94498682078208 -0.39858340334033
 6 -13.50163945694569  1.30750941204120  0.87130838183818
 6  11.02705203220322 -0.18091571857186  0.04955166216622
 6 -11.27990435443544 -0.24557556445645 -0.27171484748475
 6  13.22923341434143 -0.61466995209521 -1.17239999399940
 6 -12.64235667366737  1.84036704380438 -0.28390774377438
 6  11.85160102910291  0.03786416931693 -0.97874051705171
 6 -11.56478707370737  0.98235486458646 -0.77124912091209
 6  10.80468150915092 -0.90268570957096  2.52911629562956
 6  10.32751337133713 -2.54975274327433  0.57916130613061
 6 -11.74988679467947 -1.08489818171817  2.06548267926793
 6 -12.62208870387039 -2.28769999189919  0.02277353935394
 6  9.65629087008701  0.40542949594959  0.17644160416042
 6 -10.01469704170417 -1.09142188408841 -0.63887517251725
 6  11.70297617761776  1.31003617751775 -1.86395838583858
 6 -10.66853514151415  1.70636011311131 -1.62781967196720
 6  9.36851075607561  1.68042428542854  0.03374001400140
 6 -8.88047944494449 -0.48722067096710 -0.27848295029503
 6  8.03264236923692  2.26422240524052  0.21678245324532
 6 -7.55123315731573 -1.29094742264226 -0.45517168616862
 6  8.02661444544455  3.74587344234423  0.54154833883388
 6 -7.53533183018302 -2.69019859675968 -1.11277996299630
 6  6.95939591059106  1.53004194519452  0.01738925392539
 6 -6.41869456645665 -0.62691095299530 -0.37869679467947
 6  5.61531224522452  1.94183842184218  0.31785875487549
 6 -5.10694924092409 -1.11074814771477 -0.55120199819982
 6  4.46127491349135  1.20729692369237  0.02848076307631
 6 -3.89112040904090 -0.37103932793279 -0.33648646364636
 6  3.11100859185919  1.49529392039204  0.28699281528153
 6 -2.62110756675668 -0.81296137513751 -0.49304765976598
 6  2.80399196619662  2.86732442444244  0.84117177517752
 6 -2.30759952795280 -2.20680417241724 -0.85039626562656
 6  2.02743183218322  0.68040010401040 -0.10985166516652
 6 -1.60385234523452  0.17702559155916 -0.32957690869087
 6  0.73129995899590  0.91516433043304  0.06490781878188
 6 -0.26095596559656 -0.00452805280528 -0.31555252525253
 1  13.36208478847885 -1.11303471357136  1.65136082508251
 1  12.92914641364136 -2.75502871697170  1.49026671067107
 1 -14.08460143314331 -0.60089753165316  1.63406432743274
 1 -14.37338083308331 -0.54626249814981 -0.02453430943094
 1  12.71551255825583 -2.62188149524953 -1.02743330133013
 1 -12.92831326332633  1.38803278537854  1.88184591859186
 1  13.96071065806581  0.03931650955096 -0.66681186218622
 1  13.46992254925493 -0.71140649774977 -2.15458818981898
 1 -13.53823903290329  2.00055511561156 -1.10211295429543
 1 -12.21202717571757  2.82504752485249  0.12035307130713
 1  11.21427411641164 -1.80361879087909  3.28200289628963
 1  9.96697502450245 -0.33503330233023  2.76482323732373
 1  11.53710745274527 -0.12784165126513  2.89327271327133
 1  10.52741900490049 -2.85093986798680 -0.59501618461846
 1  10.69509851275127 -3.31435007800780  1.32950239023902
 1  9.31632894989499 -2.42564387238724  0.91207792879288
 1 -11.43896558255826 -0.09340183408341  2.50864116111611
 1 -10.95296813581358 -1.74873741764176  1.86673045704570
 1 -12.52131302430243 -1.72927034693469  2.52145272527253
 1 -13.35744619361936 -2.80117881378138  0.80240837183718
 1 -11.75617085208521 -2.93281987088709 -0.07448455045505
 1 -12.92389024802480 -2.21052024392439 -0.98009075107511
 1  8.90766266926693 -0.21051546254625  0.46235335633563
 1 -10.10901566656666 -2.16573363726373 -1.22043584558456
 1  10.65880717271727  1.61405607560756 -2.19562162116212
 1  12.11012684168417  2.04187513041304 -1.21474708270827
 1  12.40224189418942  1.35840669556956 -2.86486917591759
 1 -11.08717311831183  2.11542710681068 -2.75066578757876
 1 -9.79881585958596  0.95242926202620 -2.02697866486649
 1 -10.35060924492449  2.89515216931693 -1.24946810281028
 1  14.66549567756776 -2.95615094219422  0.26946522652265
 1 -15.35045973897390  1.40351765186519  1.48914001000100
 1  10.13913983298330  2.40463737173717 -0.11084425942594
 1 -8.98347308330833  0.55520012111211  0.36986636063606
 1  9.07808549554955  4.12668605060506  0.55660150115012
 1  7.35343173017302  4.46775163616362 -0.04334068006801
 1  7.41984124412441  3.97596866486649  1.45757259525953
 1 -8.29625241924192 -3.49067372527253 -0.57042233123312
 1 -8.05925029602960 -2.74613461636164 -2.15209709870987
 1 -6.62074784678468 -3.10566510641064 -1.05708114211421
 1  7.06466232123212  0.47868108310831 -0.33220109510951
 1 -6.51943891989199  0.47247474257426  0.10385526052605
 1  5.48343604860486  3.01746741874187  0.62502901190119
 1 -4.90155062606261 -2.15821349934994 -0.64653080308031
 1  4.69210240324032  0.44533927992799 -0.65294736273627
 1 -3.97200860486049  0.77782715471547 -0.15813453245325
 1  3.32121774977498  3.07304919491949  1.81660490149015
 1  1.69165742674267  3.02488347034703  1.06369097109711
 1  3.16321170117012  3.74689131413141  0.31318826082608
 1 -2.74026514151415 -2.90177246924692 -0.12920058505851
 1 -2.83983269626963 -2.72204926692669 -1.73820256225623
 1 -1.22952333733373 -2.45859340934093 -1.03744228722872
 1  2.41623298629863 -0.27581086208621 -0.61738795079508
 1 -2.05649027202720  1.12760100410041  0.12692878587859
 1  0.65455575457546  2.05760118711871  0.51098310831083
 1  0.12766455145515 -1.01598176217622 -0.42491416541654

