%nproc=4
%Mem=2GB
# td=(NStates=1) CAM-B3LYP/6-31G(d,p) 

TD

0 1
 8  14.69292481748175 -2.18133106620662 -0.56259318231823
 8 -14.82265732973297  2.05191049614962  0.62493202420242
 6  11.29544189018902 -1.47935048714871  0.90508666966697
 6 -12.44797996199620 -0.83861547944794  0.50304394839484
 6  12.77891145714571 -1.90616991309131  0.93275816781678
 6 -13.78968568756876 -0.07468548844884  0.46243905590559
 6  13.37642568156816 -1.81243356545655 -0.55065861086109
 6 -13.62651194419442  1.35779444054405  0.77833908490849
 6  11.02791211821182 -0.10905853285329  0.04549125612561
 6 -11.29762612661266 -0.21303231013101 -0.24253192919292
 6  13.28127861886188 -0.33773225832583 -1.05595834983498
 6 -12.78386082408241  1.84714772187219 -0.41979133213321
 6  11.96003187218722  0.33975435833583 -0.84331697469747
 6 -11.50125072007201  1.07975460456046 -0.63739573557356
 6  10.85161620262026 -1.26800224122412  2.36341972597260
 6  10.38322894289429 -2.58030579857986  0.32612600260026
 6 -12.04826663266327 -1.21715140704070  1.99556568756876
 6 -12.66432292729273 -2.26390761266127 -0.04378311631163
 6  9.67629287028703  0.39040799379938  0.14264822482248
 6 -10.06383195519552 -1.01402414431443 -0.41863314831483
 6  11.69110499049905  1.50045521942194 -1.74546653665367
 6 -10.43840212821282  1.71750122722272 -1.48807569756976
 6  9.37104100910091  1.74222046504650  0.08557519751975
 6 -8.76947834483448 -0.54058600750075 -0.31512661466147
 6  8.04732383738374  2.21604758775878  0.22134290929093
 6 -7.58208624262426 -1.35529385728573 -0.44405057405741
 6  8.00100188418842  3.71282013701370  0.39393357735774
 6 -7.67413571057106 -2.75434501140114 -0.88099678467847
 6  6.91316128712871  1.58111705270527  0.04422193719372
 6 -6.38099079607961 -0.68653691559156 -0.24549347434743
 6  5.57231794579458  2.03091732973297  0.20251722072207
 6 -5.05350389638964 -1.22297937083708 -0.43225010301030
 6  4.51468025402540  1.20994718871887  0.17486540154015
 6 -3.96793809080908 -0.41435365936594 -0.27200001500150
 6  3.11006849784979  1.53343773477348  0.32611672767277
 6 -2.60788624462446 -0.83942402140214 -0.38578693369337
 6  2.83403497049705  2.94025171717172  0.68434609260926
 6 -2.36279504750475 -2.32301579357936 -0.51417264326433
 6  2.12978206720672  0.52796486048605  0.08685800580058
 6 -1.43603556355636  0.00294818381838 -0.13820777177718
 6  0.73685051405141  0.78343115711571  0.07318864686469
 6 -0.14097396739674 -0.24119171917192 -0.22177314731473
 1  13.34786336633663 -1.05551896199620  1.41827751675167
 1  12.97047054605460 -2.83232644674468  1.43810149414942
 1 -14.53875684868487 -0.53325076697670  1.18614953595360
 1 -14.32424591959196 -0.09721759365937 -0.46890874687469
 1  12.49872087908791 -2.43677298439844 -1.27679823782378
 1 -12.97034746674667  1.71991597369737  1.64708244224422
 1  14.12780736773677  0.16056863476348 -0.48677385838584
 1  13.62708826582658 -0.19088444554455 -2.12942567356736
 1 -13.34467967696770  1.92510757085709 -1.28180092309231
 1 -12.45027100010001  2.93781880198020 -0.25944490849085
 1  11.03022571157116 -2.02606103510351  2.90335503150315
 1  9.73046137313731 -1.07005680468047  2.33821057605761
 1  11.34751849384939 -0.27407627472747  2.83125651165117
 1  10.77569383238324 -2.68740351435144 -0.76682336533653
 1  10.35711471437144 -3.40477912091209  1.06703614361436
 1  9.32311962896290 -2.37223853185319  0.07237395839584
 1 -11.61246293229323 -0.21050354425443  2.58753905090509
 1 -11.22629546854686 -1.99109165306531  1.90558434243424
 1 -12.98139903290329 -1.58505592549255  2.53302388238824
 1 -13.68024847384738 -2.71911060696070  0.29828795979598
 1 -11.92637787278728 -3.07472406130613  0.26864976297630
 1 -12.74637249624962 -2.21379057095710 -1.06598934093409
 1  8.84565646864687 -0.31219563056306  0.37693481448145
 1 -10.47434219921992 -2.01071813571357 -0.67880168216822
 1  10.50886217821782  1.32168683868387 -2.04420647964797
 1  11.84992082108211  2.54210515341534 -1.43416902490249
 1  12.22911458145814  1.35105596049605 -2.82082477147715
 1 -10.98972337333733  2.69976554065406 -2.04839556055606
 1 -10.14667064506451  1.02833685278528 -2.43083905090509
 1 -9.67473165716572  2.22926558065807 -0.84447760376038
 1  14.65082421042104 -2.94610993809381  0.09506778677868
 1 -15.37674236723672  1.88964626472647  1.54009510551055
 1  10.04619053805381  2.62132904090409 -0.05096827182718
 1 -8.57794253025303  0.51113571467147 -0.06716734273427
 1  9.01300898789879  4.24574795679568  0.04208004900490
 1  7.27902428942894  4.12146700770077 -0.46182252825282
 1  7.85075433543354  4.08535960396040  1.48038487648765
 1 -8.62491528552855 -3.30693535143514 -0.25771106010601
 1 -8.03697806880688 -2.80939094199420 -1.94699658865887
 1 -6.80834660666067 -3.28898343824382 -0.73736917091709
 1  7.02294814981498  0.48787200220022 -0.11729960496050
 1 -6.29157613361336  0.27750524562456  0.31486636163616
 1  5.32909061406141  3.13358903090309  0.34242075107511
 1 -4.88875934693469 -2.18032571057106 -0.67296344634463
 1  4.53544673767377  0.06889163516352  0.03382131413141
 1 -3.98754015801580  0.53633300530053  0.14101538253825
 1  3.88551417941794  3.30179206920692  1.38687192819282
 1  1.87468572957296  3.16045702770277  1.46528113011301
 1  2.85101048104810  3.63384000900090 -0.37927098509851
 1 -2.61215233023302 -3.04579687168717  0.31821415641564
 1 -3.02955166816682 -2.61857891989199 -1.34348309030903
 1 -1.33676406140614 -2.54371192119212 -0.87008555155516
 1  2.43698506150615 -0.34273755475548 -0.40758697069707
 1 -1.76505112811281  0.97052529652965 -0.07434134113411
 1  0.29612991199120  1.79194462146215  0.28673068306831
 1  0.43749553455346 -1.20645080908091 -0.51337301130113

