%nproc=4
%Mem=2GB
# td=(NStates=1) CAM-B3LYP/6-31G(d,p) 

TD

0 1
 8  14.67653317831783 -2.40395332843284 -0.31961888488849
 8 -14.69055411941194  1.81740704580458  1.04635416641664
 6  11.22755510151015 -1.41627417951795  0.99322548354835
 6 -12.36035119911991 -1.08958057595760  0.55105874987499
 6  12.67461102710271 -1.82591188728873  1.02739763176318
 6 -13.60560727972797 -0.26235425532553  0.73665647764776
 6  13.29971801080108 -1.95023734583458 -0.33724726972697
 6 -13.48524781778178  1.21584024512451  0.87515876687669
 6  10.91730105710571 -0.30919854685469 -0.01837513051305
 6 -11.21621798579858 -0.28262926982698 -0.23886156215622
 6  13.19702019301930 -0.48547703280328 -0.97374012801280
 6 -12.67720015801580  1.83770677777778 -0.14107346034603
 6  11.91816768576858  0.03411379427943 -0.96452909590959
 6 -11.49834042904290  1.01882851195120 -0.65068706470647
 6  10.79950099109911 -1.00962640364036  2.50007339133913
 6  10.24501512151215 -2.63125089308931  0.67380077007701
 6 -11.79009081508151 -1.40118981088109  1.95623175417542
 6 -12.65527202220222 -2.48315953785379 -0.06171490949095
 6  9.63899914091409  0.30072902590259  0.27254121412141
 6 -10.03850942294229 -0.90533327522752 -0.41315260026003
 6  11.67431331133113  1.25413058695870 -2.02231422142214
 6 -10.56016430443044  1.89718919601960 -1.49042593259326
 6  9.26838074307431  1.63959020202020 -0.00751411141114
 6 -8.81084248124812 -0.48207015591559 -0.31997709970997
 6  7.98820792579258  2.25435141814181  0.19596037103710
 6 -7.58095612961296 -1.27262559045905 -0.63979014801480
 6  7.95686747074708  3.71911076607661  0.48151233523352
 6 -7.65478377537754 -2.65231480838084 -1.05345403040304
 6  6.86583655465547  1.53188212921292  0.01947946294629
 6 -6.38845154215422 -0.58850711261126 -0.51557048204820
 6  5.62078279227923  2.03525776377638  0.14408137713771
 6 -5.03418196419642 -1.02128920182018 -0.69442632063206
 6  4.38878766476648  1.30636683068307  0.03036095109511
 6 -3.92516381338134 -0.27058928292829 -0.46151896689669
 6  3.10596808780878  1.79174356535654  0.15536965296530
 6 -2.54464992099210 -0.78085816481648 -0.50952930793079
 6  2.81468303530353  3.30333802580258  0.58791644964496
 6 -2.20866963496350 -2.12558605060506 -0.87390861686169
 6  2.10055914491449  0.85457752175218 -0.09593027302730
 6 -1.56914887488749  0.18385627462746 -0.16126007700770
 6  0.67632446144614  0.90128294229423  0.02979430743074
 6 -0.18568843884388 -0.08204580458046 -0.09704067406741
 1  13.39320790079008 -1.20252366246625  1.54208989798980
 1  12.79591309030903 -2.82264547864786  1.49102678667867
 1 -14.26703967696770 -0.60015745764577  1.50603152415242
 1 -14.06587008200820 -0.45224309620962 -0.24987684368437
 1  12.76984799179918 -2.66382568966897 -0.99513007100710
 1 -12.97179761176118  1.25244922702270  1.84366210021002
 1  14.05083967096710  0.07622019991999 -0.53829901090109
 1  13.52629818681868 -0.68872422952295 -2.08699143014301
 1 -13.23874908390839  1.70519557965797 -1.16829957295730
 1 -12.53079905290529  2.90002502260226  0.02057309330933
 1  11.11597428642864 -1.74472290129013  3.30661535753575
 1  9.68922724972497 -0.72941274027403  2.61064781978198
 1  11.52307604960496 -0.14616348344835  2.76652003800380
 1  10.33159942294230 -3.14424919891989 -0.41605828882888
 1  10.50749975287529 -3.40975961896190  1.34616405640564
 1  9.26010332733273 -2.22600390839084  0.91389811081108
 1 -11.62515420142014 -0.49994248814881  2.69997029402940
 1 -11.00842368136814 -2.11499404330433  1.99221300530053
 1 -12.64446533953395 -1.95330275017502  2.58162874287429
 1 -13.33637408640864 -3.06983567946795  0.75202333333333
 1 -11.69181441644164 -2.90713730263026 -0.05296239823982
 1 -13.17430528952895 -2.41652084398440 -1.16613935593559
 1  8.79743164616462 -0.41605601660166  0.54615173617362
 1 -10.22548731373137 -1.92124918881888 -0.73082688468847
 1  10.58852014401440  1.45885055505551 -2.19763182218222
 1  12.49868569756976  2.02366330923092 -1.78293390139014
 1  11.99161083108311  0.79709056395639 -3.02376506550655
 1 -11.43185758675867  2.42506807090709 -2.20805152615262
 1 -10.02272825082508  1.52941696079608 -2.20070603760376
 1 -9.96339052305230  2.63226588068807 -1.10555371137114
 1  14.69721884988499 -3.31551687878788 -0.00228194819482
 1 -15.21795648864886  1.71274857495750  1.77639873587359
 1  10.12481840084009  2.38814572257226 -0.22747592259226
 1 -8.51173590959096  0.46066066716672  0.14804417841784
 1  9.04188187518752  4.17077045904590  0.74493033403340
 1  7.31657804480448  4.35879074007401 -0.23714006000600
 1  7.27063632363236  3.97548861686169  1.34163100110011
 1 -8.46009880388039 -3.29965462336234 -0.35362065106511
 1 -8.26372074307431 -2.75453545644564 -1.99735162416242
 1 -6.89625539753975 -3.33850839073907 -0.98096353035303
 1  6.93478933393339  0.38965218021802 -0.08640651565156
 1 -6.41150812681268  0.25826332143214 -0.17570269526953
 1  5.66644434943494  3.19738541054105  0.30964747374737
 1 -4.93109358035804 -1.98259593759376 -0.99860601060106
 1  4.34163735673567  0.26267101310131 -0.10092216021602
 1 -3.99770117411741  0.90708008000800  0.00982226322632
 1  3.10510613861386  3.23356524652465  1.66634987598760
 1  1.86516477747775  3.45479646164616  0.25318992099210
 1  3.44763014301430  3.98739536453645 -0.15869892789279
 1 -2.43959507450745 -2.89176146814681 -0.06692435743574
 1 -2.77365607860786 -2.34007106910691 -1.82253099509951
 1 -1.18630901590159 -2.28022557255726 -1.26108465146515
 1  2.58162952595259 -0.06023930493049 -0.36293250525052
 1 -1.87451207420742  1.18519676367637 -0.08712261926193
 1  0.35124542354235  1.94150957795780  0.38140015001500
 1  0.20049183418342 -1.12455261926193 -0.33423509750975

