%nproc=4
%Mem=2GB
# td=(NStates=1) CAM-B3LYP/6-31G(d,p) 

TD

0 1
 8  14.83146867186719 -2.14707764086409 -0.31281820482048
 8 -14.92123718771877  1.84219952505251  1.07422695369537
 6  11.17877022302230 -1.40505305740574  1.02767892889289
 6 -12.37845300930093 -1.04760637853785  0.46747039103910
 6  12.69076264226423 -1.87007630373037  0.99526441844184
 6 -13.78673539253925 -0.22568058795880  0.55027783978398
 6  13.40835887488749 -1.92940526262626 -0.31076462146215
 6 -13.64683397639764  1.19914857595760  0.94179543054305
 6  10.99838916591659 -0.27044467146715  0.04215092209221
 6 -11.31834819881988 -0.15457646454645 -0.16667434343434
 6  13.18521901290129 -0.52614109920992 -1.04427718171817
 6 -12.75566800480048  1.95688869596960 -0.09297865086509
 6  11.88451432043204  0.14609499239924 -0.93916655965597
 6 -11.52691328632863  1.14442107120712 -0.47224922092209
 6  10.90671171217122 -0.97789323032303  2.49281266526653
 6  10.43411403140314 -2.59239700770077  0.53037642764276
 6 -11.86342814881488 -1.40182987488749  1.91444757575758
 6 -12.55278177317732 -2.34196541844184 -0.23917265526553
 6  9.69288452945294  0.40172912591259  0.23911787178718
 6 -10.08032360436044 -0.95539828172817 -0.59408069306931
 6  11.64195007500750  1.10935610951095 -2.04777676767677
 6 -10.46893518151815  1.87028650575058 -1.28512540254025
 6  9.44423832883288  1.74339058205821 -0.01505486548655
 6 -8.87744914191419 -0.40753270217022 -0.44918002000200
 6  8.03583268826883  2.28854483748375  0.16380715571557
 6 -7.51232926692669 -1.16917524542454 -0.73181935093509
 6  7.91968375237524  3.79378823382338  0.33805798979898
 6 -7.62430072707271 -2.64807438433843 -1.14804348934894
 6  6.89817978897890  1.48993793479348  0.20846836183618
 6 -6.40923362036204 -0.45487374927493 -0.57389631463146
 6  5.61986270027003  2.10020425842584  0.19302627162716
 6 -5.08751729772977 -1.14369144204420 -0.52487936593659
 6  4.46614540054005  1.30605679967997  0.09590750575057
 6 -3.99271056805681 -0.46497872187219 -0.33203601860186
 6  3.16721421242124  1.63831822282228  0.02252636863686
 6 -2.62415787178718 -0.92642272127213 -0.24677303230323
 6  2.87970953795380  3.06145383738374  0.39814747274727
 6 -2.37000576857686 -2.39265275727573 -0.62995422142214
 6  2.08785787478748  0.60639270327033 -0.03276395639564
 6 -1.63122508250825  0.08271616061606 -0.17536148714872
 6  0.74481131013101  0.87872068606861  0.03010433843384
 6 -0.22845271527153 -0.14414201420142 -0.19580055005501
 1  13.36172475247525 -0.89930334043404  1.44646033503350
 1  12.66074957395740 -2.89645285938594  1.43215089908991
 1 -14.46769974297430 -0.74086152805281  1.31353227422742
 1 -14.05470896589659 -0.49312718461846 -0.45163701970197
 1  12.78447945494549 -2.75966527362736 -0.82112267026703
 1 -13.15001543354335  1.28731271337134  1.92250998499850
 1  13.88449303630363  0.03812639053905 -0.45428060906091
 1  13.42066762376238 -0.79178453555356 -2.08364109510951
 1 -13.35497070607061  2.16646170627063 -1.09064180718072
 1 -12.41586755975598  2.96420144024402  0.32545358135814
 1  11.35367805680568 -1.86020444944494  3.22944764076408
 1  9.89685801280128 -0.77719751875187  2.86351310631063
 1  11.64848859085909 -0.23818268536854  2.76718010401040
 1  10.58531479447945 -2.87713248724873 -0.48714539753975
 1  10.67187619051905 -3.33454209720972  1.10083952395239
 1  9.34540185718572 -2.39800110811081  0.59163588458846
 1 -11.76564825082508 -0.51988448234824  2.68943924092409
 1 -10.99932277127713 -1.95210775467547  1.78368215221522
 1 -12.55554644764476 -1.91790921082108  2.47718829882988
 1 -13.49443989298930 -2.93905260116012  0.07647577857786
 1 -11.83071830683068 -3.08697528642864  0.00507340534053
 1 -12.50892875187519 -2.24957414931493 -1.41807454945495
 1  8.90346224922492 -0.28626303730373  0.63983110411041
 1 -10.37971273627363 -1.92544960886089 -0.93790759275928
 1  10.52709400140014  1.23717838783878 -2.20336239523952
 1  12.43179900890089  2.04888583148315 -1.83191879987999
 1  12.19937160716072  0.83434428932893 -3.01313400240024
 1 -10.97192159315932  2.44850041414141 -2.06549727072707
 1 -9.76477245524552  1.37650166926693 -1.97028299529953
 1 -9.95247943194319  2.72647530163016 -0.58940209620962
 1  14.92592172017202 -3.08750407750775  0.27566584658466
 1 -15.45662035503550  1.32752005210521  1.77101819781978
 1  10.27407332633263  2.49186609460946 -0.04291746674667
 1 -8.64457919391939  0.64449905100510 -0.02287291329133
 1  8.84730241724172  4.37416079807981  0.18645448644864
 1  7.34831121812181  4.25418027902790 -0.40497684368437
 1  7.67225648564856  4.23342441044104  1.26718355635563
 1 -8.38555134913491 -3.20425508340834 -0.37650293929393
 1 -8.26957132813281 -2.66739674257426 -1.99248113711371
 1 -6.70525629762976 -3.23981852175218 -1.42745817981798
 1  7.00027588258826  0.45143835883588 -0.06545442044204
 1 -6.29663663966397  0.56195369046905 -0.22387751275127
 1  5.46270397539754  3.25105077707771  0.49146565556556
 1 -5.08713918491849 -2.22649032703270 -0.65596174617462
 1  4.64322751575158  0.15357010301030 -0.12783485148515
 1 -4.00481188518852  0.74941431343134 -0.33982270127013
 1  3.27285291329133  3.32831472147215  1.46960020102010
 1  1.63543180418042  3.24804578657866  0.14014861686169
 1  3.39594497449745  3.66069269426943 -0.36347940594059
 1 -3.06212732773277 -2.91381367336734 -0.00208787378738
 1 -2.48597731073107 -2.52042910491049 -1.72048079007901
 1 -1.32140252525253 -2.55034258425843 -0.27660620362036
 1  2.49427079007901 -0.39998327932793 -0.20397660966097
 1 -1.98937356035603  1.09039728372837  0.06084217721772
 1  0.36235653465347  1.87373280028003  0.44231624162416
 1  0.24036582158216 -1.32636280028003 -0.18032970697070

