%nproc=4
%Mem=2GB
# td=(NStates=1) CAM-B3LYP/6-31G(d,p) 

TD

0 1
 8  14.56016154115412 -2.36016894999500 -0.28350527352735
 8 -14.51054611861186  2.09682498759876  1.38462799379938
 6  11.13748609460946 -1.45612816491649  1.10760692169217
 6 -12.26437160116012 -1.05992761066107  0.62409605360536
 6  12.63154672067207 -1.79094839093909  1.00109500150015
 6 -13.62053877287729 -0.16100412031203  0.77638045004500
 6  13.22132017101710 -1.87775009710971 -0.35786933193319
 6 -13.37772706570657  1.28079674077408  1.11039229022902
 6  10.97252657965797 -0.32440006700670  0.06144285128513
 6 -11.26822318631863 -0.21825283218322 -0.22466014201420
 6  13.23564405540554 -0.51797028212821 -1.04485723972397
 6 -12.65860829882988  1.77653066016602 -0.15785513851385
 6  11.88648451745175  0.07278766166617 -0.93147579057906
 6 -11.43980457545755  1.00656728582858 -0.64066606260626
 6  10.76364740574057 -0.98625406640664  2.55406879087909
 6  10.40614123412341 -2.73058082608261  0.69480287028703
 6 -11.67360916691669 -1.30882057395740  2.02389852085208
 6 -12.74206070107011 -2.45980720262026 -0.06648538653865
 6  9.57658289928993  0.33023197619762  0.13170713071307
 6 -10.06858243024302 -1.00622336423642 -0.61546283128313
 6  11.59572545254525  1.15183035693569 -1.91788377837784
 6 -10.51167945594559  1.69423890099010 -1.60885777577758
 6  9.37972187718772  1.58998524152415  0.05649228922892
 6 -8.80019141614161 -0.60733268216822 -0.44859996199620
 6  8.06520562556256  2.29298528152815  0.21332210721072
 6 -7.58502653665366 -1.26606493439344 -0.73731990099010
 6  7.93858564256426  3.73547240224022  0.36901108510851
 6 -7.67773607060706 -2.66928650555056 -1.30022870787079
 6  6.85757572857286  1.66456539753975  0.02912042704270
 6 -6.33299599659966 -0.66974523642364 -0.59834875987599
 6  5.51171188518852  2.15926016401640  0.27787475647565
 6 -5.06070461646165 -1.27482455535554 -0.70333721172117
 6  4.36966575257526  1.37659385338534  0.16622453745375
 6 -3.94770606760676 -0.44909713371337 -0.62033484848485
 6  3.01974946594659  1.85388977997800  0.30187430343034
 6 -2.53308876487649 -0.85262534153415 -0.57282563756376
 6  2.69372093909391  3.33513120512051  0.56454411241124
 6 -2.16318508650865 -2.26932042404240 -0.83272449844984
 6  2.08745783478348  0.93750581458146  0.02996231623162
 6 -1.60207216721672  0.10085797479748 -0.38164211521152
 6  0.60572740174017  1.00970378437844  0.02474380238024
 6 -0.17520739073907 -0.04224182418242 -0.24922589258926
 1  13.42382096209621 -1.03132654275428  1.41698738773877
 1  13.13206670567057 -2.70730394449445  1.62960064406441
 1 -14.20086305930593 -0.51447888978898  1.58194911591159
 1 -14.32873636863686 -0.23693156505651 -0.14060591659166
 1  12.76424743174318 -2.77469677677768 -1.02400295829583
 1 -12.73852428442844  1.34826880898090  2.15256299029903
 1  14.19354394139414 -0.13149057115712 -0.62759794079408
 1  13.32467802480248 -0.78161351845185 -2.25932866386639
 1 -13.42250745974597  1.70856591669167 -0.98655139813981
 1 -12.18570454345435  2.81902692279228  0.30001103710371
 1  11.13241593059306 -1.75426385538554  3.42584728072807
 1  9.71654998199820 -1.08576837583758  2.72325908090809
 1  10.93773751575158  0.03152428532853  2.55749913591359
 1  10.71605786878688 -2.72636741074107 -0.21833851685169
 1  10.77821682458246 -3.81745038803880  1.20903034303430
 1  9.13400071707171 -2.73188449644965  0.88991571257126
 1 -11.63901558755876 -0.30102259615962  2.57181747874787
 1 -10.75000783978398 -1.53867641154115  2.07600138413841
 1 -12.20729162216222 -1.96450387028703  2.60792137213721
 1 -13.51640208920892 -2.89028772467247  0.53536166716672
 1 -11.86955219021902 -3.00321691059106 -0.19217631963196
 1 -13.07505536453645 -2.13381257315732 -1.16972971497150
 1  8.85123702670267 -0.50191460246025  0.30431755275528
 1 -10.23139790479048 -2.03418048194819 -1.11502530453045
 1  10.40695198719872  1.32973764376438 -2.14968702770277
 1  11.63509933893389  2.34193513641364 -1.69765537353735
 1  12.24764643464346  1.00307116201620 -2.93402609160916
 1 -11.04057845884588  2.30344590869087 -2.46257697869787
 1 -9.86341231923192  1.07388140724072 -2.24274024102410
 1 -10.03634781878188  2.57684033813381 -1.09447260326033
 1  14.55747487548755 -3.13184851195119  0.54617289728973
 1 -15.11675636863686  1.52035933603360  1.87837893389339
 1  10.10185610461046  2.51363827182718 -0.28218139313931
 1 -8.66481121712171  0.36514111521152 -0.08717934393439
 1  8.94071175817582  4.15152853485348  0.67470331133113
 1  7.60101648864886  4.23327818881888 -0.67426377237724
 1  7.22080134013401  4.00789185718572  1.15253209120912
 1 -8.12141493549355 -3.24688934683468 -0.25077036603660
 1 -8.54467883888389 -2.79465946884688 -2.02181407040704
 1 -6.81091686368637 -3.03111765166517 -1.65176061006101
 1  6.90035589058906  0.48153136813681 -0.32043991899190
 1 -6.34299127512751  0.39778727382738 -0.37293241824182
 1  5.59146685168517  3.27321299329933  0.53919042804280
 1 -4.95636610761076 -2.47566524452445 -0.67711386138614
 1  4.44557775077508  0.13215796179618  0.06043397539754
 1 -4.08309971397140  0.62018139013901 -0.21799051805181
 1  3.64279990799080  3.96488837883788  1.15271851285128
 1  1.76695495649565  3.31160214221422  1.12064666666667
 1  2.56889226922692  3.86141276627663 -0.72179523752375
 1 -2.80764187918792 -2.79940223222322 -0.29851751675168
 1 -2.36815552855286 -2.51619868186819 -1.91180992299230
 1 -0.93842422742274 -2.58727627762776 -0.85642418541854
 1  2.48893025602560 -0.09429271027103 -0.32306851885189
 1 -2.07478210121012  1.14757300130013 -0.19910381738174
 1  0.10183048204820  2.02171759875988  0.59222123212321
 1  0.11078286328633 -1.00945110911091 -0.50950262426243

