%nproc=4
%Mem=2GB
# td=(NStates=1) CAM-B3LYP/6-31G(d,p) 

TD

0 1
 8  14.58208373337334 -2.30774370747075 -0.33634055705571
 8 -14.55670073407341  1.92077738283828  1.11386091709171
 6  11.10569291529153 -1.46183873597360  1.05313147414741
 6 -12.28773393739374 -1.07488910681068  0.61175481948195
 6  12.57407097309731 -1.73239253535354  1.08362325432543
 6 -13.55107182618262 -0.27747576747675  0.84491730373037
 6  13.19839787878788 -1.90018234033403 -0.30801434643464
 6 -13.33164245724572  1.22691135223522  1.02546379737974
 6  10.87583691069107 -0.24833246024602  0.13659036603660
 6 -11.25997236123612 -0.21907291419142 -0.17780545654565
 6  13.13484397539754 -0.63403188828883 -1.13440619461946
 6 -12.53577601560156  1.84454746184618 -0.10390974397440
 6  11.76897276627663  0.09745012791279 -0.89406204920492
 6 -11.44292488748875  1.00835746484648 -0.64894689068907
 6  10.73187422842284 -1.08162360336034  2.44240762476248
 6  10.16256687668767 -2.66932470047005  0.63703709370937
 6 -11.68696050205020 -1.34727441934193  2.06927305830583
 6 -12.73226972197220 -2.37066828872887 -0.09570830883088
 6  9.49478471947195  0.36685563856386  0.26108006800680
 6 -9.99992556455646 -0.95760850275028 -0.42243352835284
 6  11.64266014601460  1.15532070597060 -1.85340733073307
 6 -10.59878816681668  1.75687516461646 -1.62495938593859
 6  9.25442934793479  1.67233347634763  0.10413705370537
 6 -8.66538793579358 -0.42579452835284 -0.42414751675168
 6  7.91800090509051  2.39326530953095  0.13248402340234
 6 -7.46236427042704 -1.23403173107311 -0.66874304330433
 6  8.00081186518652  3.83672252725273  0.53547773177318
 6 -7.61733003000300 -2.63749332623262 -1.05684436943694
 6  6.83078304930493  1.68028696969697  0.09641715671567
 6 -6.32424512151215 -0.58398666056606 -0.59229815481548
 6  5.50645135913591  2.16638087608761  0.21109807880788
 6 -4.95614416041604 -1.12651972487249 -0.60416729472947
 6  4.41309009500950  1.34711090509051  0.02746066106611
 6 -3.86320761776178 -0.36484870887089 -0.43083589858986
 6  3.07854534553455  1.70604499549955  0.15114923092309
 6 -2.55977143314331 -0.83165324432443 -0.55444379937994
 6  2.80630219721972  3.06888458045805  0.59789744774477
 6 -2.27513628162816 -2.31306479847985 -0.97064829082908
 6  2.07671676067607  0.75705776977698 -0.15050573057306
 6 -1.52915487548755  0.10107799679968 -0.32999695069507
 6  0.75741257025703  0.93381619561956 -0.11681035303530
 6 -0.13935380538054 -0.10225782578258 -0.36865783578358
 1  13.15439401940194 -0.84998840894089  1.46681237023702
 1  12.92101560056006 -2.66856007010701  1.70334801880188
 1 -13.94531750475048 -0.47089453135313  1.82247316831683
 1 -14.17814130913091 -0.16801467336734  0.04069221322132
 1  12.47700870787079 -2.69395870297030 -0.82652321032103
 1 -12.92034246624663  1.37191117321732  2.00317805180518
 1  13.83921850885089  0.17873045094509 -0.66542172317232
 1  13.26569212621262 -0.89405476257626 -2.14808753975398
 1 -13.29613482248225  1.96621168126813 -0.89259200220022
 1 -11.91791776477648  2.87187220732073  0.22761379737974
 1  10.95057774677468 -1.83983241224122  3.25586028202820
 1  9.68161648864887 -1.02349214821482  2.43968072307231
 1  11.21875561756176  0.03201433433343  2.87907129312931
 1  10.50831709470947 -2.73709848384838 -0.30758744174417
 1  10.19063806670667 -3.53070171317132  1.20134957495750
 1  9.06633395039504 -2.62240354835484  0.61249797079708
 1 -11.24962664866487 -0.38287078097810  2.54005430243024
 1 -10.92424526352635 -2.04273681758176  1.89341312531253
 1 -12.34128502150215 -2.05416283618362  2.58370895089509
 1 -13.59340978997900 -2.79223791969197  0.47005513651365
 1 -11.68454368936894 -2.96618320722072 -0.07069417141714
 1 -12.86951481048105 -2.50087927982798 -1.32223496549655
 1  8.72716461946195 -0.39980439143914  0.43769089008901
 1 -10.20741550655065 -2.11951901580158 -0.20140394239424
 1  10.67117840984098  1.38982365236524 -2.17366942594259
 1  11.98910473947395  2.05949689258926 -1.62902851085108
 1  12.01926359635964  0.60997185208521 -2.92477516651665
 1 -11.22760716171617  2.42100766486649 -2.15724644564456
 1 -10.01361733973397  1.25416943604360 -2.29942590959096
 1 -10.20102428642864  2.65459811391139 -1.29227238323832
 1  14.77061618961896 -3.12184751185119  0.50047832783278
 1 -15.10737543054305  1.78402570267027  1.96900799679968
 1  10.26218213721372  2.19019592759276 -0.18303147814782
 1 -8.61629636563656  0.64690929202920 -0.42534316031603
 1  9.03017070407041  4.28432181418142  0.67667350835084
 1  7.57764415141514  4.63987884888489 -0.17175352135213
 1  7.55208446844684  4.08209927792779  1.49253609160916
 1 -8.29684247824783 -3.38556321422142 -0.45065035403540
 1 -8.14550892189219 -2.54722472537254 -2.04927681668167
 1 -6.67688346034603 -3.41230577047705 -1.32601803580358
 1  6.78971482648265  0.63059627462746 -0.33952182718272
 1 -6.46535351135114  0.27300479557956 -0.19989511451145
 1  5.36397410241024  3.11937760976098  0.48257476647665
 1 -4.89550002100210 -2.21918959695970 -0.81292744274427
 1  4.47892108510851  0.24772951895190 -0.10877294529453
 1 -4.13299470347035  0.80113948594859 -0.63637235623562
 1  3.22143777177718  3.53830572057206  1.44724796579658
 1  1.60958921992199  3.20586156815682  0.77702230423042
 1  3.22332771277128  3.92167879287929 -0.16949000700070
 1 -2.86008712371237 -3.03119541154115 -0.18380604560456
 1 -2.71439015201520 -2.52266932893289 -1.94637337933793
 1 -1.39480986598660 -2.62025957595760 -1.05046358935894
 1  2.55277664066407 -0.30463374437444 -0.03645985798580
 1 -1.92069669266927  1.06189443344334  0.00970706370637
 1  0.31560185918592  1.91113654065407  0.19027103710371
 1  0.16305809080908 -1.05974613861386 -0.66811848584859

