%nproc=4
%Mem=2GB
# td=(NStates=1) CAM-B3LYP/6-31G(d,p) 

TD

0 1
 8  14.73413893889389 -2.19451238433843 -0.11010793379338
 8 -14.59677474147415  1.96286159125913  1.27926745774577
 6  11.20075242124212 -1.37567011911191  1.13531969296930
 6 -12.27602276627663 -1.02426404430443  0.64293793779378
 6  12.66473003900390 -1.65067436353635  1.07461235323532
 6 -13.64078079707971 -0.21602962286229  0.81180399239924
 6  13.30515855485549 -1.90309263136314 -0.28802234723472
 6 -13.35159445244524  1.30086874797480  1.05706695769577
 6  10.86775610261026 -0.29182680968097  0.00648735573557
 6 -11.25284164816482 -0.17909891679168 -0.20790846684668
 6  13.28550904190419 -0.57085557065707 -0.97123987798780
 6 -12.61753419141914  1.99256226332633 -0.01018037103710
 6  11.84806067506751  0.03513389628963 -0.90913355635564
 6 -11.41753234823482  1.18691532063206 -0.44361635763576
 6  10.82252329332933 -0.69424486548655  2.51340472447245
 6  10.35809642964296 -2.58802657065707  0.94143753375338
 6 -11.78126993299330 -1.34123381528153  1.95202133313331
 6 -12.59846634163416 -2.40473169506951 -0.10550928892889
 6  9.58891413241324  0.42072102510251  0.16089004900490
 6 -10.05906147814781 -0.93038578047805 -0.49595088008801
 6  11.51981786178618  1.02517769166917 -2.01353334333433
 6 -10.42053034103410  1.93874335143514 -1.30030692069207
 6  9.34679858485849  1.74911115411541 -0.02979633963396
 6 -8.78517991499150 -0.54857680658066 -0.32444754675468
 6  8.06001510651065  2.31811779477948  0.11011178617862
 6 -7.70914894889489 -1.25729405730573 -0.83119928892889
 6  7.92775455945595  3.84719357435744  0.47705188918892
 6 -7.86767506450645 -2.66905648254825 -1.42355104010401
 6  6.95038500950095  1.55172411341134  0.04290180518052
 6 -6.40035273227323 -0.76671493339334 -0.60525945094509
 6  5.62339305330533  2.05710994899490  0.18553552255226
 6 -5.11639018501850 -1.28740581348135 -0.89668654665467
 6  4.49994878087809  1.21447764176418 -0.03809589458946
 6 -4.02492378937894 -0.58212043604360 -0.52988580358036
 6  3.13473096409641  1.53561795279528  0.07287140314031
 6 -2.71393684968497 -0.89489956895690 -0.56455481048105
 6  2.80866243324332  3.02817050905090  0.65809346734673
 6 -2.33031179917992 -2.24300779277928 -1.06676790279028
 6  2.05304439343934  0.72810487448745 -0.20956163616362
 6 -1.67310927092709  0.02012990199020 -0.16733068406841
 6  0.68145497449745  0.85978879287929 -0.13285195719572
 6 -0.30828069806981 -0.13422102210221 -0.35664663466347
 1  13.21636021602160 -0.94340775087509  1.53380906990699
 1  12.83430692969297 -2.47939115321532  1.77962564656466
 1 -14.19360233323332 -0.82649009090909  1.66486740774077
 1 -14.33060655565557 -0.13788166006601 -0.22394425042504
 1  12.86888789578958 -2.69537884498450 -0.77979853785379
 1 -12.71318175017502  1.50225420752075  1.96245397939794
 1  14.14347893489349  0.05290786868687 -0.47884306530653
 1  13.57139269626963 -0.66379173627363 -2.18346107710771
 1 -13.28808401740174  2.23420848094809 -0.98266100910091
 1 -12.37753372637264  2.88271329142914  0.47160819681968
 1  11.04556724572457 -1.40259868886889  3.27642233823382
 1  9.73521184818482 -0.49182898189819  2.52568932393239
 1  11.28335207720772  0.31776290919092  2.65393877987799
 1  10.57824408740874 -3.05873064706471 -0.05705238823882
 1  10.59645864876487 -3.36450509350935  1.74746418641864
 1  9.28747606460646 -2.29452076007601  0.99243596459646
 1 -11.72957464346435 -0.29788228212821  2.44463476047605
 1 -10.64953779277928 -1.70407295119512  1.78480226422642
 1 -12.25530642364236 -2.12389980988099  2.60039061906191
 1 -13.44944539353935 -2.71152984888489  0.45080321132113
 1 -11.74228946394640 -2.98445503440344 -0.19565666766677
 1 -12.88489634863486 -2.29786897879788 -1.00509325132513
 1  8.80255215821582 -0.12590700170017  0.51029815081508
 1 -10.22503726872687 -2.05429249314931 -1.33189699169917
 1  10.41691298329833  1.18254292429243 -2.13185524452445
 1  12.08185401440144  1.85807675057506 -1.86229183718372
 1  11.89131080108011  0.45094594949495 -2.90518320732073
 1 -10.86666106710671  2.70018558265827 -1.98816953795380
 1 -9.65149112711271  1.44570858995900 -1.89696566356636
 1 -9.75508969296930  2.60939359345935 -0.44249740574057
 1  14.91533066106611 -3.16471179827983  0.01033931393139
 1 -14.94746943994399  1.46772407250725  2.08416951295130
 1  10.14373029202920  2.47550445844585 -0.28431160616062
 1 -8.53575831183118  0.51879648074807  0.15606498049805
 1  8.74957264426443  4.26423980598060  0.15430127112711
 1  7.08180456745675  4.45390025102510 -0.17496384238424
 1  7.70496975697570  3.98083915191519  1.68650548854885
 1 -8.30954374837484 -3.27742240014001 -0.61740702970297
 1 -8.57387175817582 -2.79167917081708 -2.28330021902190
 1 -6.91518729072907 -2.91905644554455 -1.89000443444344
 1  6.87773362836284  0.47912112711271 -0.52619049404940
 1 -6.41603857985799  0.13826132123212  0.12920779577958
 1  5.32864056905691  3.16042171417142  0.64316082508251
 1 -5.12408287928793 -2.22790046804680 -1.48733488348835
 1  4.83207640064006  0.24449919591959 -0.24705677367737
 1 -4.14748615261526  0.53204257625763 -0.12059077807781
 1  3.00548617661766  3.01999388938894  1.78050129112911
 1  1.72627088808881  3.29209019101910  0.38823342534253
 1  3.64715009500950  3.77255388038804  0.22811975397540
 1 -2.45240635563556 -3.04675696769677 -0.24377204220422
 1 -3.01440015301530 -2.46433349534953 -2.01245998799880
 1 -1.26449683468347 -2.31296884688469 -1.24074261726173
 1  2.46752811581158 -0.26951023202320 -0.51108732073207
 1 -1.70996561956196  1.21699994399440  0.43689978297830
 1  0.28173847284729  1.69561498849885  0.04459646964696
 1  0.06726851185118 -1.04903506750675 -0.91096277027703

