%nproc=4
%Mem=2GB
# td=(NStates=1) CAM-B3LYP/6-31G(d,p) 

TD

0 1
 8  14.81418694369437 -2.03457639073907 -0.29627655065507
 8 -14.71561662566257  2.08855416051605  1.00499003000300
 6  11.32121446744674 -1.38901145324532  0.96123228422842
 6 -12.40262542654265 -0.99073069096910  0.38933257725773
 6  12.80514408040804 -1.63194249034903  0.95211010301030
 6 -13.68611533053305 -0.17713573347335  0.52446525852585
 6  13.35815385438544 -1.76514883698370 -0.44291783678368
 6 -13.56092538553855  1.34346300740074  0.82191344234423
 6  11.03586291329133 -0.16831445844584  0.08197490449045
 6 -11.24836120012001 -0.19509051595160 -0.35156283228323
 6  13.21954244524452 -0.45089357445745 -1.19071182518252
 6 -12.66974941294129  1.92642564966497 -0.21467082008201
 6  11.83621949094910  0.17939832273227 -0.98253089608961
 6 -11.44282487748775  1.10615724482448 -0.67426942294229
 6  10.78620966196620 -1.13701914291429  2.37408079207921
 6  10.49295991599160 -2.59957772577258  0.34800819081908
 6 -11.98160996699670 -1.32934262616262  1.89790592159216
 6 -12.74659115411541 -2.32910413231323 -0.25842458045805
 6  9.65471071207121  0.44105305830583  0.24083804380438
 6 -10.09169474147415 -1.01433417531753 -0.54826611161116
 6  11.62661854185419  1.31156633053305 -1.89248123812381
 6 -10.48267655565557  1.89428890599060 -1.53697058705871
 6  9.41076498149815  1.68763500650065 -0.04754811481148
 6 -8.85662705970597 -0.47137908680868 -0.41807690969097
 6  8.07508661366137  2.25532151515152  0.01678245324532
 6 -7.65595362936294 -1.16564489238924 -0.49782595159516
 6  7.89385116911691  3.72775163016302  0.32474665866587
 6 -7.70659895689569 -2.61159073597360 -1.10540922592259
 6  6.92877284828483  1.48012695369537  0.07603511851185
 6 -6.35043774077408 -0.65779404130413 -0.33298222322232
 6  5.60480119411941  1.95577981598160  0.19257622662266
 6 -5.07966651265127 -1.23851092399240 -0.41898877687769
 6  4.43827261326133  1.08404459845985  0.11362927792779
 6 -4.02962425942594 -0.45468769276928 -0.21149396439644
 6  3.16096358735874  1.45617000800080  0.30408452445245
 6 -2.69814527052705 -0.91755183418342 -0.23332168716872
 6  2.91513308030803  2.93545123712371  0.55386304430443
 6 -2.43540230823082 -2.33561705370537 -0.49061028702870
 6  2.06529561856186  0.51553361736174  0.11848116811681
 6 -1.66031799179918 -0.00250236123612 -0.07122107310731
 6  0.72671950095009  0.80262307630763  0.24558588658866
 6 -0.25685555555556 -0.18113571357136 -0.14641561156116
 1  13.44031261126113 -0.81002441254125  1.43674936393639
 1  13.15678917791779 -2.64418763286329  1.63842152615262
 1 -14.32372534553455 -0.58790623252325  1.29759068006801
 1 -14.22510600560056 -0.28048592049205 -0.43957581358136
 1  12.83946495349535 -2.44886419351935 -1.01471202920292
 1 -12.85126555855586  1.18255223732373  1.82882061606161
 1  14.06393098009801  0.24447702560256 -0.72517769876988
 1  13.52850840784078 -0.49938529562956 -2.31116384738474
 1 -13.37014222322232  2.11532659275928 -0.98753149614961
 1 -12.38761473447345  2.93242826292629  0.03566460246025
 1  11.37237992699270 -1.82784121312131  3.03186788278828
 1  9.68273660066007 -1.37603740274027  2.34510126512651
 1  11.04411815381538  0.07825895879588  2.64839822582258
 1  10.83705996899690 -2.89475424942494 -0.68311499449945
 1  10.62077108000800 -3.55749439243924  0.91001044104410
 1  9.50194751175118 -2.25673698169817  0.41298801980198
 1 -12.01863354935494 -0.29335182908291  2.45195549254925
 1 -11.09313215221522 -2.09648219211921  2.01713549754976
 1 -13.03850474347435 -1.85037245714571  2.37551813181318
 1 -13.58874932393239 -2.80472916881688  0.30260839183918
 1 -12.00905614061406 -2.91454804370437 -0.39918702070207
 1 -12.89919777877788 -1.92949214111411 -1.33695643764376
 1  9.05123702670267 -0.33989840084008  0.77365448644864
 1 -10.31935670067007 -2.13229029292929 -0.64390819281928
 1  10.47990928292829  1.30635530553055 -2.20078213721372
 1  11.84180000900090  2.42691363426343 -1.32480808880888
 1  12.33803547354735  1.02856371127113 -2.70442313131313
 1 -11.04489889088909  2.70833639773977 -2.09330005100510
 1 -9.70749672767277  1.39166318541854 -2.10777674467447
 1 -9.71109529352935  2.37604025812581 -0.81145430143014
 1  14.90143927192719 -2.65637096419642  0.72499077907791
 1 -15.12665735873587  1.72256955705571  1.71974307030703
 1  10.25741166016602  2.38529543754375 -0.41342451745174
 1 -8.52827756375638  0.56197079817982 -0.09102972897290
 1  8.83230091709171  4.35561894389439  0.23496933793379
 1  7.22152853985398  4.04589945094509 -0.41136748274827
 1  7.33317257725773  3.68665973397340  1.27592443044304
 1 -7.98603139713971 -3.32891754965497 -0.42410769976998
 1 -8.31395576657666 -2.82673267616762 -1.99848173717372
 1 -6.79762553455346 -3.06252079197920 -1.28995442944294
 1  6.93771962696270  0.43654686968697 -0.26112398739874
 1 -6.29494647064706  0.68660615571557 -0.28260338533853
 1  5.56412411741174  3.11227689968997  0.44412092109211
 1 -4.96556702770277 -2.24871254925493 -0.34511066106611
 1  4.67946113911391 -0.03350860486049  0.04396232823282
 1 -4.16253765776578  0.65338471047105 -0.04181290029003
 1  4.02746837483748  3.28370026002600  1.18606184718472
 1  1.76010427142714  3.21483246524652  1.07745234723472
 1  3.15737111711171  3.68983560856086 -0.42081513951395
 1 -3.13572468746875 -2.91802409440944  0.20744307930793
 1 -2.65600431343134 -2.69874693669367 -1.65165390739074
 1 -1.32158254325433 -2.69471702170217 -0.13515205820582
 1  2.40486184918492 -0.38949223022302 -0.15786199819982
 1 -1.81953657665767  1.11352959695970  0.27617371037104
 1  0.42205250425043  1.77148257525753  0.75964797479748
 1  0.15509729472947 -1.16286645064506 -0.61883355735574

