%nproc=4
%Mem=2GB
# td=(NStates=1) CAM-B3LYP/6-31G(d,p) 

TD

0 1
 8  14.73395892089209 -2.26624955805581 -0.27547447044704
 8 -14.65381044504450  2.10777608270827  1.15275480648065
 6  11.26018836483648 -1.35196774887489  1.10722688368837
 6 -12.42388755275528 -1.05082670057006  0.45165880988099
 6  12.78339190519052 -1.62858215431543  1.03256814881488
 6 -13.73819053805381 -0.21689970987099  0.55472828482848
 6  13.31296933593359 -1.99615193729373 -0.32933647864786
 6 -13.53497279027903  1.23574223532353  0.92822407340734
 6  11.05082440944094 -0.21205883288329  0.01493820082008
 6 -11.26309267326733 -0.20265127202720 -0.19696737273727
 6  13.22274276527653 -0.70524901000100 -1.15289804380438
 6 -12.67714015201520  1.97345035213521  0.05078572557256
 6  11.85009087808781  0.10757114001400 -1.04558720172017
 6 -11.50706130113011  1.18561519061906 -0.45976797279728
 6  10.83518455945594 -0.68405384638464  2.46631001500150
 6  10.44692531253125 -2.48870663866387  0.95764915491549
 6 -11.90562236823682 -1.54313400530053  1.83287941894189
 6 -12.77736423142314 -2.26517773967397 -0.48544728272827
 6  9.78329357035703  0.56525547854785  0.15477943794379
 6 -10.06789236123612 -0.90216295819582 -0.52780406540654
 6  11.59107498749875  1.06757193109311 -2.09366135613561
 6 -10.53619190719072  1.97074655175518 -1.31517840784078
 6  9.38397230223022  1.88689493249325 -0.14343770377038
 6 -8.76969836683668 -0.47823977287729 -0.29637473947395
 6  8.04516362136214  2.39551553455346  0.12815359035904
 6 -7.65504353835384 -1.23103143104310 -0.64818098709871
 6  7.91521330533053  3.87573642864286  0.31701588558856
 6 -7.84548284528453 -2.58063764066407 -1.14918360336034
 6  6.87800777177718  1.56161510251025  0.08943645864586
 6 -6.36229892689269 -0.64539280118012 -0.30586951195120
 6  5.54701541554155  2.00225446344634  0.29898686768677
 6 -5.05594414041404 -1.28684575747575 -0.39658653665367
 6  4.47188597459746  1.10315650965096  0.00896881188119
 6 -3.93130442744274 -0.45931815581558 -0.38547136213621
 6  3.09300679167917  1.44976936793679  0.21941605760576
 6 -2.54725018101810 -0.97917799679968 -0.47851620662066
 6  2.81605317231723  2.83512120412041  0.81494915291529
 6 -2.28118688668867 -2.38006149814982 -0.84788601460146
 6  2.11645073407341  0.59940200420042 -0.03397407740774
 6 -1.57955991599160 -0.01661377237724 -0.29931388238824
 6  0.71720854985499  0.79536235023502 -0.10326899889989
 6 -0.23364323432343 -0.15574317431743 -0.39590056005601
 1  13.26870545054505 -0.79641305140514  1.65736142514251
 1  12.85025852485249 -2.57668088218822  1.67488517251725
 1 -14.56362933593359 -0.91113855575558  1.08333925492549
 1 -14.15059855485549 -0.20262813471347 -0.56049790579058
 1  12.94811581858186 -2.77976728382838 -0.90657121512151
 1 -13.10617104910491  0.99594357645765  2.05107284128413
 1  13.88862344934493  0.18899147704771 -0.74719990099010
 1  13.57814337133713 -0.80246560366037 -2.28407113811381
 1 -13.45917112611261  2.13829888998900 -0.72052479547955
 1 -12.34485045804580  2.89582460256026  0.45097613361336
 1  11.20961365036504 -1.35069349834984  3.30005470147015
 1  9.76823515051505 -0.54181398039804  2.59666642164216
 1  11.33128687068707  0.29249038193819  2.70106349234923
 1  10.66526278927893 -2.89017379137914  0.01751506850685
 1  10.97572657555756 -3.42542118511851  1.66940638063806
 1  9.17673499049905 -2.17013832183218  1.34225094609461
 1 -11.72923460946095 -0.65550804470447  2.38745904290429
 1 -10.93938677767777 -2.01120366426643  1.75642942694269
 1 -12.62737363036304 -2.00906832673267  2.27274785478548
 1 -13.54199464846485 -2.86813550945095 -0.27182905190519
 1 -12.08429366436644 -3.13047963686369 -0.39542664466447
 1 -12.83290114911491 -2.10339953185319 -1.58507124912491
 1  9.03453535653565 -0.10382479347935  0.72244936593659
 1 -10.10429519451945 -2.03339040294029 -1.13742754475447
 1  10.53947523952395  1.23706837683768 -2.57677973697370
 1  12.09744557355735  2.19173011591159 -1.81296690469047
 1  12.20876254625462  0.86738759365937 -2.86214890389039
 1 -11.04535893689369  2.67028259235924 -1.99673039403940
 1 -9.82003798179818  1.44860887998800 -1.90346631363136
 1 -10.13912809680968  2.69849250335034 -0.58297145314532
 1  14.91659078707871 -3.03659898699870  0.19825810581058
 1 -15.29286397939794  1.60104740484048  1.75585668166817
 1  10.23407932693269  2.58338524652465 -0.30069324432443
 1 -8.71826656265627  0.55408000910091  0.01570094409441
 1  8.93705139213921  4.35416879887989  0.43815965696570
 1  7.58278466546655  4.45047990899090 -0.48310465646565
 1  7.46681594159416  4.18571963996400  1.18841567956796
 1 -8.49529232323232 -3.11598625652565 -0.40727601660166
 1 -8.41412578357836 -2.54596459935994 -2.05772766176618
 1 -6.74626039803980 -3.14711925182518 -1.17147258125813
 1  7.17075293029303  0.49560277527753 -0.29502737773777
 1 -6.39922689868987  0.54393188828883 -0.21379650465046
 1  5.45429313431343  2.87689336133613  0.66951346034603
 1 -4.96530700170017 -2.49206688468847 -0.73405955595560
 1  4.83998719171917  0.11214596059606 -0.70262233023302
 1 -4.22397380138014  0.72099147114711 -0.18584730373037
 1  3.87953358135813  2.95542743274327  1.53429667066707
 1  1.72958121912191  2.78950993299330  1.57725232723272
 1  2.78760414041404  3.63961058605861 -0.09423248124812
 1 -2.96834794979498 -3.06817910991099 -0.16432409740974
 1 -2.45490420342034 -2.68394545654565 -1.91111985398540
 1 -1.24343472847285 -2.63632118211821 -0.91880042304230
 1  2.36212757575758 -0.42909619061906 -0.46179239123912
 1 -1.94457908090809  0.94191243524352 -0.00886479347935
 1  0.32394269326933  1.72296772377238  0.33908591859186
 1  0.26858864386439 -1.17142730673067 -0.62463413741374

