%nproc=4
%Mem=2GB
# td=(NStates=1) CAM-B3LYP/6-31G(d,p) 

TD

0 1
 8  14.49927545254526 -2.52683561666167 -0.28479540254025
 8 -14.74703976797680  1.79951525662566  1.08131766276628
 6  11.03283562956296 -1.51719427152715  0.96177233823382
 6 -12.34401956595659 -1.13528514641464  0.60936458045805
 6  12.61890545654565 -2.07970726682668  1.03112800480048
 6 -13.70638735773577 -0.40283830373037  0.65445825782578
 6  13.25220325932593 -2.12106442854285 -0.34620816581658
 6 -13.51609090209021  1.14178283938394  0.92512376337634
 6  10.87150647764777 -0.33002062906291  0.01661836883688
 6 -11.34760112411241 -0.31810281718172 -0.16203387938794
 6  13.13386387738774 -0.71535002010201 -0.96323907790779
 6 -12.67079951795179  1.76381938903890 -0.21531088408841
 6  11.81867773677368 -0.01561117821782 -0.83987663066307
 6 -11.51607220222022  0.86255288438844 -0.57836983298330
 6  10.68452949394939 -1.31168660966097  2.44560794479448
 6  10.08839945994599 -2.71186895489549  0.53855724572457
 6 -11.87615942194219 -1.63789348124812  2.05658178917892
 6 -12.72675917091709 -2.39202042394239 -0.21380011801180
 6  9.52431767276728  0.39884883788379  0.31043500350035
 6 -10.07043261526153 -0.99652239413941 -0.26561784678468
 6  11.75822170217022  1.16906208010801 -1.84295628562856
 6 -10.40565885388539  1.70468994609461 -1.41627851785179
 6  9.39852375737574  1.79292553555356  0.18375501550155
 6 -8.73282467946795 -0.54704665356536 -0.40988609060906
 6  8.13738284328433  2.45881186418642  0.24871564656466
 6 -7.45759379337934 -1.19407773567357 -0.59427559655966
 6  8.15317710171017  3.84371322632263  0.65177936193619
 6 -7.52420071707171 -2.77702727962796 -0.78520720572057
 6  6.92194216521652  1.75051399239924  0.06512402740274
 6 -6.37428012501250 -0.53193145504550 -0.44749367436744
 6  5.64317503150315  2.29058329632963  0.11674864386439
 6 -4.99416796279628 -0.98039511241124 -0.51410828882888
 6  4.52806159215922  1.48349454345435 -0.12706479147915
 6 -3.89222051905191 -0.27154937893789 -0.36176899189919
 6  3.20409790079008  1.90667505850585 -0.04543042704270
 6 -2.53811926792679 -0.64961504050405 -0.51459981498150
 6  2.77528909590959  3.43956164816482  0.25185284328433
 6 -2.19930869886989 -2.06803029502950 -0.78809003500350
 6  2.19077816681668  0.97880994499450 -0.30956163616362
 6 -1.57849980998100  0.36117400640064 -0.34822877387739
 6  0.82335916491649  1.21900471447145 -0.22960163216322
 6 -0.16307617761776  0.18819121912191 -0.45475644564456
 1  13.20217879787979 -1.23130654075408  1.45084077307731
 1  12.64472797179718 -2.91925513961396  1.74090177417742
 1 -14.61396436943694 -0.75518296019602  1.28755967696770
 1 -14.14289778477848 -0.34350222212221 -0.38858071407141
 1  12.77999900690069 -2.83416272337234 -0.86379693769377
 1 -12.91901233323332  1.08173215531553  1.77945567956796
 1  13.81903649064907 -0.02230965306531 -0.47254243524352
 1  13.38192374937494 -0.88189354645465 -1.96310904190419
 1 -13.39745495449545  1.86308136823682 -0.98984172717272
 1 -12.50491646464647  2.91132615271527 -0.01757072107211
 1  10.88484117311731 -2.10351878087809  3.25363005900590
 1  9.59719804680468 -1.05252505150515  2.67302405740574
 1  11.50159390139014 -0.79324819191919  3.05415880188019
 1  10.35189145214522 -3.22191696569657 -0.59354603760376
 1  10.55865486838684 -3.49130777377738  1.33334277427743
 1  8.90374769176918 -2.30563187118712  0.56967368836884
 1 -11.98328001400140 -0.81560405430543  2.85741603860386
 1 -10.77694053305331 -2.00025256915692  1.92626641064106
 1 -12.48077897089709 -2.58011543144314  2.23710429042904
 1 -13.68385883488349 -2.95074377027703  0.34671280228023
 1 -12.13385862086209 -3.22405899479948 -0.32614971697170
 1 -12.97101496049605 -2.18089728162816 -1.23946668866887
 1  8.67474937793780 -0.11006541754175  0.54877199819982
 1 -10.16843160816082 -2.06802386628663 -0.15652945494549
 1  10.83221451345134  1.53389805980598 -2.17699975897590
 1  12.17355318431843  2.05521646454645 -1.55497110511051
 1  12.40764243424342  0.79084993989399 -2.66746943594359
 1 -11.09381378237824  2.44396996109611 -2.00977169816982
 1 -9.87833381138114  0.95218923802380 -2.25561152815282
 1 -9.72655683968397  2.22114476857686 -0.84415757175718
 1  14.70219934793479 -3.54053938103810 -0.19026074607461
 1 -15.39640433343334  1.57349464956496  1.85849694569457
 1  10.27587350635064  2.37696460446045 -0.12224539953995
 1 -8.77724246024602  0.58750335143514 -0.38741936793679
 1  9.16758444544454  4.36913029502950  0.82670851185118
 1  7.70224661166117  4.32251711271127 -0.26045239123912
 1  7.62141140114011  4.19916098409841  1.66849368736874
 1 -7.87738053205321 -3.38594325222522  0.11480619161916
 1 -8.14525889688969 -2.95262526542654 -1.65723761276128
 1 -6.65395116711671 -3.39863440334033 -1.05730116411641
 1  6.81143699869987  0.77181039603960 -0.18640651565157
 1 -6.21109808580858  0.66761425652565 -0.30249537453745
 1  5.37377508250825  3.37665333733373  0.17694420342034
 1 -4.91379185018502 -2.26763444144414 -0.72930908090809
 1  4.82389558255826  0.35667041304130 -0.27212928092809
 1 -4.12694409840984  0.69225859785979 -0.23408212721272
 1  3.40505613361336  3.66483837383738  1.29105234623462
 1  1.72930119111911  3.41214219621962  0.48172277427743
 1  3.19963534353435  4.08208483348335 -0.51707476547655
 1 -2.45617673267327 -2.92163445544554  0.11438377337734
 1 -2.89215792879288 -2.59463652565256 -1.46680542254225
 1 -1.13664404940494 -2.06323387338734 -0.90736927992799
 1  2.56239760276028 -0.14294757575758 -0.66236244824482
 1 -1.97063168616862  1.32763100710071 -0.01423533053305
 1  0.38457875687569  2.14826025302530  0.12031404140414
 1  0.16311809680968 -0.77208737273727 -0.81644331833183

