%nproc=4
%Mem=2GB
# td=(NStates=1) CAM-B3LYP/6-31G(d,p) 

TD

0 1
 8  14.55294081908191 -2.41165409850985 -0.19885680868087
 8 -14.78985404940494  1.79480478557856  1.03592312331233
 6  11.07442978897890 -1.43155570767077  1.04663082408241
 6 -12.29423458745875 -1.00178179607961  0.77488113211321
 6  12.63624719071907 -1.83668296439644  1.11328622062206
 6 -13.67504422342234 -0.37227524742474  0.70030284228423
 6  13.25296333533353 -2.04593691579158 -0.20051359635964
 6 -13.54147344034403  1.14345300640064  0.97605885688569
 6  11.00669999699970 -0.29125675267527  0.08653536053605
 6 -11.22119848384838 -0.25769677657766 -0.11030870687069
 6  13.17832832383238 -0.70591907700770 -1.00656341034103
 6 -12.65555799379938  1.79466247334733 -0.11856120912091
 6  11.84108997799780 -0.02723234033403 -0.94681732473247
 6 -11.41558215321532  1.02390902000200 -0.45392738873887
 6  10.65961700270027 -1.04916035703570  2.39017240124012
 6  10.29287990799080 -2.62665043304330  0.56136952695270
 6 -11.84259606560656 -1.23658335023502  2.14398052905291
 6 -12.56861335633563 -2.44381560346035  0.11934319631963
 6  9.64673991499150  0.44805375837584  0.18845280528053
 6 -9.95010058205821 -1.00817355925593 -0.35005629062906
 6  11.83307918791879  1.14288946284628 -1.90221221122112
 6 -10.59726801480148  1.82151162826283 -1.48456534653465
 6  9.26559046404641  1.73905014801480  0.14416105610561
 6 -8.75703710071007 -0.49782173107311 -0.35972107410741
 6  7.99399850485048  2.31950793379338  0.32456323132313
 6 -7.52501053505351 -1.27696602450245 -0.63177934693469
 6  7.98871065506551  3.80338919391939  0.67503168716872
 6 -7.61863016001600 -2.74030360726073 -1.12021070607061
 6  6.86712668366837  1.61484042504250  0.11199871487149
 6 -6.33000569756976 -0.60870913281328 -0.56410533553355
 6  5.59261997599760  2.15087932593259  0.34070103910391
 6 -4.97819636563656 -1.04663173607361 -0.77224410241024
 6  4.49440822682268  1.40312650665067 -0.06549863486349
 6 -3.95100639763976 -0.35839806380638 -0.49746256125613
 6  3.10908839983998  1.85308969997000 -0.15896178017802
 6 -2.53319877587759 -0.74822490149015 -0.66976533153315
 6  2.83420498749875  3.19308700070007  0.47961561956196
 6 -2.25545431343134 -2.16812030403040 -1.10894212021202
 6  2.08199728872887  0.92360442444244 -0.33272395239524
 6 -1.63191515151515  0.17880576957696 -0.27777172817282
 6  0.71590841984198  1.07869068306831 -0.18970764276428
 6 -0.21856172617262  0.01604400440044 -0.44949591959196
 1  13.08663724372437 -1.00146355645565  1.61392708170817
 1  12.84221772077208 -2.71379459355936  1.69929761376138
 1 -14.33219619261926 -0.92513995589559  1.55077599859986
 1 -14.34791828682868 -0.51951982388239 -0.17701955795580
 1  12.63151415841584 -2.58495780288029 -0.88262882088209
 1 -13.05339577157716  1.20444442654265  1.85465319931993
 1  13.79605419241924 -0.06536395849585 -0.59709489048905
 1  13.56563212021202 -0.96067142424242 -2.03403613461346
 1 -13.17017222622262  1.79991505160516 -1.00061280428043
 1 -12.39343531653165  2.89864488458846  0.18924996099610
 1  10.86844953395340 -1.87733616261626  3.17055175117512
 1  9.69959828682868 -1.08710850985099  2.78415517051705
 1  11.10413415541554 -0.13762262936294  2.82199558555856
 1  10.86008227122712 -3.17344211821182 -0.37069375237524
 1  10.45983498639864 -3.42949159215922  1.21870131013101
 1  9.14902221922192 -2.45539684768477  0.27276399739974
 1 -11.72006369236924 -0.13892638653865  2.47013731073107
 1 -10.97728056705671 -1.80425296919692  2.15976976097610
 1 -12.70846173917392 -1.74499191909191  2.74926550655065
 1 -13.60377082608261 -3.03702239813981  0.41144927592759
 1 -11.63841907690769 -3.15781237013701  0.20119301730173
 1 -12.71004886388639 -2.03531272317232 -0.78156089808981
 1  8.86353825682568 -0.35838024902490  0.46766388738874
 1 -10.10718548354835 -2.09053611751175 -0.45571937393739
 1  10.82244353635364  1.50835550555055 -1.93409546854685
 1  12.50774660366037  2.11822276517652 -1.47982359035904
 1  12.07029869986999  0.86315717061706 -2.92789547854785
 1 -11.34956935793579  2.17356292039204 -2.32027274827483
 1 -9.77094307230723  1.27754177327733 -2.04022998999900
 1 -10.33068725272527  2.88701135523552 -0.93336649264926
 1  14.61284041204120 -3.35909123622362  0.26055433543354
 1 -15.35153984698470  1.20562786288629  1.73684478047805
 1  10.12001792079208  2.29947685568557 -0.26231940694069
 1 -8.69345408140814  0.66796139723972  0.05884525852585
 1  9.03441112811281  4.16648003000300  0.62748858985899
 1  7.38364475147515  4.28416327732773 -0.07572391839184
 1  7.65166442644264  4.03818488648865  1.68229506750675
 1 -8.18043083708371 -3.38628328622862 -0.44939022802280
 1 -8.18728309930993 -2.68630863376338 -1.83509539853985
 1 -6.50822659465947 -2.99935447534753 -1.30285571957196
 1  7.16119197419742  0.50297351235124 -0.20424829982998
 1 -6.26786376237624  0.44935243034303 -0.27214233923392
 1  5.52547025202520  3.10772644464446  0.97819432843284
 1 -5.13232370337034 -2.26248392639264 -1.15701185118512
 1  4.70340353335334  0.37851259725973 -0.49413148114811
 1 -4.05551695569557  0.63131250325033 -0.10484920392039
 1  2.90840646864687  3.16742863286329  1.52921616261626
 1  1.81670993199320  3.42303328532853 -0.10596599459946
 1  3.64581996199620  3.79301592659266  0.13020996299630
 1 -2.71481259625963 -2.61947423942394 -0.27515518051805
 1 -2.88749746274627 -2.31342840484048 -2.04956369836984
 1 -1.06138652365237 -2.37748529852985 -1.01271981498150
 1  2.34215557855786 -0.08659194019402 -0.62964917691769
 1 -1.85200982398240  1.11623986798680  0.12300839383938
 1  0.46070636963696  2.06675210221022  0.35210722072207
 1  0.19002078707871 -0.84429459345935 -1.23225489948995

