%nproc=4
%Mem=2GB
# td=(NStates=1) CAM-B3LYP/6-31G(d,p) 

TD

0 1
 8  14.83577910291029 -2.12203513661366  0.02341541854185
 8 -14.58984404840484  2.04594990009001  1.31301083208321
 6  11.16969931593159 -1.46051860396040  1.01264742574257
 6 -12.26733189718972 -1.01703332123212  0.80803444744474
 6  12.60967453345335 -1.90496979307931  1.13674856685669
 6 -13.64472119111911 -0.31251927182718  1.03513632563256
 6  13.47162520152015 -1.72333465556556 -0.18061160616062
 6 -13.41371066406641  1.26824548564856  1.19191044204420
 6  11.14504383138314 -0.24065169216922  0.12734944194419
 6 -11.34185054905491 -0.17779878677868 -0.15022269826983
 6  13.33927441844184 -0.42396088118812 -0.76855960996100
 6 -12.84519695769577  1.79125213231323 -0.11002035503550
 6  12.07413328232823  0.21387177007701 -0.73283592659266
 6 -11.65551614661466  1.08925555465547 -0.53956595259526
 6  10.61562260326033 -1.19996543754375  2.46604998899890
 6  10.30417103710371 -2.67553532153215  0.42227561756176
 6 -11.59313111911191 -1.34707439933993  2.13878000900090
 6 -12.78161465646565 -2.30869209110911  0.14844610661066
 6  9.77670291129113  0.36583553655366  0.22286624662466
 6 -10.12196776877688 -0.92494523642364 -0.44044532953295
 6  11.73875975597560  1.29016419031903 -1.71846383638364
 6 -10.72209049704970  1.76781625872587 -1.54097098709871
 6  9.25354925992599  1.68763500650065  0.26790343034303
 6 -8.85542693969397 -0.46296824572457 -0.46970207220722
 6  8.00858996399640  2.26106208920892  0.28074884988499
 6 -7.59789782378238 -1.13586191409141 -0.75470163916392
 6  7.88567035103510  3.73922277727773  0.61010519451945
 6 -7.80260855785578 -2.63475305220522 -1.06606529152915
 6  6.93043301430143  1.59818875987599 -0.01303378837884
 6 -6.42233493049305 -0.51398966086609 -0.71105003000300
 6  5.59094980898090  2.00848508650865  0.14058102710271
 6 -5.08161670767077 -1.08000507340734 -0.80293717171717
 6  4.45135392139214  1.25929212321232 -0.22419450445044
 6 -3.91681297829783 -0.36791901590159 -0.62175499049905
 6  3.17725521652165  1.65983037403740 -0.09083496749675
 6 -2.65374083008301 -0.87553763276328 -0.66654500950095
 6  2.82534410141014  3.03645133713371  0.18786644464446
 6 -2.43771253925393 -2.29219271127113 -1.07335856185619
 6  2.14098318731873  0.63882594659466 -0.34842552255226
 6 -1.59654161416142 -0.01970408140814 -0.44745869686969
 6  0.73444027302730  0.77733054705471 -0.30555922792279
 6 -0.23610348034803 -0.17231483148315 -0.66696766676668
 1  13.30429900990099 -1.30447385748575  1.86217190619062
 1  12.73922742174218 -3.08115132923292  1.33218090209021
 1 -13.89364233723373 -0.68167560946095  2.02478339933993
 1 -14.25480897589759 -0.47481535343534  0.08971711571157
 1  12.98847985498550 -2.33480278737874 -1.02382294029403
 1 -12.62930336233623  1.28948293039304  1.87006474047405
 1  13.79234382138214  0.32747532543254 -0.09119430043004
 1  13.85119067606761 -0.33710906800680 -1.78052078307831
 1 -13.63560876987699  1.70838589868987 -0.96737948094809
 1 -12.67111308430843  2.97362238233823 -0.13634259825983
 1  10.86865955495550 -2.11068949794980  3.01911660766077
 1  9.55864419141914 -1.02552235123512  2.58397515251525
 1  11.09927366936694 -0.17013588068807  2.81306469246925
 1  10.53241950495049 -2.95401017501750 -0.47126380938094
 1  10.21372037493749 -3.50118876187619  1.20808024802480
 1  9.28277559455946 -2.50812212021202  0.35186190719072
 1 -11.38760044604460 -0.39188168206821  2.69321961896190
 1 -10.85457829682968 -2.15842838673867  1.75009879387939
 1 -12.44233512651265 -1.89111653155316  2.86008658865887
 1 -13.42140258925892 -2.86680537643764  0.71482961396140
 1 -11.92327756275628 -2.87820440934093 -0.05529263126313
 1 -13.36405426442644 -1.84529372127213 -0.86649939193919
 1  8.77187909090909 -0.31220563156316  0.17777489848985
 1 -10.06587135213521 -2.00603766766677 -0.56803060506051
 1  10.76308760076008  1.44935960596060 -1.91881394039404
 1  12.07864369336934  2.31716265916592 -1.29045465346535
 1  12.26536820682068  0.99896075097510 -2.56314900390039
 1 -11.16504090509051  2.40466603070307 -2.29076979797980
 1 -9.90262624062406  1.12930694979498 -2.07292325932593
 1 -10.31566575057506  2.61866452055206 -0.84447760376038
 1  14.67282641064106 -3.05885121222122  0.18906718671867
 1 -14.97891258425842  1.73989128922892  2.16662775877588
 1  10.19089500850085  2.27681458945895  0.31722854785479
 1 -8.68716345234523  0.52697729882988 -0.09103972997300
 1  8.83108079507951  4.01468485048505  0.78334417541754
 1  7.55353174017402  4.29622448344834 -0.40975732173217
 1  7.18347760776078  3.95017608560856  1.43025986398640
 1 -8.16403919791979 -3.01623628152815 -0.25254054305431
 1 -8.32828719971997 -2.74218422132213 -1.91248313731373
 1 -6.78792456445645 -3.02558709860986 -1.30593602760276
 1  7.08964481948195  0.48826204120412 -0.16546442144214
 1 -6.74895187118712  0.41438893399340 -0.58426355135514
 1  5.44303200820082  2.97930360236024  0.56244275327533
 1 -4.96187665866587 -2.11488916691669 -1.13982013201320
 1  4.69468266126613  0.23027777377738 -0.59717178517852
 1 -4.13502490649065  0.69537890989099 -0.24339305830583
 1  2.75077070507051  3.29983187318732  1.39178241924192
 1  1.73660192119212  3.42328331033103 -0.14104950295030
 1  3.56361174117412  3.66759338433843 -0.29800285828583
 1 -2.97371848684869 -3.02309460146015 -0.56595426042604
 1 -2.77358607160716 -2.32818988098810 -2.02246098809881
 1 -1.28604898989899 -2.67915546554655 -1.17054559755976
 1  2.60333169616962 -0.32190547154715 -0.56841305330533
 1 -1.92818744174417  0.93633187718772  0.04820091309131
 1  0.30063036203620  1.68287371437144  0.10958296829683
 1  0.04224600960096 -1.22472263626363 -0.85457713171317

