%nproc=4
%Mem=2GB
# td=(NStates=1) CAM-B3LYP/6-31G(d,p) 

TD

0 1
 8  14.81020654565457 -2.02761569466947 -0.38986590959096
 8 -14.78066313031303  2.06230153525353  0.75075460646065
 6  11.19783212921292 -1.54380693279328  0.90238639963996
 6 -12.41565672967297 -0.93238485638564  0.58733237723772
 6  12.72533609960996 -1.84036333243324  0.91448634063406
 6 -13.75887260626063 -0.19077709760976  0.65354816681668
 6  13.33564160316032 -1.81632395449545 -0.49878342334233
 6 -13.51793108610861  1.33568222932293  0.75802705370537
 6  10.81827115411541 -0.33493112011201  0.00351705870587
 6 -11.30537690169017 -0.29994100100010 -0.22444012001200
 6  13.26745723672367 -0.50660914601460 -1.07619037303730
 6 -12.74590702870287  1.84349735683568 -0.38339769276928
 6  11.91687755675568  0.16059644254425 -0.85978862186219
 6 -11.49516011101110  1.00929755885589 -0.69449144514451
 6  10.90891193219322 -1.32331777277728  2.47143052705271
 6  10.43085370537054 -2.67248501650165  0.41708509850985
 6 -11.89341114711471 -1.04479417131713  1.96383251425143
 6 -12.73045954095410 -2.36217743964396  0.07893915591559
 6  9.64246948794879  0.33503245624562  0.14825878587859
 6 -10.08938451045105 -1.05620836273627 -0.56574785978598
 6  11.66984286428643  1.23404857875788 -1.99881187118712
 6 -10.49809809780978  1.75456493359336 -1.58850574057406
 6  9.36930083508351  1.64913115611561  0.02888952895290
 6 -8.86630802780278 -0.59703165206521 -0.37292239423942
 6  8.03811291629163  2.27602358535854  0.21133190819082
 6 -7.51959999399940 -1.32900122802280 -0.48729489848985
 6  7.95959774377438  3.81529038403840  0.55097928192819
 6 -7.62665096209621 -2.70574015091509 -0.83151183618362
 6  6.92323229422942  1.62202114311431  0.13515103010301
 6 -6.33911660866087 -0.65440370227023 -0.23434235923592
 6  5.51613232723272  2.03408764676468  0.46159312831283
 6 -5.08494704070407 -1.14131120402040 -0.47561443944394
 6  4.43869265526553  1.31504769876988  0.16545446044604
 6 -3.89243054005401 -0.42666489048905 -0.26117893289329
 6  3.08637612861286  1.78590298129813  0.26712082808281
 6 -2.56763221922192 -0.89747982698270 -0.37402575757576
 6  2.70263183018302  3.13978167016702  0.72056971497150
 6 -2.28752752075208 -2.30851434343434 -0.88150937693769
 6  2.10093918291829  0.79151121512151 -0.14824550455046
 6 -1.49092105210521  0.00662855185519 -0.09995394639464
 6  0.72373920292029  0.80345315931593  0.03831515951595
 6 -0.14720459045905 -0.08894649464947 -0.41371234123412
 1  13.18128670867087 -1.22740615071507  1.43785947494750
 1  13.01805530453045 -2.70321353545355  1.41449913391339
 1 -14.40795376837684 -0.47070451235123  1.47988890989099
 1 -14.52787628262826 -0.46423429532953 -0.18030988698870
 1  12.97649865686569 -2.53028233533353 -1.17537809580958
 1 -12.93057348934893  1.59832381448145  1.66661439543954
 1  13.86814140114011  0.12967554545455 -0.58780396139614
 1  13.66259181618162 -0.43861921902190 -2.23259599059906
 1 -13.35163037203720  1.83456851695169 -1.21326406940694
 1 -12.24242021502150  2.86382140224022 -0.26902586658666
 1  11.09884257325733 -2.23016144514451  3.12632732873287
 1  9.76346467346735 -1.00855065406541  2.55654240924092
 1  11.56948069006901 -0.48286715381538  2.94767815381538
 1  10.97181344434443 -2.77865263926393 -0.55114179717972
 1  10.55061406430643 -3.53535217821782  1.08712815281528
 1  9.43898121512151 -2.29214052205221  0.27377409840984
 1 -11.95055674167417 -0.27611010491049  2.72122241924192
 1 -10.74046688568857 -1.43206575047505  2.21133491749175
 1 -12.55290618361836 -1.75304272417242  2.56998757875788
 1 -13.51745219421942 -2.89149784568457  0.57237536853685
 1 -11.84078931393139 -2.83441002990299  0.14404730273027
 1 -12.97602546154615 -2.37746693859386 -1.05055779777978
 1  8.75992789578958 -0.33796820782078  0.48268538953895
 1 -10.15985075007501 -2.10127719161916 -1.08302210421042
 1  10.60731202320232  1.36976164616462 -2.11860391939194
 1  12.24627045604560  2.20309125202520 -1.68919452745274
 1  12.24113578357836  0.85247610251025 -2.85472816181618
 1 -11.19069347034703  2.40677624172417 -2.15051577257726
 1 -9.79980595859586  1.08173219231923 -1.95050101710171
 1 -9.86227041104110  2.57807046114611 -0.90138329432943
 1  14.90454958295830 -2.89572489958996 -0.29406112611261
 1 -15.24583927692769  1.65836313641364  1.33547464346435
 1  10.13273919291929  2.25137204520452 -0.29455263026303
 1 -8.77555229122912  0.43853845494550 -0.01865249124913
 1  8.89855754275428  4.40588397039704  0.75113095409541
 1  7.50746713371337  4.08808366936694 -0.30018636463646
 1  7.19115837583758  4.02096316431643  1.31056789478948
 1 -8.33264605860586 -3.13761841974197 -0.02703799279928
 1 -8.11479585058506 -2.90154015691569 -1.89691158015802
 1 -6.59287505950595 -3.19342388228823 -0.75694112811281
 1  6.81133698869887  0.51839505450545 -0.17275515051505
 1 -6.25828280428043  0.43107060216022  0.00652552755276
 1  5.39205691069107  3.03902957495750  0.69084559355936
 1 -4.90703117411741 -2.31407908590859 -0.93344949494950
 1  4.45315850885089  0.18107285328533 -0.29283135113511
 1 -4.09786119011901  0.56095546754676 -0.09261798079808
 1  2.74705033303330  3.23792568256826  1.86080932193219
 1  1.64473273427343  3.38179916191619  0.37447204920492
 1  3.57994337433743  3.84446107110711  0.29737667966797
 1 -2.90413152815282 -3.16969926192619 -0.22134979998000
 1 -2.32314102710271 -2.51704876687669 -2.03938268026803
 1 -1.13406379137914 -2.49671722172217 -0.76311485448545
 1  2.54075543854385 -0.07701098209821 -0.58224443644364
 1 -1.85301992499250  0.94986323032303  0.38704479747975
 1  0.21797209620962  1.79904533153315  0.37000901090109
 1  0.18769055405541 -0.92447261126113 -0.85177685168517

