%nproc=4
%Mem=2GB
# td=(NStates=1) CAM-B3LYP/6-31G(d,p) 

TD

0 1
 8  14.56319184418442 -2.37781071417142 -0.19996691969197
 8 -14.63048811281128  1.96351165626563  0.99817934893489
 6  11.12361470747075 -1.49454200630063  0.91889805080508
 6 -12.28481364536454 -1.02676429432943  0.70759440344034
 6  12.55805937193719 -1.85157445354535  1.06977186918692
 6 -13.71326804580458 -0.29770779067907  0.79401221322132
 6  13.27381542054206 -2.02698502060206 -0.21582512751275
 6 -13.38261755475548  1.24914357545755  1.00088133913391
 6  10.95766509350935 -0.31934956195620 -0.03779707270727
 6 -11.34475083908391 -0.24431543844384 -0.18680635663566
 6  13.24184467546755 -0.54657314241424 -0.93003575757576
 6 -12.71970440844084  1.74268727582758 -0.21638099109911
 6  11.85829169816982  0.02791317421742 -0.87213985698570
 6 -11.52679327432743  0.96766339543954 -0.66128812481248
 6  10.72075311631163 -1.08373381438144  2.41957534153415
 6  10.21232185218522 -2.60503827182718  0.49854324432443
 6 -11.73039484548455 -1.21135082698270  2.16009214021402
 6 -12.55173166816682 -2.45560678257826  0.20637189918992
 6  9.66205144614461  0.44725367836784  0.12758671867187
 6 -10.01839741174117 -1.02381512341234 -0.46160744574457
 6  11.72326820682068  1.15738091199120 -1.91598358835884
 6 -10.61699998799880  1.65905538263826 -1.61448833883388
 6  9.39227313231323  1.73606984998500  0.14045068506851
 6 -8.83129452645264 -0.56134808370837 -0.36163126512651
 6  8.04454355935593  2.40860684368437  0.26723749874987
 6 -7.58333636763676 -1.24573290119012 -0.59168533753375
 6  8.03023480748075  3.90584943994399  0.63063724772477
 6 -7.66327462446245 -2.69819939683968 -1.12455114011401
 6  7.00592056305631  1.59500844184418  0.12557007200720
 6 -6.40827352435243 -0.57902616451645 -0.34968389338934
 6  5.64004471847185  2.10714495249525  0.23096006500650
 6 -5.09388793479348 -1.06338341124112 -0.64891176917692
 6  4.47710649664967  1.36203239723972 -0.04141622662266
 6 -3.95824712171217 -0.31163338733873 -0.48130094509451
 6  3.15182267326733  1.74456884788479  0.12696681268127
 6 -2.60614607060706 -0.77869794879488 -0.69000735573557
 6  2.79939150615062  3.12370006200620  0.76985464346435
 6 -2.31656042404240 -2.13207669966997 -1.21195242124212
 6  2.12441153015302  0.81298336233623 -0.23196387638764
 6 -1.57069902990299  0.17427531653165 -0.35891984298430
 6  0.72141897089709  1.00209302330233 -0.11662033403340
 6 -0.19257912791279 -0.14837243724372 -0.34979594959496
 1  13.13310189018902 -0.97002041214121  1.59769545854586
 1  12.92000549954995 -2.71421463556356  1.65726341034103
 1 -14.29946291929193 -0.57828527042704  1.79625054605461
 1 -14.20966446144614 -0.64002187408741 -0.14783663966397
 1  12.61997300430043 -2.52019132623262 -0.96336689468947
 1 -12.84870530253025  1.44723870597060  1.90412814681468
 1  14.12334692169217 -0.01098852095210 -0.22569775077508
 1  13.65449100610061 -0.67932328942894 -1.91142387338734
 1 -13.35027023602360  1.96100116021602 -1.03160590359036
 1 -12.39809578257826  2.60386540664066  0.02174321032103
 1  10.90107279627963 -1.87989641864186  3.10504520052005
 1  9.52512083908391 -0.69475927492749  2.39109586458646
 1  11.18535227722772 -0.12553142024202  2.78742212821282
 1  10.34167043004300 -2.88566334033403 -0.53269995299530
 1  10.21074007690769 -3.44014265726573  1.22030147014701
 1  9.06313363036304 -2.46805811381138  0.42437915891589
 1 -11.27340902690269 -0.23840633453345  2.58373867086709
 1 -10.74001684068407 -1.96351889578958  1.88566235023502
 1 -12.41400229322932 -1.71920934083408  2.75652623262326
 1 -13.36391684068407 -2.97594629052905  0.76963509450945
 1 -11.78167340234024 -3.08950553945395  0.12973587158716
 1 -13.04310216921692 -2.44676386828683 -0.83981672367237
 1  8.90669257225723 -0.33914832583258  0.55036215721572
 1 -10.22735750075008 -2.16520358425843 -0.56505030703070
 1  10.67242853485348  1.39425409540954 -1.90311237023702
 1  12.40158598759876  2.08050899379938 -1.68394400240024
 1  12.26967863786379  0.63043389828983 -2.95383807280728
 1 -11.18537293829383  2.33672923702370 -2.26776749774978
 1 -10.05255123312331  0.91533555265527 -1.95591155815582
 1 -9.84382856685669  2.33168582268227 -1.22900605660566
 1  14.53830295829583 -3.21703703080308  0.34906318631863
 1 -15.27268196119612  1.68052535263526  1.66992808880888
 1  10.24592051105111  2.48796570457046 -0.10161333633363
 1 -8.56049078507851  0.45146974807481 -0.07337796379638
 1  8.97835552255225  4.40499388138814  0.42333817481748
 1  7.41303769076908  4.42709757075708 -0.13618996499650
 1  7.85552481248125  4.16042711071107  1.73729056705671
 1 -8.11510430443044 -3.37489214711471 -0.31053634263426
 1 -8.35360973197320 -2.71319132203220 -1.78588047704770
 1 -6.70126589858986 -3.13764830473047 -1.47207264126413
 1  6.97667352235224  0.69047226222622 -0.39130700570057
 1 -6.33700067606761  0.45015251035103 -0.04341946694669
 1  5.38771647664767  3.18429410141014  0.66603311231123
 1 -5.11566203720372 -2.06506418441844 -1.02820897089709
 1  4.74224741774177  0.24299904590459 -0.52454452245225
 1 -4.17052845684568  0.75821519351935 -0.28053677267727
 1  3.21570719871987  3.10605249524952  1.81904514551455
 1  1.75199346034603  3.43712469446945  0.62661726372637
 1  3.27769314931493  4.06179280428043  0.26829377137714
 1 -2.16645776077608 -2.81058335033503 -0.07198486348635
 1 -3.49275798879888 -2.43813087508751 -1.97155589758976
 1 -1.39536992199220 -2.26954450445044 -2.01789033203320
 1  2.51053241624162 -0.18993227422742 -0.71196740874087
 1 -1.98505312831283  1.27307555155516  0.08516460946095
 1  0.43570386938694  2.06067149414942 -0.09286727672767
 1  0.16333811881188 -1.10481064506451 -0.61927360136014

