%nproc=4
%Mem=2GB
# td=(NStates=1) CAM-B3LYP/6-31G(d,p) 

TD

0 1
 8  14.65192071707171 -2.27185011811181 -0.25950287328733
 8 -14.71301636563656  1.88888419351935  1.13831336233623
 6  11.15602794879488 -1.33630618271827  1.10586674767477
 6 -12.37886305030503 -1.03992561046105  0.52647629162916
 6  12.67833139913991 -1.78104740084008  1.06728162016202
 6 -13.65267198619862 -0.29539755965597  0.55023783578358
 6  13.19836787578758 -1.98978130023002 -0.33273681868187
 6 -13.40540983398340  1.12757141824182  0.95178642964296
 6  10.97049637663766 -0.24285191219122  0.00686739373937
 6 -11.21357772177218 -0.16599760666067 -0.21622929892989
 6  13.16472696369637 -0.69248773387339 -1.06713946794679
 6 -12.65172761076107  1.90898390549055 -0.18803815681568
 6  11.82723859285929  0.03060344324432 -1.00899354235424
 6 -11.40702129712971  1.07144377347735 -0.66476847284728
 6  10.81412245324533 -0.94006944794479  2.58303168716872
 6  10.34597521752175 -2.54760252825283  0.66268965896590
 6 -11.85616742274227 -1.35185487738774  1.93240937193719
 6 -12.62323881888189 -2.37343856575658 -0.24882362036204
 6  9.64093933493349  0.52552150515051  0.09610357035704
 6 -9.91295686768677 -0.94049679157916 -0.46922820782078
 6  11.45855173517352  1.12951812571257 -2.03732572257226
 6 -10.52588087608761  1.91869134623462 -1.41044793479348
 6  9.41048495349535  1.72574881788179 -0.05364872487249
 6 -8.65974737173717 -0.53456540544054 -0.37467256925693
 6  8.01175028002800  2.29821580458046  0.12096287128713
 6 -7.55682371637164 -1.29509783768377 -0.62034820382038
 6  7.94339612361236  3.85347420242024  0.36052023602360
 6 -7.68626692369237 -2.71061063796380 -1.02821150615062
 6  6.97363733473347  1.50452939393939 -0.00630311531153
 6 -6.44670736773677 -0.62334059595960 -0.32834175917592
 6  5.61330204420442  2.01258549654965  0.19349631863186
 6 -5.12743128912891 -1.12997006990699 -0.44567144514451
 6  4.48547733373337  1.24507070107011  0.06903481848185
 6 -3.92641393839384 -0.29165138913891 -0.40042285728573
 6  3.17907539853985  1.66926131713171  0.22149626562656
 6 -2.63146860286029 -0.76656673567357 -0.46478483348335
 6  2.82521408840884  3.07691538353835  0.77302496049605
 6 -2.39621838983898 -2.15833932593259 -0.96034726072607
 6  2.04797388638864  0.73684574857486 -0.02070275027503
 6 -1.58874083408341  0.07740562956296 -0.27344129512951
 6  0.79024585358536  0.93907672167217 -0.03745241724172
 6 -0.18059792979298 -0.11139873987399 -0.33062403240324
 1  13.22811139113911 -0.93802721282128  1.53302899189919
 1  12.89402290129013 -2.65592880698070  1.60695837983798
 1 -14.32775574857486 -0.77654509640964  1.14638555955596
 1 -14.12353584858486 -0.39923779567957 -0.48979083508351
 1  12.61342234923492 -2.69748905600560 -1.05021557955796
 1 -12.81543197519752  1.19891387348735  1.86539427342734
 1  13.82104669166917  0.22247482538254 -0.59633481448145
 1  13.37975353235323 -0.87429278637864 -2.21862459345935
 1 -13.36957216621662  2.08106316641664 -1.09462220522052
 1 -12.50700667366737  2.87113213331333  0.50446148214821
 1  11.04848753775378 -1.68037646664666  3.36447114311431
 1  9.67105543254325 -0.73533333233323  2.43976073107311
 1  11.24460820282028  0.02018315121512  2.85611899789979
 1  10.04483074607461 -2.55285005900590 -0.49314599759976
 1  10.92169117201720 -3.63758240124012  1.10395983598360
 1  9.22163948094810 -2.56151745974598  1.24566128712871
 1 -11.55136682268227 -0.48697119101910  2.62306260326033
 1 -10.92814565356536 -1.98061060496050  1.74884866886689
 1 -12.73854474747475 -1.86930435033503  2.39766034603460
 1 -13.45030547954795 -3.10754945084508  0.13793192419242
 1 -11.72943817881788 -3.07990457935794 -0.45554265626563
 1 -12.87448530753075 -2.10527971987199 -1.37134987698770
 1  8.86488839183918 -0.11675608660866  0.59856697769777
 1 -10.23110787578758 -2.00870793469347 -0.69215301730173
 1  10.29369066106610  1.40310498049805 -2.13087514651465
 1  12.02833866286629  1.92154309720972 -1.82246785478548
 1  11.60453212321232  0.95808666356636 -3.24259694869487
 1 -11.16683108410841  2.52075763986399 -2.07412813381338
 1 -9.89788576657666  1.35628964806481 -2.01270723772377
 1 -9.82029621362136  2.43521617571757 -0.54263741974197
 1  14.63881300930093 -3.15132045914591  0.39441772177218
 1 -15.11923661666166  1.45921322142214  1.98004910091009
 1  10.27972389138914  2.39120602860286 -0.34719789478948
 1 -8.65998073407341  0.52363696479648  0.24583395739574
 1  8.89801748874888  4.31447482948295  0.39947578857886
 1  7.04305069206921  4.09391425242524 -0.29018536453645
 1  7.46621588158816  4.04677574557456  1.35403224122412
 1 -8.39731252525253 -3.14731938983898 -0.22825811481148
 1 -8.17649202020202 -2.60471047394739 -2.04016590559056
 1 -6.63403917591759 -3.01507604750475 -1.23102853685369
 1  7.03653950895090  0.59126234123412 -0.41422929792979
 1 -6.69549652565257  0.48098559365937  0.27881275627563
 1  5.54769247424742  3.00320599259926  0.56041255025503
 1 -4.98494896589659 -2.29477715571557 -0.86225237523752
 1  4.75386857985799  0.27380212621262 -0.27349941794179
 1 -3.99952135613561  0.58778815081508  0.25949723072307
 1  3.08206383438344  3.10523241324132  1.83372661366137
 1  1.84271253225322  3.29354033603360  0.82647724972497
 1  3.45413079307931  3.85274189918992  0.30969791179118
 1 -2.77348846384638 -2.78423071507151 -0.10127779277928
 1 -3.00500921392139 -2.37669473147315 -1.83907264926493
 1 -1.22006239123912 -2.33961151115111 -0.99801834483448
 1  2.41936329932993 -0.34181746274627 -0.07675388738874
 1 -1.94687931093109  1.17005524952495 -0.21153506050605
 1  0.39324962396240  1.94779020602060  0.20474248424842
 1  0.38340012501250 -1.16596676067607 -0.44177585158516

