%nproc=4
%Mem=2GB
# td=(NStates=1) CAM-B3LYP/6-31G(d,p) 

TD

0 1
 8  14.68751427642764 -2.31489442254225 -0.23889081208121
 8 -14.56254131813181  1.97064236933693  1.05852538353835
 6  11.18892123812381 -1.42120467256726  1.11972813381338
 6 -12.23962912691269 -1.04011562946295  0.79610325432543
 6  12.74945851185118 -1.69031832793279  1.16493138513851
 6 -13.53197991699170 -0.19580760066007  0.91013382538254
 6  13.28899693869387 -1.89784210631063 -0.19546309130913
 6 -13.41176046904691  1.29237789888989  1.07326857785779
 6  10.88970829782978 -0.32076970397040  0.08936564356436
 6 -11.14127049104911 -0.27351835873587 -0.07586526252625
 6  13.20500099109911 -0.52900138523852 -0.91690444444444
 6 -12.62920535853585  1.81924493159316 -0.07389674267427
 6  11.78745461446145  0.14449483238324 -0.83691633463346
 6 -11.35188578357836  0.95102173127313 -0.54148614461446
 6  10.74359540054005 -1.10601604260426  2.55724910891089
 6  10.39189980998100 -2.71217898589859  0.66355974597460
 6 -11.59556136213621 -1.20095978787879  2.22616874787479
 6 -12.56407290229023 -2.46663788568857  0.27172843484348
 6  9.57702294329433  0.28824777777778  0.16855081508151
 6 -10.00530610261026 -1.03875661756176 -0.32532381738174
 6  11.55687156715672  1.12765793969397 -1.89971196119612
 6 -10.47702599059906  1.77422689978998 -1.47355424542454
 6  9.19648355335534  1.58297454045405  0.17669430943094
 6 -8.83119451645165 -0.54399634853485 -0.38932403440344
 6  7.95267437243724  2.18932491549155  0.25300607560756
 6 -7.64603263726373 -1.30700902880288 -0.65233140214021
 6  7.96635841984198  3.71505036003600  0.67205138913891
 6 -7.64079237623762 -2.76415599249925 -1.17564624962496
 6  6.83173314431443  1.49384832583258  0.13225074007401
 6 -6.39197189418942 -0.72330059195920 -0.74634355935594
 6  5.58707942194219  2.04827906590659  0.22710967996800
 6 -5.00443898989899 -1.17477455035504 -0.91940881888189
 6  4.32443122912291  1.40316651065106 -0.12146423142314
 6 -3.98039933693369 -0.31810403440344 -0.77156997199720
 6  3.00452794379438  1.82055644664466  0.12969708570857
 6 -2.64656011201120 -0.66344642364236 -0.86645500050005
 6  2.77404897189719  3.21498919091909  0.60369802780278
 6 -2.29458822682268 -2.13441693369337 -1.24216544254425
 6  1.97028611761176  0.89404146814681 -0.20844152415242
 6 -1.63506546654665  0.30648853785379 -0.67913186418642
 6  0.61315814481448  1.13920673467347 -0.19454812681268
 6 -0.28317818781878  0.02257465746575 -0.58926989698970
 1  13.21812039203920 -0.88427183728373  1.75827151615162
 1  12.95069856885689 -2.53856707080708  1.93716140014001
 1 -13.94613758675868 -0.81794923682368  1.92816373737374
 1 -14.14373786878688 -0.44387225912591  0.00954909890989
 1  12.56561756875688 -2.75485479257926 -0.52109266726673
 1 -12.63149358135814  1.42036601870187  2.04232196619662
 1  13.84882946994699  0.12810538843884 -0.67167234823482
 1  13.33063862086209 -0.93924928202820 -1.88701143214321
 1 -13.25366057505751  1.56372143224322 -1.04125686868687
 1 -12.43755972897290  2.89304432453245 -0.04871383538354
 1  10.91012370137014 -1.92265069406941  3.19719441544154
 1  9.57492581958196 -1.10304010301030  2.53307006200620
 1  11.29676341834183 -0.26753562066207  3.03570695669567
 1  10.59730599359936 -2.85693046704670 -0.61408809180918
 1  10.52162116501650 -3.65454409740974  1.38294773477348
 1  9.28097541454146 -2.62589389738974  0.85537225822582
 1 -11.47828951495149 -0.21845433933393  2.67889818681868
 1 -10.45346818581858 -1.53877642154215  1.94832861686169
 1 -11.87030792379238 -2.04345176507651  2.97588816881688
 1 -13.20427087608761 -2.93637233313331  0.83095122612261
 1 -11.58977421242124 -2.95337192609261  0.28082098009801
 1 -12.76916477547755 -2.49666885878588 -0.80333307530753
 1  8.73711561456146 -0.19391380238024  0.46439356035604
 1 -9.96133089808981 -2.10916798069807 -0.53020682268227
 1  10.56378767076708  1.54856952695270 -2.04516657565757
 1  12.12728855785579  2.04097504040404 -1.84911051905191
 1  11.66620829082908  0.46674752965297 -2.99181187018702
 1 -10.99291369236924  2.49953551765176 -2.02321304230423
 1 -9.97192317031703  1.13330734983498 -1.87205317231723
 1 -9.86377056105611  2.43190584468447 -0.85120827682768
 1  14.77024615261526 -3.20242556965697  0.09908818881888
 1 -15.24325901890189  1.62774007410741  1.72969406540654
 1  10.00292621162116  2.34395130313031  0.06831365636564
 1 -8.74740947694769  0.37047164826483  0.12888226222622
 1  8.90147783478348  3.98783216521652  0.38537437843784
 1  6.98504489148915  4.16748160916092  0.29086274027403
 1  7.88047730773077  3.55594666266627  1.84334117211721
 1 -7.77663045704570 -3.39573423132313 -0.13407869686969
 1 -8.55360973197320 -2.94794479737974 -1.90663255225523
 1 -6.75666143814381 -3.18670321022102 -1.66360179417942
 1  6.85520137513751  0.45961917691769 -0.37727560256026
 1 -6.21583855985599  0.26099359445945 -0.25146027102710
 1  5.49064676967697  2.93116878887889  0.47712422142214
 1 -4.79531000200020 -2.23047072507251 -1.12573872387239
 1  4.26574976797680  0.34156890289029 -0.49043111111111
 1 -4.12865426942694  0.63354272627263 -0.44176289528953
 1  3.59850547854786  3.54173606360636  1.46635987698770
 1  1.75023328432843  3.27311829382938  1.12502710471047
 1  2.99568494849485  3.88578520352035 -0.31091414941494
 1 -2.54594570957096 -2.98497078907891 -0.56677434243424
 1 -2.57104581758176 -2.41747880988099 -2.27425616761676
 1 -1.10284066906691 -2.25495304530453 -1.39635817881788
 1  2.14585594859486 -0.37907118811881 -0.22096830883088
 1 -2.15926054905491  1.33640188418842 -0.48460236723672
 1  0.15060535953595  2.20112553955396 -0.04617260726073
 1  0.01737352235224 -1.02662282628263 -0.81200287428743

