%nproc=4
%Mem=2GB
# td=(NStates=1) CAM-B3LYP/6-31G(d,p) 

TD

0 1
 8  14.58903442844285 -2.39280221332133 -0.09836675967597
 8 -14.72230729472947  1.86091139623962  1.09027855885589
 6  10.99580192619262 -1.47788034013401  0.94267042804280
 6 -12.29119428342834 -1.05784740264026  0.68109175317532
 6  12.48033159915992 -2.05107440354035  1.09128402040204
 6 -13.58011473047305 -0.24332235213521  0.69251206320632
 6  13.22564060306031 -2.02683500560056 -0.23698724372437
 6 -13.47792708570857  1.20304896599660  0.93579483048305
 6  10.89863919091909 -0.30514814181418  0.03613032003200
 6 -11.30918728272827 -0.33894490139014 -0.12906058205821
 6  13.22461295229523 -0.59628811391139 -0.76021877587759
 6 -12.66760919891989  1.88633164026403 -0.16799615261526
 6  11.89145501450145  0.18944932783278 -0.69243188618862
 6 -11.46864745974597  0.94054068316832 -0.51842383838384
 6  10.41119216021602 -1.17923336433643  2.36656004000400
 6  10.08204882488249 -2.71742951095110  0.30789417941794
 6 -11.80248205420542 -1.27979767166717  2.15072120312031
 6 -12.53180967596760 -2.49728094999500  0.04502576457646
 6  9.61259650065006  0.45063401640164  0.11115507550755
 6 -10.02141771377138 -1.07620036193619 -0.48376966196620
 6  11.93805968596860  1.34104927882788 -1.68219020902090
 6 -10.55931421942194  1.70231970907091 -1.39950684068407
 6  9.30236414141414  1.71355759875988  0.23188982898290
 6 -8.70671206820682 -0.47875982488249 -0.26777187918792
 6  8.04472357735774  2.34517050005000  0.21685246024602
 6 -7.51430946494649 -1.21692001990199 -0.52745891489149
 6  8.02523430743074  3.84041289628963  0.50821500550055
 6 -7.69398769576958 -2.65831540844084 -1.06174485948595
 6  6.87902787378738  1.61571051205120 -0.06505899089909
 6 -6.29364206120612 -0.63109137103710 -0.40272919791979
 6  5.58772948694870  2.20389462746275  0.06046301530153
 6 -5.00699924592459 -1.11350842374237 -0.60711758975898
 6  4.45135392139214  1.38285447944794 -0.18116020102010
 6 -3.90504180118012 -0.29692191619162 -0.39532234723472
 6  3.11318880988099  1.78565295629563  0.01678579457946
 6 -2.52173762976298 -0.70148022702270 -0.61889024402440
 6  2.81140270727073  3.20657834983498  0.31645930393039
 6 -2.23489225722572 -2.16522001400140 -1.06443766976698
 6  2.15708479747975  0.90952301630163 -0.32077275727573
 6 -1.42995495549555  0.15735362436244 -0.26469042004200
 6  0.76162299129913  0.91050386438644 -0.19283795579558
 6 -0.11165103510351  0.01727412741274 -0.32037300730073
 1  13.13911249124912 -1.44269767986799  1.86578226722672
 1  12.49739323832383 -2.96445966006601  1.44925260926093
 1 -14.34268724172417 -0.93368080998100  1.32527344834483
 1 -13.98630212521252 -0.25764363626363 -0.42719457545755
 1  12.75743675067507 -2.76896620372037 -0.75134569256926
 1 -13.06644707670767  1.42415639773977  1.89848758275828
 1  13.95088967596760 -0.00904832693269 -0.12797797879788
 1  13.64379993699370 -0.83255861296130 -1.80275300630063
 1 -13.32161737073707  1.79116417651765 -0.93969671267127
 1 -12.56461243424343  2.91951697179718  0.02591362736274
 1  10.62957564656466 -1.95381381038104  3.09480417641764
 1  9.35867419441944 -1.01910170917092  2.18609536453645
 1  10.78232197419742 -0.14543341044104  2.76699008500850
 1  10.25472173517352 -2.98734350835084 -0.80395707870787
 1  9.96412541544154 -3.47773641664166  0.82596203620362
 1  8.91336865386539 -2.31028233623362  0.05806252725273
 1 -11.62003368936894 -0.28224071797180  2.72924322132213
 1 -10.85087792679268 -1.62604514841484  2.16344012801280
 1 -12.45673656665666 -1.83311073097310  2.64481506150615
 1 -13.33719416841684 -3.12797149304930  0.41398952995299
 1 -11.59354458945895 -3.08760534943494  0.02480537853785
 1 -12.77630548954895 -2.57112630453045 -1.01691443344334
 1  8.73838574157416 -0.53242765376538  0.04195131613161
 1 -9.97881264626463 -2.08751581548155 -0.76974077607761
 1  10.92563385538554  1.66996166616662 -2.08276033503350
 1  12.45904173317332  2.34276521942194 -1.40272588058806
 1  12.36737840784078  1.00337119201920 -2.66666935593559
 1 -11.18670307130713  2.25376094019402 -2.14219494049405
 1 -9.73436941494149  1.08155217431743 -1.90615658265827
 1 -10.10387457145714  2.50305295939594 -0.68389154515452
 1  14.57606673467347 -3.24546987408741  0.22980126012601
 1 -15.10889558255826  1.58606590669067  1.94177527352735
 1  10.22233815281528  2.48041494949495  0.15188201320132
 1 -8.74768950495050  0.63900850195019  0.25634500850085
 1  9.06827451445144  4.34975835783578  0.64817065806581
 1  7.46757314431443  4.46084094509451 -0.05783212921292
 1  7.61357061706171  4.11977304530453  1.44229106710671
 1 -8.23356615061506 -3.31994665256526 -0.41420670967097
 1 -8.23203757475748 -2.53471347424742 -2.00022191119112
 1 -6.76759253125313 -3.03514805470547 -1.39311474547455
 1  6.93770962596260  0.70881409640964 -0.48275615061506
 1 -6.30143711971197  0.46088358345835 -0.36521164616462
 1  5.48808651365137  3.10617628962896  0.51474798379838
 1 -5.06186665766577 -2.21525920392039 -0.97219336933693
 1  4.58509170217022  0.46235098109811 -0.40386245424542
 1 -4.00147155115512  0.62780215221522 -0.14091281028103
 1  2.91707733573357  3.37624951495150  1.42734597559756
 1  1.80445870687069  3.41768275027503  0.20084468646865
 1  3.36724210421042  3.93446007100710 -0.43718677667767
 1 -2.35134624962496 -2.82214450645064 -0.02815048004800
 1 -2.98088680168017 -2.27196425842584 -1.99308805080508
 1 -1.23969435443544 -2.33581113111311 -1.33694223722372
 1  2.64982634563456 -0.13726700770077 -0.60905711771177
 1 -1.76701132413241  1.03963220722072  0.02028812181218
 1  0.42040233923392  1.96425185218522  0.04743675367537
 1  0.31000278527853 -0.98077824182418 -0.50789246324632

