%nproc=4
%Mem=2GB
# td=(NStates=1) CAM-B3LYP/6-31G(d,p) 

TD

0 1
 8  14.68211373637364 -2.30570350345035 -0.20574749774978
 8 -14.94203926792679  1.71494679977998  0.72058158915892
 6  11.17702004800480 -1.51138369046905  0.89182534353435
 6 -12.46920208420842 -1.15786740464046  0.59342298629863
 6  12.64159772577258 -1.96214551065107  1.09421431343134
 6 -13.74633135213521 -0.39097711761176  0.46749956195620
 6  13.28229626862686 -2.12098442054205 -0.36757030203020
 6 -13.72587188018802  1.05855451655166  0.86932818381838
 6  10.86310563756376 -0.35140276727673 -0.14356764976498
 6 -11.25512187618762 -0.30189119601960 -0.08751642764276
 6  13.22164265526553 -0.71669015411541 -1.09891264526453
 6 -12.74559699769977  1.84332733983398 -0.16043539653965
 6  11.91522739173917 -0.00182980008001 -1.10000264326433
 6 -11.45956655165516  1.00304693379338 -0.40765276127613
 6  10.79165020602060 -0.88749419041904  2.41584496849685
 6  10.19021964196420 -2.64036180418042  0.52181557155716
 6 -11.99024083008301 -1.42633232513251  2.01780791179118
 6 -12.51765826082608 -2.47113833573357 -0.13317205520552
 6  9.68884412541254  0.43969292229223  0.13198715871587
 6 -9.94106967896790 -0.90839358125813 -0.45344662966297
 6  11.74490037003700  1.04721989588959 -2.10964295429543
 6 -10.56558484648465  1.84136361346135 -1.34160105010501
 6  9.43111701670167  1.72650889388939 -0.04395775577558
 6 -8.73407480448045 -0.43877582648265 -0.42278738073807
 6  8.12213131813181  2.31691767476748  0.13909468446845
 6 -7.51911994599460 -1.22601092899290 -0.67374354335434
 6  8.05191697569757  3.81046990199020  0.43171735573557
 6 -7.63928222522252 -2.69604918181818 -0.99754843984398
 6  6.96699667066707  1.62420136113611  0.14282179717972
 6 -6.31461415841584 -0.59322758465847 -0.42098102310231
 6  5.62261297529753  2.06756099409941  0.37955492449245
 6 -5.06365491149115 -1.06171324422442 -0.64618149614962
 6  4.51477026302630  1.24000019401940  0.33413132813281
 6 -3.97326862386239 -0.22034425842584 -0.41991480648065
 6  3.12295978697870  1.78644303530353  0.32466658265827
 6 -2.58728418441844 -0.60588066706671 -0.40199855485549
 6  2.96040760776078  3.20915860786079  0.57252491049105
 6 -2.28775754375438 -2.10398389038904 -0.60060128612861
 6  2.13945303430343  0.84159622362236  0.05738505850585
 6 -1.55201716171617  0.32261015001500 -0.18454240524052
 6  0.78063489248925  1.18634144814481 -0.03418209020902
 6 -0.17289715971597  0.16248864886489 -0.27384835483548
 1  13.57648622862286 -1.33715712581258  1.78475416441644
 1  12.46049954895489 -2.93970718481848  1.63053073707371
 1 -14.58704167716772 -0.93714115601560  1.10897181818182
 1 -13.99687318231823 -0.47590546244624 -0.56962881888189
 1  12.92989399639964 -2.87251655875588 -0.94240479847985
 1 -13.38678911091109  1.11976595869587  1.96236397039704
 1  14.05892047904790 -0.07483490559056 -0.64285946694669
 1  13.51847740474047 -0.95007036413641 -2.04319705070507
 1 -13.13740894989499  1.92917797789779 -1.03931667466747
 1 -12.34832080508051  2.81108612871287  0.20973200920092
 1  11.29005169416942 -1.73353178217822  3.08396309230923
 1  9.65832415941594 -1.03328312731273  2.46834358935894
 1  11.17159090109011  0.22681381428143  2.40243362936294
 1  10.35863212621262 -2.86209098309831 -0.57316399939994
 1  10.44104310721072 -3.29818846184618  1.26094553455346
 1  8.96502381938194 -2.63659496749675  0.63763048404840
 1 -11.74855654165417 -0.41782427632763  2.47031732873287
 1 -11.29284212321232 -2.14271681558156  2.12841662566257
 1 -13.09137003000300 -1.63739115901590  2.42103268326833
 1 -13.55698614761476 -3.03450214611461  0.21790992199220
 1 -11.72090732573257 -3.15667225612561 -0.00134723672367
 1 -12.56871473047305 -2.36822601450145 -1.20018276027603
 1  8.69087099009901 -0.08583299429943  0.38014513551355
 1 -10.14197896289629 -2.08427549144914 -0.54210801280128
 1  10.51723301530153  1.16431110111011 -2.24586664566457
 1  12.40036586558656  2.00736167906791 -2.02630823882388
 1  11.96709837983798  0.64074492939294 -3.03177586658666
 1 -11.18140254125412  2.72017758185819 -2.01162188318832
 1 -9.93214919291929  1.09901392049205 -1.98100406740674
 1 -9.56065024902490  2.36398905300530 -0.72775593159316
 1  14.71642077007701 -3.25188051515152  0.15208348834883
 1 -15.70332502550255  1.32971027112711  1.29265036103610
 1  10.24860077907791  2.30797770577058 -0.37281045604560
 1 -8.51255599159916  0.70127472857286 -0.20650127612761
 1  8.94388207520752  4.11910529252925  0.45527136813681
 1  7.57096348334833  4.26549141014101 -0.40140648664866
 1  7.39896915691569  4.06862793079308  1.34660149814982
 1 -7.81097389138914 -3.41622628052805 -0.12447773677368
 1 -8.40365473647365 -2.90557055995600 -1.78689057805781
 1 -6.79252502450245 -3.05936047594759 -1.35452088608861
 1  6.91407726272627  0.44954816981698  0.21705383038304
 1 -6.36102307830783  0.58989648474848 -0.21108623362336
 1  5.61161886688669  3.11073674567457  0.96476298529853
 1 -4.86864733573357 -2.10918859685969 -1.01799794979498
 1  4.52700589358936  0.19739448544854 -0.17780984898490
 1 -4.33704510851085  0.89608898089809 -0.39910862986299
 1  3.68970459845985  3.38668055805581  1.45149839083908
 1  1.82849111011101  3.45926690869087  0.75411001300130
 1  3.29364474447445  3.95726235123512 -0.27363042104210
 1 -2.76940805580558 -2.63581587358736  0.24943727872787
 1 -2.60219893289329 -2.35079214121412 -1.58744748674867
 1 -1.14894527952795 -2.18026557655766 -0.67449599259926
 1  2.47167853085309  0.03884060306031 -0.09590580258026
 1 -1.85290991399140  1.40841908590859 -0.01201510851085
 1  0.30097039603960  2.05092051905191  0.34726673667367
 1  0.28255004000400 -0.81788195219522 -0.71266294029403

