%nproc=4
%Mem=2GB
# td=(NStates=1) CAM-B3LYP/6-31G(d,p) 

TD

0 1
 8  14.87980350535054 -2.12582551565157 -0.59931685468547
 8 -14.79740480448045  2.11764706980698  0.77886741774177
 6  11.46400874687469 -1.35977852995300  0.91898805980598
 6 -12.51045620962096 -0.95547716561656  0.40664430843084
 6  13.02835640164016 -1.56299559565957  0.85555044704470
 6 -13.81258797779778 -0.19715773567357  0.43660647264726
 6  13.49748778777878 -1.72621494359436 -0.54204774977498
 6 -13.57497679067907  1.32713137423742  0.76253750475048
 6  11.10553988098810 -0.27615524252425 -0.20270356335634
 6 -11.43389975397540 -0.19976098299830 -0.38205588158816
 6  13.41332182318232 -0.35103358845885 -1.13279603360336
 6 -12.86325876387639  1.81442444954495 -0.47533688668867
 6  11.97135300430043  0.23320370327033 -1.08217086008601
 6 -11.58396899189919  1.00953758285829 -0.72915491149115
 6  11.15749679067907 -0.79919536053605  2.29573295729573
 6  10.60227084708471 -2.67122489048905  0.75152854285429
 6 -11.94899670567057 -1.14853454535454  1.82041817281728
 6 -12.74710120512051 -2.36025724762476 -0.27741647964796
 6  9.67881312231223  0.29770872387239  0.04050801080108
 6 -10.12775834783479 -1.01822456435644 -0.59393067806781
 6  11.59253513351335  1.23347852175218 -2.13942593259326
 6 -10.51794008200820  1.85392486958696 -1.54476136613661
 6  9.43895780078008  1.63672991599160 -0.00280364036404
 6 -8.90796219321932 -0.43877582648265 -0.30820592259226
 6  8.03862296729673  2.14946092909291  0.27349812481248
 6 -7.70788882288229 -1.09515784368437 -0.51812798179818
 6  7.86895867986799  3.74896375137514  0.30835501950195
 6 -7.72363066006601 -2.50432000890089 -1.09824850985099
 6  6.84923489448945  1.34359330033003  0.15249276427643
 6 -6.46693939093909 -0.59544780668067 -0.12637156215622
 6  5.57449816381638  1.91293553155316  0.36845381438144
 6 -5.13638218421842 -1.18003507640764 -0.32169904790479
 6  4.49243802980298  1.03775996999700  0.30985890089009
 6 -3.99114041104110 -0.47408963296330  0.11701888688869
 6  3.14246173717372  1.39921431243124  0.41920603660366
 6 -2.71475693169317 -0.94451453045305 -0.06110446544654
 6  3.01702326932693  2.89032672467247  0.82616027402740
 6 -2.46431519951995 -2.23403689568957 -0.65943716971697
 6  2.12723181218122  0.53993605760576  0.13103242324232
 6 -1.67458941894189 -0.00474258525853  0.10290633963396
 6  0.67255408440844  0.76662947694769  0.23052438043804
 6 -0.31135100510051 -0.22943054305431  0.01788081808181
 1  13.68264684468447 -0.73548695879588  1.26965265426543
 1  13.15700919991999 -2.32278549264927  1.57128481248125
 1 -14.47479045204521 -0.56846428832883  1.11166208720872
 1 -14.27021051605161 -0.29454732663266 -0.52084394039404
 1  12.89437044404441 -2.36700600770077 -1.10855141314131
 1 -13.07463789578958  1.41543552565257  1.57339507350735
 1  14.25720030703070  0.19781235913591 -0.65718089908991
 1  13.78100365736574 -0.42507786488649 -2.12005473647365
 1 -13.46199140814081  1.62785784588459 -1.36590933393339
 1 -12.53532950595059  2.84870989108911 -0.19750871487149
 1  11.51205389438944 -1.52219064806481  3.04101879787979
 1  10.11153948094809 -0.80823062206221  2.41807856285629
 1  11.53455719771977  0.27876900980098  2.46013939993999
 1  10.74963122612261 -3.22515728972897 -0.18017470047005
 1  10.80103910681068 -3.18339698269827  1.65229466946695
 1  9.61074839183918 -2.57299860786079  0.83559028002800
 1 -12.02998468446845 -0.22659515341534  2.41337163416342
 1 -10.96173901290129 -1.49697224112411  1.61821560556056
 1 -12.45878677167717 -1.85076249614962  2.48838941894189
 1 -13.60820126912691 -2.91873056895690  0.23091122212221
 1 -12.06941217621762 -3.03740032893289 -0.20159726172617
 1 -13.09271713071307 -2.28023721562156 -1.44245698769877
 1  8.92287419041904 -0.47705211621162  0.22861998299830
 1 -10.41343610861086 -1.95822288618862 -0.89538334033403
 1  10.38457974997500  1.33285795579558 -2.25834789378938
 1  12.41487731673167  2.18968991189119 -1.93090869886989
 1  11.94551622162216  0.87522837773777 -3.24102679167917
 1 -11.01561596259626  2.33005856995700 -2.52132285328533
 1 -9.61133711171117  1.10362438153815 -1.74072003900390
 1 -10.16399058305831  2.68569122322232 -0.88706186218622
 1  14.89861898989899 -2.94393972107211 -0.26628834883488
 1 -15.23416810981098  1.77887518761876  1.49744084008401
 1  10.26665258425843  2.53591049904991 -0.10610378537854
 1 -8.89684442044204  0.52479708080808  0.19603897789779
 1  8.86749443644364  4.23239662166217  0.28959480048005
 1  7.34844123112311  4.08493335433543 -0.49028537453745
 1  7.42723198319832  4.15894696269627  1.33964080208021
 1 -8.44736753075308 -3.26937159505951 -0.59008429742974
 1 -8.13844821582158 -2.38724872777278 -2.12077396639664
 1 -6.78617438943894 -3.11411595149515 -1.05152058605861
 1  6.76964281928193  0.13968718371837  0.10488261326133
 1 -6.53262023802380  0.50310780588059  0.17802267726773
 1  5.31387909290929  2.92940861286129  0.44454096309631
 1 -5.20633110411041 -2.25407308530853 -0.85493164316432
 1  4.58829202220222 -0.12907816181618  0.04605253725373
 1 -4.23210461446145  0.48429780178018  0.33549483048305
 1  3.96372200020002  3.17409929992999  1.61889513051305
 1  1.91054931593159  3.41375235723572  1.16220082208221
 1  3.24858023802380  3.39537616261626  0.14381132313231
 1 -2.99592070707071 -2.93239553155315 -0.11786945194519
 1 -2.87843655665566 -2.37810487248725 -1.69685842784278
 1 -1.31797218221822 -2.45646319631963 -0.56652519551955
 1  2.27171853485348 -0.52482576357636 -0.21609782178218
 1 -2.06069069206921  0.90109835383538  0.26240233323332
 1  0.37757805680568  1.92034746174617  0.66142815281528
 1  0.14750653565357 -1.19029919391939 -0.23571524552455

