%nproc=4
%Mem=2GB
# td=(NStates=1) CAM-B3LYP/6-31G(d,p) 

TD

0 1
 8  14.63656918191819 -2.35741867496750 -0.21600852385239
 8 -14.78747381138114  1.79215452055206  1.02389192019202
 6  11.12242458845884 -1.53961651375138  1.05352151315132
 6 -12.34247941194119 -1.09269088698870  0.60960460446045
 6  12.53718728472847 -1.98736803290329  1.05370026202620
 6 -13.64953167216722 -0.36773479337934  0.66052886488649
 6  13.20045808480848 -2.02631495359536 -0.32780632563256
 6 -13.49157845084508  1.12313097419742  0.95201645264526
 6  10.90240956795680 -0.30445807280728  0.06528323532353
 6 -11.23501986598660 -0.27090809770977 -0.13644132013201
 6  13.23296378737874 -0.59477796289629 -0.79889264326433
 6 -12.69086152415241  1.78356136323632 -0.20096944994499
 6  11.86074194319432  0.04521490439044 -0.79143178617862
 6 -11.36612720772077  0.96023265236524 -0.51499349534953
 6  10.71391243224322 -1.27786322732273  2.45119850385039
 6  10.23275389538954 -2.74113188118812  0.39605299529953
 6 -11.91111291729173 -1.33522321422142  2.05611174217422
 6 -12.57660415541554 -2.55033625552555  0.06747800980098
 6  9.59250449144914  0.22345129812981  0.12301626162616
 6 -10.04032960496050 -1.05307804970497 -0.44908619361936
 6  11.72278815881588  1.24395956985699 -1.67681967196720
 6 -10.50071835983598  1.67232670977098 -1.46291318131813
 6  9.36868077307731  1.59026526952695  0.15697233723372
 6 -8.74694609160916 -0.55931788068807 -0.23518862086209
 6  8.15144424942494  2.39524550755075  0.18900967596760
 6 -7.49065709970997 -1.23695202310231 -0.49203537253725
 6  8.22159394339434  3.80173902890289  0.48079226322632
 6 -7.65933423042304 -2.69215879277928 -0.87953663866387
 6  6.87511748274827  1.73676261726173 -0.00018250325033
 6 -6.32790548754875 -0.60042830473047 -0.44718364336434
 6  5.55090580458046  2.28670290829083  0.09036600560056
 6 -5.10411895789579 -0.99069614251425 -0.65588246624662
 6  4.41820060606061  1.43157935193519 -0.16084816981698
 6 -3.95779707670767 -0.17698992299230 -0.41567438243824
 6  3.10598808980898  1.89157354835484 -0.06111199519952
 6 -2.62030748674867 -0.61746182518252 -0.65516387138714
 6  2.80193176017602  3.23394108610861  0.34660231823182
 6 -2.29456822482248 -2.04065755775578 -1.08505973197320
 6  2.08167725672567  0.94133619761976 -0.22235291529153
 6 -1.60217217721772  0.29310719971997 -0.29963391439144
 6  0.73090991999200  1.16640945494549 -0.07121579357936
 6 -0.21553142314231  0.07339973997400 -0.34785575557556
 1  13.07563614361436 -1.35907931803180  1.72907859685969
 1  12.71682518151815 -2.95235844994499  1.41642932693269
 1 -14.09245221822182 -0.77661510341034  1.48569949094910
 1 -14.33025652065206 -0.36975484738474 -0.25046690269027
 1  12.71716272327233 -2.84436374347435 -1.06507706570657
 1 -12.92176260826083  1.36154013611361  1.86026376037604
 1  13.90272485948595  0.01889446734673 -0.24724990599060
 1  13.60401595859586 -0.69410476757676 -1.96028875987599
 1 -13.35502071107111  1.67841290139014 -1.14775751875188
 1 -12.33135910891089  2.86145116521652 -0.13374233823382
 1  10.65565825482548 -2.16770519951995  3.09421411741174
 1  9.63342166916692 -0.86259605860586  2.76101285628563
 1  11.33680742274227 -0.59727859495950  2.93900728672867
 1  10.50174643764377 -2.80196497049705 -0.74480116311631
 1  10.35261426432643 -3.75118376137614  1.00314975497550
 1  9.14669198619862 -2.48842015001500  0.35793251425142
 1 -11.86087777377738 -0.34131662556256  2.62865316231623
 1 -10.88371121012101 -1.46843938783878  2.12189597359736
 1 -12.67950884388439 -1.89032645254525  2.39024960496050
 1 -13.22108255725573 -3.06973566946695  0.71949008000800
 1 -11.61152638763877 -3.16279286818682  0.17285018301830
 1 -12.88418627762776 -2.44280347224722 -1.01988473047305
 1  8.87827973097310 -0.43749816081608  0.49764688568857
 1 -10.11270603560356 -1.99927699159916 -0.80102390439044
 1  10.67287857985798  1.13614828482848 -1.94502656165617
 1  11.93664949394939  2.22796373927393 -1.08654426242624
 1  12.42406407640764  1.23938479337934 -2.68158084708471
 1 -10.98261266226623  2.54320988508851 -2.07796851785178
 1 -9.68030400840084  0.84786880598060 -2.15840180718072
 1 -9.65804998899890  2.19452210631063 -1.11429458545855
 1  14.88390751875188 -3.36728205530553  0.23265154515452
 1 -15.14454914791479  1.63968126822682  1.94956605260526
 1  10.38460437943795  2.17433434143414  0.15041186618662
 1 -8.49250398639864  0.44230883198320  0.38152752675268
 1  9.16182386938694  4.33024640664066  0.35532137313731
 1  7.53586997399740  4.18019288028803 -0.11134748074807
 1  7.69200846084608  3.99686075407541  1.50198703670367
 1 -8.32528532253225 -3.35840049794980 -0.37951324032403
 1 -7.73845821682168 -2.68149815271527 -2.13375526452645
 1 -6.56940271227123 -3.13110765066507 -1.00813624762476
 1  7.00791664666467  0.69107232223222 -0.35470334533453
 1 -6.30200717671767  0.45031252635264 -0.20075520052005
 1  5.48417612261226  3.46547221922192  0.39640614961496
 1 -4.96915738673867 -2.02678035603560 -0.72457860786079
 1  4.68542173517352  0.50506525252525 -0.52709477747775
 1 -4.20207161116112  0.76925629762976 -0.17502622162216
 1  2.82632826082608  3.24471636163616  1.57108034903490
 1  1.76835509650965  3.54163514551455  0.12092669466947
 1  3.50032541254125  4.10403702870287  0.10205714771477
 1 -2.22535365036504 -2.76473876587659 -0.02701036603660
 1 -3.23472218521852 -2.66786384838484 -1.73956269826983
 1 -1.17226761176118 -2.23718126812681 -1.67609615261526
 1  2.35821718471847 -0.10700398139814 -0.48120433243324
 1 -1.81980660366037  1.40210845484548  0.03116920992099
 1  0.34513481248125  1.96354178117812  0.52438444844484
 1  0.09496128112811 -1.00192035603560 -0.84069574357436

