%nproc=4
%Mem=2GB
# td=(NStates=1) CAM-B3LYP/6-31G(d,p) 

TD

0 1
 8  14.64023954895490 -2.45426835993599 -0.45895281828183
 8 -14.95129019301930  1.79096440154015  0.73249278027803
 6  11.16062840884088 -1.49330188228823  1.01275743674367
 6 -12.38706387038704 -1.07133875177518  0.59504314831483
 6  12.75363892989299 -1.88611790789079  0.93820871287129
 6 -13.64819153815382 -0.27954597449745  0.65742855485549
 6  13.30729876887689 -1.98205052715272 -0.38867241224122
 6 -13.61471076407641  1.16244490559056  0.90152140314031
 6  11.01108043504350 -0.24604223122312  0.05221192819282
 6 -11.37262362636264 -0.29907091399140 -0.21005868186819
 6  13.30466095709571 -0.58879736483648 -1.08696145014501
 6 -12.87797023502350  1.93372637973797 -0.17830718371837
 6  11.91383725272527  0.02170255315532 -0.96553919691969
 6 -11.66943753875388  1.03443007210721 -0.65187718371837
 6  10.83591463246325 -1.14312975397540  2.48286167016702
 6  10.24963558355836 -2.60624839283928  0.55775916591659
 6 -11.90751255725572 -1.24380407230723  2.01590772177218
 6 -12.67611410641064 -2.43102432433243 -0.10968970697070
 6  9.67625286628663  0.41769072207221  0.23804776477648
 6 -10.07161273327333 -0.96015875777578 -0.45283656865687
 6  11.77077295729573  1.25345051895190 -1.94849683968397
 6 -10.64533282128213  1.79750922802280 -1.54685157515752
 6  9.41607551255126  1.71791803480348  0.09031567156716
 6 -8.74628602560256 -0.50854280318032 -0.40875597759776
 6  8.05602470747075  2.39198518151815  0.14645542054205
 6 -7.46223425742574 -1.26416474437444 -0.64834100310031
 6  7.91972375637564  3.90324917991799  0.40961514551455
 6 -7.59099739673967 -2.65490506740674 -0.84491317631763
 6  6.84419439043904  1.51592053305331  0.11905942094209
 6 -6.26262895989599 -0.60423868576858 -0.38712763776378
 6  5.66307702170217  2.09017325532553  0.25418238723872
 6 -4.99714826082608 -1.11528860176018 -0.47176405440544
 6  4.55987477347735  1.41950814481448  0.00251816681668
 6 -3.95144644164416 -0.34106633063306 -0.24428724372437
 6  3.19165665666567  1.77530192119212  0.26516063206321
 6 -2.53755921192119 -0.75443552255226 -0.41804015901590
 6  2.84318588558856  3.05538323032303  0.59273693169317
 6 -2.28161692969297 -2.15842933493349 -0.90505173117312
 6  2.20847993699370  0.77436950095010  0.01199051905191
 6 -1.55932789278928  0.17011490049005 -0.17018096909691
 6  0.76626345534553  0.92056487048705  0.07581890989099
 6 -0.24257412741274 -0.07454505450545 -0.27962893289329
 1  13.24775335533553 -1.11081449154915  1.36760244924492
 1  12.83797729672967 -2.81821503560356  1.51845952995299
 1 -14.52421539453946 -0.72309975187519  1.43086400740074
 1 -14.20745424042404 -0.42506037793779 -0.32268412441244
 1  12.76069707670767 -2.68765807290729 -1.12840339833983
 1 -13.35187561956196  1.38754273637364  2.01619935393539
 1  14.19357394439444 -0.17231465356536 -0.43396857785779
 1  13.51598715571557 -0.92520787788779 -2.05151788278828
 1 -13.48164337333733  2.20938599869987 -1.03547629062906
 1 -12.51871784478448  2.80651567166717 -0.04374333833383
 1  11.19193188218822 -1.74105253425342  3.12074677067707
 1  9.64186251325133 -0.77566736573657  2.47040379537954
 1  11.51215495749575 -0.31207007410741  2.73708709470947
 1  10.75898216121612 -2.97228200220022 -0.35879256225623
 1  9.96625562846285 -3.47653629662966  1.40005944594459
 1  9.29027634463446 -2.16769807780778  0.13543026402640
 1 -11.78357004300430 -0.19125161906191  2.45918621562156
 1 -10.85674851385139 -1.64638718261826  1.87278106210621
 1 -12.41188208120812 -2.27725514541454  2.43691427142714
 1 -13.41245169416942 -2.59414811071107  0.47926605760576
 1 -11.89054428942894 -3.13470005890589 -0.16066316831683
 1 -12.72122998199820 -2.28729792169217 -1.15952869486949
 1  8.82151405440544 -0.19165357635764  0.37589471047105
 1 -10.03278804380438 -2.13235029892989 -0.39691349334933
 1  10.70361165316532  1.44193886388639 -2.19537159615962
 1  11.92711854085409  2.32975391829183 -1.60918652665266
 1  12.45541721172117  1.14510536543654 -2.86342903190319
 1 -11.36212061306131  2.09955551965196 -2.37230795179518
 1 -9.71827780578058  1.04106812591259 -1.80503647064706
 1 -10.18056224022402  2.53437609170917 -0.91307446344634
 1  14.66378550655065 -3.33614894199420 -0.10282200220022
 1 -15.16399109210921  1.96486378647865  1.88287938393839
 1  10.40652657165717  2.29702661066107  0.11976880188019
 1 -8.46852158815882  0.42971757285729 -0.17038766476648
 1  8.98209589658966  4.28213159515952  0.37538337933793
 1  7.50776716371637  4.32472733373337 -0.41148749474948
 1  7.28642790279028  3.98904997299730  1.45041187918792
 1 -8.34873766776678 -3.30010466836684 -0.12688797779778
 1 -8.12671704270427 -2.68182818571857 -1.85000688968897
 1 -6.60266603860386 -3.19048358825883 -1.03466890089009
 1  7.11931778677868  0.40075329032903 -0.02850072507251
 1 -6.19612658865887  0.49563705880588 -0.15233035803580
 1  5.51096880188019  3.26959263126313  0.21215772477248
 1 -4.84086455745575 -2.11543922192219 -0.89992614261426
 1  4.65135832883288  0.33873861986199 -0.11249331733173
 1 -4.00054145814581  0.70223959595960 -0.01021974097410
 1  3.04781040904090  3.39306119611961  1.68366160716072
 1  1.71633989498950  3.60144112611261  0.43914851685169
 1  3.33789916991699  3.95164178917892  0.03620056205621
 1 -2.73139425442544 -2.79118141014101 -0.29584724972497
 1 -2.49646835983598 -2.33207026902690 -1.98381712371237
 1 -1.20632101710171 -2.40039758975898 -0.99594813781378
 1  2.63263462646265 -0.33946722772277 -0.11229744174417
 1 -1.78950357335734  1.07632587658766  0.56295238823882
 1  0.52603290229023  1.95129055605561  0.36922893289329
 1  0.14892667766777 -0.98598876287629 -0.63838551255125

