%nproc=4
%Mem=2GB
# td=(NStates=1) CAM-B3LYP/6-31G(d,p) 

TD

0 1
 8  14.66712223722372 -2.28766169926993  0.05440851785179
 8 -14.83867893189319  1.77110241534153  1.05279481048105
 6  11.14834718071807 -1.49151170327033  0.97139330033003
 6 -12.42184734873487 -1.06261787968797  0.59352299629963
 6  12.66295986198620 -1.77130642674267  1.19712460446045
 6 -13.70525724472447 -0.36248426832683  0.59366217821782
 6  13.31454949394940 -1.89968229032903 -0.16485003000300
 6 -13.54750404340434  1.16298495959596  1.00731198219822
 6  10.91537086408641 -0.31353898089809  0.01078778577858
 6 -11.28859522352235 -0.24181518841884  0.00074239823982
 6  13.26279677067707 -0.56670515561556 -0.87515026902690
 6 -12.70630306830683  1.81272427952795 -0.03390274327433
 6  11.95235110411041  0.11436181908191 -0.78900154315432
 6 -11.51779237423742  1.05574220332033 -0.41144314031403
 6  10.69346038703870 -1.15810125112511  2.35820920492049
 6  10.37251787178718 -2.71060882888289  0.43881727172717
 6 -11.91894370037004 -1.47722741464146  2.03442957395740
 6 -12.65984247924792 -2.36363758565857 -0.27990672867287
 6  9.68713395439544  0.42515146814681  0.05288924892489
 6 -10.08259383138314 -0.87321006290629 -0.46137742274227
 6  11.81674755475548  1.27370254415442 -1.87782977297730
 6 -10.57696598459846  1.79043852095209 -1.33665055505551
 6  9.35548945394540  1.68389463246325  0.08014465446545
 6 -8.81731312831283 -0.44707665656566 -0.34499960196020
 6  8.04561366636664  2.34202018501850  0.07107788278828
 6 -7.58004603860386 -1.15051337923792 -0.52263843284328
 6  7.98759054305431  3.70986984198420  0.47919210321032
 6 -7.60636893389339 -2.47270684758476 -0.98104678967897
 6  6.91975194619462  1.56312525352535 -0.15040752575258
 6 -6.38721141814181 -0.54627288918892 -0.40159908490849
 6  5.62908362236224  2.00209444744474  0.02640960996100
 6 -5.08964751075108 -1.03704077697770 -0.56053293129313
 6  4.49699848584858  1.16842303630363 -0.12808489348935
 6 -3.87836913391339 -0.29968219221922 -0.39058187318732
 6  3.24568205920592  1.64934932593259  0.13507762376238
 6 -2.59884534053405 -0.73205328432843 -0.56890524552455
 6  2.86118768576858  3.14409210121012  0.37088474647465
 6 -2.37030579857986 -2.13069656165617 -0.86054728072807
 6  2.15844493349335  0.71171323532353 -0.12277295729573
 6 -1.54845680568057  0.22833072207221 -0.36503045404540
 6  0.75311214021402  1.02497531153115 -0.20215888788879
 6 -0.17208707870787 -0.00245784578458 -0.49342031203120
 1  13.19577815781578 -1.00405381548155  1.63602929192919
 1  12.67849134813481 -2.78754196829683  1.76398408240824
 1 -14.63003597659766 -0.74848229012901  1.18450937193719
 1 -14.04080757575758 -0.47125499739974 -0.48073992999300
 1  12.70665167216722 -2.69252855995600 -0.83871442944294
 1 -13.17361779377938  1.03642762486249  1.95767350135014
 1  14.15858044504450 -0.00854827692769 -0.40820600160016
 1  13.45667122412241 -0.72396775387539 -1.88362109310931
 1 -13.28326353535353  2.00042510261026 -0.78667141014101
 1 -12.21722769576958  2.86179119921992  0.38276931293129
 1  10.79137182618262 -1.89886831583158  3.15321001700170
 1  9.70158848584859 -0.88012781178118  2.55724247924792
 1  11.04344808680868 -0.26851571867187  2.76204959095910
 1  10.92167843084309 -2.90406518051805 -0.56392307530753
 1  10.47919692259226 -3.69924856785679  1.25112455245525
 1  9.34050136713671 -2.49948125612561  0.12872959395940
 1 -11.69805149114912 -0.48729122302230  2.47672796979698
 1 -11.13321616061606 -2.30600314421442  2.02817660166017
 1 -12.69791068406841 -2.19529694959496  2.48610919091909
 1 -13.38044849384938 -3.04614331023102  0.10152828382838
 1 -11.67819305430543 -3.05045163406341 -0.31313841584158
 1 -12.98968682768277 -2.14926411831183 -1.21369411141114
 1  8.85732763576358 -0.15428983998400  0.50374749574958
 1 -10.16184094909491 -2.03606066996700 -0.50538434043404
 1  10.77800909290929  1.66451112111211 -2.10652271127113
 1  12.17931376037604  2.22983392629263 -1.50289589758976
 1  12.37968963896390  0.89285013991399 -2.71912460146015
 1 -11.15889029002900  2.53764932903290 -1.89818053905391
 1 -10.18025400340034  0.97281130023002 -2.17934390139014
 1 -9.73970815481548  2.40578323242324 -0.71683483948395
 1  14.51670079807981 -3.28753408050805  0.20705898589859
 1 -15.34145883888389  1.23165046514651  1.61484258025803
 1  10.21780769976998  2.45379228722872  0.05945277027703
 1 -8.68411314731473  0.61363596469647 -0.12326295229523
 1  8.92737042404240  4.29001238323832  0.51372721372137
 1  7.48161454845485  4.33116797779778 -0.30957730373037
 1  7.26748600860086  3.67964903290329  1.34042088008801
 1 -7.88523131713171 -3.19990464836484 -0.25377066606661
 1 -8.31064543554355 -2.50987098999900 -1.78513040204020
 1 -6.53733950595060 -2.75612015191519 -1.52456789078908
 1  6.96094194919492  0.59270248524852 -0.48511638663866
 1 -6.31332830883088  0.49347684278428 -0.01629675467547
 1  5.54929263426343  3.12157782978298  0.18644515351535
 1 -5.04808527952795 -2.01701937993799 -0.98160431043104
 1  4.51917511051105  0.11768651465147 -0.31421348934894
 1 -3.94089549354935  0.96015538753875 -0.35093381238124
 1  3.80381600960096  3.65911780178018  1.13598683968397
 1  1.74505276627663  3.00329131113111  1.09671427342734
 1  2.78782416241624  3.87120374537454 -0.63640669866987
 1 -2.62281339633963 -2.85645793779378  0.11178351335134
 1 -3.06344505750575 -2.52592965496550 -1.67188593059306
 1 -1.39866025102510 -2.44961251125113 -1.28940748374837
 1  2.40188155115512 -0.11203448444844 -0.30817702970297
 1 -1.79399402240224  1.29692793679368 -0.00317422442244
 1  0.39108940794079  2.01577700470047 -0.18671666166617
 1  0.02568435343534 -1.00548071207121 -0.80732240624062

