%nproc=4
%Mem=2GB
# td=(NStates=1) CAM-B3LYP/6-31G(d,p) 

TD

0 1
 8  14.81364688968897 -2.14987792089209 -0.30194711771177
 8 -14.72231729572957  2.05194049914992  0.84513404440444
 6  11.26743908990899 -1.43849640174017  0.88741490249025
 6 -12.44389955395540 -1.04179579747975  0.49000264426443
 6  12.80499406540654 -1.55831512761276  1.08415330733073
 6 -13.76107282628263 -0.17729574947495  0.42811562356236
 6  13.41872991199120 -1.78758108020802 -0.31016456145615
 6 -13.53973326632663  1.21181984308431  0.86351760276028
 6  10.96017534453445 -0.22603023002300 -0.09074236723672
 6 -11.22306867086709 -0.18098910581058 -0.23566124212421
 6  13.35108559955995 -0.52645113021302 -1.09602235623562
 6 -12.63327576557656  1.90391339843984 -0.15466481948195
 6  11.87849371837184  0.11113149604960 -1.05640828382838
 6 -11.43428402340234  1.04276090519052 -0.53625562156216
 6  10.76535757675768 -0.93141858285829  2.34439782378238
 6  10.48571919191919 -2.69588735673567  0.50883427342734
 6 -11.98912071807181 -1.34087377927793  1.94413054405441
 6 -12.63914040904090 -2.38184940684068 -0.20325906390639
 6  9.60639588058806  0.39991894489449  0.09459341934193
 6 -10.00852642464247 -0.92058480038004 -0.48707999299930
 6  11.60196607660766  1.23741891579158 -2.07597958795880
 6 -10.51450973897390  1.86861633873387 -1.46823371337134
 6  9.35097900290029  1.71546778977898 -0.06431979197920
 6 -8.78744014101410 -0.50019196809681 -0.37331243324332
 6  7.98527763276328  2.24020000300030  0.12830360536054
 6 -7.64262229622962 -1.24955328322832 -0.56003217221722
 6  7.86651843584358  3.66578543354335  0.45588977297730
 6 -7.74000229722972 -2.67897747464747 -0.95221390639064
 6  6.90501047204720  1.40969991099110  0.08664617961796
 6 -6.40435313231323 -0.59072733463346 -0.29923884888489
 6  5.56061677567757  1.91884612261226  0.32961993099310
 6 -5.04791333733373 -1.12786985988599 -0.39003588158816
 6  4.44684347034703  1.17439363336334  0.09141705670567
 6 -3.96775807280728 -0.38871109510951 -0.34727754275428
 6  3.08368585958596  1.56222061306131  0.29532364836484
 6 -2.60029548554855 -0.82303238223822 -0.36650500550055
 6  2.79238080508051  3.02225991799180  0.82976063406341
 6 -2.39936870487049 -2.23025651765177 -0.64865609160916
 6  2.17099618861886  0.65454751875188 -0.04902558255826
 6 -1.58173013301330  0.08232612161216 -0.13608755975598
 6  0.77111394039404  0.78842165616562  0.03107443544354
 6 -0.12910278027803 -0.23541114111411 -0.15120609060906
 1  13.49693827382738 -0.98436184628463  1.53981967096710
 1  13.02252575157516 -2.61710492459246  1.67066475047505
 1 -14.62451542454246 -0.50636807870787  0.97389831083108
 1 -14.13557705270527  0.08192032013201 -0.56673852985298
 1  12.82996400340034 -2.55643495059506 -0.88657921592159
 1 -12.98436886888689  1.53529751185119  1.73525125912591
 1  14.19337392439244 -0.09105652775277 -0.68059324032403
 1  13.56416197319732 -0.68734409150915 -2.10652338333833
 1 -13.15816102510251  2.20489554965497 -1.19679242224222
 1 -12.25579155215522  3.02492751285128  0.06471750775078
 1  11.02624531353135 -1.63095152415242  3.21158585458546
 1  9.49430775777578 -0.81997179617962  2.32527928292829
 1  11.10182392439244  0.08488962186219  2.66968035403540
 1  11.03329959295930 -2.97000177417742 -0.49141582458246
 1  10.62752175507551 -3.60694933793379  1.31070051005101
 1  9.49890720772077 -2.40204151215122  0.43436015701570
 1 -12.11301298729873 -0.25797829172917  2.42257255425543
 1 -10.99111195019502 -1.83881642554255  1.96740052405241
 1 -12.86408730173017 -2.04142156205621  2.29839041904190
 1 -13.69274972397240 -2.74844354025403 -0.06048791779178
 1 -11.76017125212521 -2.99092568146815  0.09341223922392
 1 -12.50758861786178 -2.21921111301130 -1.34331707370737
 1  8.88285018801880 -0.30854526552655  0.39997711871187
 1 -10.26105087008701 -1.83542060596060 -0.79699350135013
 1  10.56805809780978  1.53166783678368 -1.95850790979098
 1  12.05111094009401  2.04800574347435 -1.76067167516752
 1  12.18680035003500  1.03708456335634 -2.79814250325032
 1 -11.21686608760876  2.47661322542254 -2.25551627262726
 1 -9.90909688768877  1.09708372747275 -2.03609957695770
 1 -9.93002718671867  2.39286194029403 -0.88528168416842
 1  14.92827195519552 -3.05096042314231 -0.14083580358036
 1 -15.36703139613961  1.86931423152315  1.49145024102410
 1  10.23882980198020  2.39923683168317 -0.08923209820982
 1 -8.74419915591559  0.70798539963996  0.03323269726973
 1  8.70500818781878  4.19600298229823  0.56429227022702
 1  7.43973036003600  4.17618247924792 -0.49164551055106
 1  7.06344560456046  4.08944001200120  1.30546738473847
 1 -7.96360915491549 -3.46079073697370 -0.10263555255526
 1 -8.45485985698570 -2.83549355225523 -1.86676856585659
 1 -6.83424919691969 -3.21976651655166 -1.11569700370037
 1  6.90932678767877  0.42942615761576 -0.22180005500550
 1 -6.33690066606661  0.49132662776278  0.07255213021302
 1  5.36212391739174  2.92024769676968  0.67096360536054
 1 -5.13095356635664 -2.13275095309531 -0.90996714671467
 1  4.42593578657866  0.08087283328333 -0.37860992899290
 1 -4.14632603660366  0.61885125712571 -0.08247696669667
 1  3.82564819281928  3.11595348534853  1.67206044704470
 1  1.62135039603960  2.96574755675568  1.48411301330133
 1  2.63456883688369  3.90380700570057  0.08990593259326
 1 -2.83358447344734 -2.88188048004801  0.14314664966497
 1 -2.89669838283828 -2.30750781278128 -1.58263700570057
 1 -1.27964834983498 -2.61274882488249 -0.92758130113011
 1  2.61278264126413 -0.40568384938494 -0.40319653165316
 1 -1.83847847084709  1.18719696369637  0.10676676967697
 1  0.53638393739374  1.88426385338534  0.18369037903790
 1  0.13670545554555 -1.35822598659866 -0.51113278727873

