%nproc=4
%Mem=2GB
# td=(NStates=1) CAM-B3LYP/6-31G(d,p) 

TD

0 1
 8  14.62974849984999 -2.33803673677368 -0.77986490949095
 8 -14.84540960496050  1.85141044614461  0.49219875087509
 6  11.27409975597560 -1.58540109220922  0.80940710171017
 6 -12.37707287128713 -1.01110272817282  0.50882452645265
 6  12.74841840784078 -1.82824212031203  0.79894478647865
 6 -13.69615633463346 -0.39816783668367  0.44002681468147
 6  13.32418045704570 -1.94352667476748 -0.61722526752675
 6 -13.57602689568957  1.14287294839484  0.55709696069607
 6  11.00545987298730 -0.23395102210221 -0.01082437543754
 6 -11.27141350535054 -0.31024203110311 -0.28822649864986
 6  13.25964645564556 -0.51011949704970 -1.15830858485849
 6 -12.80229266726673  1.76211921902190 -0.49114846784678
 6  11.84338020702070  0.05410579347935 -0.99127177017702
 6 -11.51036163116312  0.86495312441244 -0.74105610161016
 6  10.89897093809381 -1.22190763176318  2.35851923592359
 6  10.30492111211121 -2.70421818981898  0.47251064106411
 6 -11.99961176717672 -1.05010470237024  2.08419455045505
 6 -12.59575607060706 -2.43549477137714 -0.01829056705671
 6  9.66477171817182  0.42028098109811  0.20537449744974
 6 -10.04917048904890 -0.98423116501650 -0.44074535953595
 6  11.46797267726773  1.14534970887089 -1.97165915591559
 6 -10.50711899989999  1.55501497859786 -1.73595048504850
 6  9.35713961896190  1.72306854985499  0.01062770277028
 6 -8.72981437843784 -0.42319426832683 -0.33722882488249
 6  8.10848995399540  2.35563154615462  0.21277205220522
 6 -7.54881291529153 -1.15368369626963 -0.37795396439644
 6  8.03773555755576  3.78100695569557  0.60478466246625
 6 -7.60427872487249 -2.58342791969197 -0.92511119611961
 6  6.83140311131113  1.59578851985198  0.11136865186519
 6 -6.34056675367537 -0.52635089698970 -0.24854377937794
 6  5.61480219421942  2.11596583458346  0.40920788978898
 6 -5.00967951395140 -1.08148522142214 -0.35387226522652
 6  4.48081686768677  1.30974716871687  0.25637355235524
 6 -3.96621791879188 -0.29157138113811  0.02965015001500
 6  3.14313180418042  1.68061245224522  0.42973708970897
 6 -2.61572702870287 -0.70124020302030 -0.09286764176418
 6  2.87224879187919  3.20006769876988  0.67451510951095
 6 -2.39167793579358 -2.10424391639164 -0.53888511451145
 6  2.11564065306531  0.76011807580758  0.14246356635664
 6 -1.52621458145815  0.19547743674367  0.12994904390439
 6  0.78016484548455  0.98509132313231  0.16782811081108
 6 -0.13814368436844 -0.02892049204920 -0.08857982798280
 1  13.40404898489849 -1.18869227932793  1.29206489548955
 1  12.78968246724672 -2.76835004910491  1.26675435943594
 1 -14.34171714471447 -0.69799724162416  1.29409033003300
 1 -14.30551404640464 -0.52494036593659 -0.54800665666567
 1  12.42056306330633 -2.67511681878188 -1.18140869886989
 1 -13.20108054005400  1.29372335443544  1.43763149714971
 1  13.86535112211221 -0.05285270737074 -0.41189637063706
 1  13.56289184618462 -0.35706106320632 -2.18089082008201
 1 -13.22562777177718  1.85565062516252 -1.57299004200420
 1 -12.53028900190019  2.70356537663766 -0.13025198919892
 1  11.65748843784378 -1.94471290029003  2.95952064806481
 1  9.66317464446445 -1.09093889288929  2.67855461046105
 1  11.53196693869387 -0.32773164026403  2.45562894889489
 1  10.30663692669267 -3.14423919791979 -0.66920360336034
 1  10.58470747364736 -3.62825146814681  0.99678911891189
 1  9.34072138913891 -2.31744305230523  0.77927464846485
 1 -12.02012369836984 -0.14743723762376  2.42201249824982
 1 -11.03085592459246 -1.67439998389839  2.20487427142714
 1 -12.58975986898690 -1.62266968686869  2.56193677367737
 1 -13.46567701670167 -2.87835653155316  0.40976910791079
 1 -11.62187742274227 -2.93069965886589  0.15148804680468
 1 -12.69873773277328 -2.32862205410541 -1.15390813281328
 1  8.89824172717272 -0.26320073107311  0.66949407040704
 1 -9.99279404440444 -2.20024708860886 -0.47737153915392
 1  10.51895318731873  1.11898656865687 -2.48606066506651
 1  11.94570039903990  2.14761570447045 -1.78297390539054
 1  12.26607827782778  0.92579343424342 -2.94241693069307
 1 -11.03782818381838  1.97961352545255 -2.70371109210921
 1 -9.74398037603760  0.85683970307031 -2.17774374137414
 1 -9.87193137713771  2.37919057315732 -1.35606876287629
 1  14.99941906990699 -3.14394972207221 -0.24500622062206
 1 -15.70973566656666  1.44647194729473  1.03759485548555
 1  10.21409732873287  2.48988589658966 -0.05055823082308
 1 -8.61401613761376  0.78669327042704 -0.14287491349135
 1  9.00735842284228  4.29167254925493  0.93927976897690
 1  7.48499488648865  4.19990485148515 -0.18348469446945
 1  7.23430269026903  3.83486455445545  1.49176601460146
 1 -8.14779757375738 -3.29302396029603 -0.05842113111311
 1 -8.28829320032003 -2.78671867476748 -1.81031292029203
 1 -6.49070484248425 -2.86071061096110 -1.03892932693269
 1  6.91984783978398  0.43719693469347 -0.04436231123112
 1 -6.42717969396940  0.60666816191619 -0.06586171117112
 1  5.36961466646665  3.14907057905791  0.42150865986599
 1 -4.88647911891189 -1.99138681668167 -0.78205435543554
 1  4.81484467746775  0.25924067006701 -0.09110117811781
 1 -4.23964536853685  0.85207457945795  0.20548182918292
 1  3.87321294929493  3.65723761376138  1.44272751375138
 1  1.80709897089709  3.38108909090909  1.09817441944194
 1  3.14463984398440  3.85753237823782 -0.16602966096610
 1 -2.77600871587159 -2.85005729772977  0.15390772577258
 1 -2.97535624862486 -2.19008607060706 -1.39520826282628
 1 -1.36415680068007 -2.10376792679268 -0.71045958895890
 1  2.27639900290029 -0.28735201620162  0.06377016501650
 1 -1.78173279627963  1.16928517251725  0.27030312331233
 1  0.58091839083908  2.00434586158616  0.39676168616862
 1  0.12688447344734 -1.13101326532653 -0.20660233423342

