%nproc=4
%Mem=2GB
# td=(NStates=1) CAM-B3LYP/6-31G(d,p) 

TD

0 1
 8  14.63099862486249 -2.27608054115412 -0.13438036103610
 8 -14.92842790679068  1.68283358845885  0.87123665466547
 6  11.14995734173417 -1.44532708480848  0.94216037703770
 6 -12.40501566556656 -1.14125574347435  0.55800944494449
 6  12.59429299529953 -1.91771106720672  1.06330122212221
 6 -13.73477019601960 -0.38410643054305  0.60858367036704
 6  13.30489852885289 -1.99341166326633 -0.22351589658966
 6 -13.63345263826383  1.11289995109511  0.87299855085509
 6  10.89712903990399 -0.26423405040504  0.05560226722672
 6 -11.29077544154415 -0.31948295519552 -0.11982965896590
 6  13.28696918791879 -0.63517200230023 -0.85416817081708
 6 -12.74016645464546  1.74754776187619 -0.18466781978198
 6  11.81434730373037  0.11404178707871 -0.73744638763876
 6 -11.53488408340834  0.96457308640864 -0.52866486248625
 6  10.57897893889389 -1.27581302230223  2.43094647864786
 6  10.26351697169717 -2.68476624462446  0.46420981098110
 6 -11.92119392539254 -1.51766145804580  2.04556068706871
 6 -12.64707120212021 -2.44939616151615 -0.12617135513551
 6  9.65737097809781  0.32124107710771  0.21875583558356
 6 -10.03784935693569 -0.97090983288329 -0.35852713771377
 6  11.71948782878288  1.24032920682068 -1.74855684568457
 6 -10.64831311931193  1.92455193229323 -1.24942183218322
 6  9.41430533553355  1.62675891889189  0.01229786978698
 6 -8.77000839783978 -0.41395334423442 -0.18370347234723
 6  8.09915902090209  2.27577356035604  0.04468524352435
 6 -7.49023705770577 -1.01241956985699 -0.43794996399640
 6  8.04505628962896  3.85420427542754  0.42862704670467
 6 -7.54396269326933 -2.37160673757376 -0.96965565056506
 6  6.94712468346835  1.58384732573257 -0.06526901190119
 6 -6.28883158015802 -0.42524078597860 -0.17909683468347
 6  5.61887260126013  2.12482672067207  0.06176314531453
 6 -4.96957550355036 -0.95103217611761 -0.43275015301530
 6  4.48577736373637  1.26703289728973 -0.11462354735474
 6 -3.82481377837784 -0.22632485648565 -0.28985180018002
 6  3.23785127612761  1.66508089908991  0.04128824482448
 6 -2.54159961596160 -0.71913199219922 -0.54241259625963
 6  2.84284585158516  3.11024871687169  0.31816947494749
 6 -2.18758752675268 -2.11967545954595 -0.96812803880388
 6  2.14888397739774  0.81547361136114 -0.32075275527553
 6 -1.48647060706071  0.26483437243724 -0.41705565656566
 6  0.75106193519352  1.09848266226623 -0.26308498049805
 6 -0.10873074307431  0.01779417941794 -0.46762773277328
 1  13.27598617861786 -1.26788019811981  1.72090777977798
 1  12.52045554455446 -2.84186740084008  1.63339102310231
 1 -14.37325029802980 -0.98637607950795  1.52850377137714
 1 -14.48396189118912 -0.65255312721272 -0.29469132513251
 1  12.77055806280628 -2.56700600770077 -0.98851940994099
 1 -13.14337476947695  1.35653963606361  1.88876661066107
 1  14.09703429042904  0.10528310621062 -0.47187236823682
 1  13.61325688268827 -0.56692204930493 -1.84713744474447
 1 -13.22071728072807  1.83649870997100 -1.15785852885289
 1 -12.36956292929293  2.74739976007601  0.18997003300330
 1  10.88032072107211 -2.40613904290429  3.11554625062506
 1  9.49240756775677 -1.20426022502250  2.44601135613561
 1  10.80170391239124 -0.25868473557356  2.92705609160916
 1  10.38055431843184 -3.07356213021302 -0.58393507650765
 1  10.47456645954595 -3.65936457945795  0.95999543954395
 1  9.16632394939494 -2.38818012601260  0.79644636563656
 1 -12.09327101310131 -0.73934642854285  2.90581087808781
 1 -10.75957879687969 -1.64821736563656  2.17534131813181
 1 -12.57156804980498 -2.51365878577858  2.36112669266927
 1 -13.41992244124412 -3.06737543344334  0.24710284128413
 1 -11.69900513551355 -3.15921251015102 -0.31367846984698
 1 -12.90249810881088 -2.14124331623162 -1.24860760276028
 1  8.91015291829183 -0.21169558055806  0.98114523552355
 1 -10.12319708470847 -1.99697676157616 -0.95112891489149
 1  10.61467275927593  1.39978464846485 -2.02264432343234
 1  12.06508233723372  2.29226016891689 -1.43563917191719
 1  12.33874554455445  1.22646350125012 -2.70201289028903
 1 -11.33188758975898  2.31379694379438 -1.91366208720872
 1 -9.89353533153315  1.34894891399140 -1.77439340634063
 1 -10.23143732773277  2.81332398649865 -0.82831598759876
 1  14.58294742274227 -3.14496982408241  0.21137941794179
 1 -15.37473216621662  1.37934523462346  1.76144724072407
 1  10.33586950595060  2.23803071107111 -0.15926910191019
 1 -8.85168990499050  0.63916851795179  0.23963333733373
 1  9.10088777577758  4.13001638363836  0.18307414841484
 1  7.39752613961396  4.14884974597460 -0.44520086608661
 1  7.57610687068707  3.86171723972397  1.50577741574157
 1 -8.14984777877788 -2.98567322522252 -0.24460974997500
 1 -8.09737410841084 -2.34952495539554 -2.01534342334233
 1 -6.72893866586659 -3.08159269916992 -1.16607204120412
 1  6.96116197119712  0.66650986598660 -0.45913378837884
 1 -6.43558053405341  0.50534802990299  0.49849472447245
 1  5.31209891489149  3.17124279627963  0.46448295729573
 1 -4.91106157715772 -1.91705938393839 -0.71663781378138
 1  4.67770096309631  0.31891663766377 -0.44752682068207
 1 -3.79545094909491  0.82200157215722  0.23837511851185
 1  3.65529115711571  3.28203009300930  1.10576381738174
 1  1.66813507450745  3.39540052205221  0.84841944394440
 1  2.99211459145915  3.83969059405941 -0.38940199819982
 1 -2.73798491349135 -2.78925121712171 -0.25557322232223
 1 -2.66666537953795 -2.29132619461946 -1.96161490349035
 1 -0.98986937193719 -2.32421997199720 -0.70406894989499
 1  2.30187155015502 -0.33908718971897 -0.56697290929093
 1 -1.79551417441744  1.32258050205021 -0.19117302430243
 1  0.39194949394939  1.97623305030503 -0.13447143714371
 1  0.29361114611461 -0.98097826182618 -0.64941661566157

