%nproc=4
%Mem=2GB
# td=(NStates=1) CAM-B3LYP/6-31G(d,p) 

TD

0 1
 8  14.55630115511551 -2.33143607670767 -0.15089201220122
 8 -14.75247031103110  1.84722002710271  0.95736526752675
 6  11.02430477647765 -1.47430998309831  0.96601276227623
 6 -12.26584174817482 -0.95742736063606  0.60335397939794
 6  12.53053661966197 -1.83362265836584  1.08274316631663
 6 -13.62328904790479 -0.25856387628763  0.57458027002700
 6  13.24459249824983 -1.94941726382638 -0.25741928692869
 6 -13.48038733173317  1.21817047814781  0.92077332833283
 6  10.96037536453645 -0.21083871087109  0.12157886488649
 6 -11.26682304630463 -0.17671867876788 -0.09002667866787
 6  13.18724921592159 -0.51039952505251 -0.86585933993399
 6 -12.67923036103610  1.91705471257126 -0.24716406940694
 6  11.83088895789579  0.12193257615762 -0.76777942094209
 6 -11.46749734473447  1.03196982608261 -0.51916391239124
 6  10.57085812681268 -1.24769021002100  2.36535991999200
 6  10.25854647464747 -2.70614838283828  0.23574696469647
 6 -11.79077088308831 -1.22774246614661  2.08069420042004
 6 -12.63182967796780 -2.40766198809881 -0.03119185718572
 6  9.60643588458846  0.51905085808581  0.17051101110111
 6 -10.05333090509051 -0.90526326822682 -0.32313359835984
 6  11.70514639463946  1.21299647354735 -1.82184417441744
 6 -10.44463275127513  1.84703418051805 -1.31611850185019
 6  9.37004090909091  1.79972621562156  0.10708734873487
 6 -8.71778317531753 -0.55231718061806 -0.29606470847085
 6  7.96884598959896  2.42969895289529  0.05797657265727
 6 -7.50283831783178 -1.30039836773677 -0.63502967196720
 6  7.83506529052905  3.88588744374437  0.30157434143414
 6 -7.65031332833283 -2.78518809570957 -1.02761144614461
 6  6.88193816481648  1.65258419941994 -0.06727921292129
 6 -6.30373307030703 -0.63704196609661 -0.50276920192019
 6  5.63522423642364  2.11430566856686  0.05698266726673
 6 -4.99367791379138 -1.13739081198120 -0.52736961496150
 6  4.44570335633563  1.28777497149715  0.07263517851785
 6 -3.86264756175618 -0.36969919391939 -0.43435625062506
 6  3.12503999499950  1.65709010001000  0.16276039203920
 6 -2.57104256025603 -0.80992107110711 -0.59717807280728
 6  2.72434400140014  3.07016470847085  0.65285294329433
 6 -2.19458822682268 -2.14214770677068 -1.06746797279728
 6  2.21167025602560  0.68927099109911 -0.16814749474948
 6 -1.54985694569457  0.11258914791479 -0.24129808080808
 6  0.83731056005601  0.89008182218222 -0.04624329632963
 6 -0.17493736373637 -0.06031363136314 -0.30742171217122
 1  13.04467304730473 -1.28778218831883  1.81576726572657
 1  12.45147864686469 -2.98984219831983  1.58490617461746
 1 -14.27668064106411 -0.62080952285229  1.42672359335934
 1 -14.16697019201920 -0.52117998989899 -0.45344720072007
 1  12.80177118411841 -2.62855216231623 -0.99595015301530
 1 -13.01581201320132  1.40427440954095  1.85500323432343
 1  13.87309189618962  0.03270584848485 -0.38388356935694
 1  13.55798135513551 -0.72206756385639 -1.92338506950695
 1 -13.29960516951695  2.03906896699670 -1.06349909290929
 1 -12.42970894389439  2.94137915801580  0.10835187118712
 1  11.18311100010001 -1.88421685068507  3.00257495349535
 1  9.56488481548155 -1.45535533453345  2.53711046604660
 1  10.94756849884988 -0.37901676877688  2.63808719471947
 1  10.58593485648565 -3.13097787178718 -0.65901258425843
 1  10.10353935683568 -3.43548219121912  0.86855629562956
 1  9.15860317731773 -2.69919122712271  0.10257697869787
 1 -11.73727541354135 -0.36880937483748  2.63970426742674
 1 -10.76326916591659 -1.52059460336034  2.03903768776878
 1 -12.39973086608661 -2.02368978887889  2.44876545654565
 1 -13.31506195519552 -2.87512620852085  0.53959209020902
 1 -11.64906014101410 -2.86911350025002  0.02477537553755
 1 -12.89826768576858 -2.29182837473747 -1.12902564456446
 1  8.68360026302630 -0.03708811981198  0.26384350535054
 1 -10.17412217721772 -2.09189625352535 -0.54875867786779
 1  10.61830312231223  1.53708837883788 -2.11284334333433
 1  12.17551338033803  2.17059800270027 -1.45375098309831
 1  12.45066673667367  0.76842769766977 -2.67488017701770
 1 -11.08760316131613  2.67520308440844 -1.68935965696570
 1 -9.81902788078808  1.15490951005100 -1.67155312231223
 1 -9.86699088308831  2.40094274837484 -0.68265142114211
 1  14.82091121912191 -3.01259658675868  0.67257553755376
 1 -15.54486917991799  1.02816011611161  1.23429452545255
 1  10.16786270527053  2.52926983498350 -0.04594776977698
 1 -8.38047278327833  0.53712831393139 -0.00105073107311
 1  8.83475116211621  4.15341872387239  0.33910975197520
 1  7.44434082108211  4.54559942094209 -0.50991733773377
 1  7.36101536153615  3.96294736273627  1.20251708970897
 1 -8.08708150215021 -3.51770642854285 -0.16778206720672
 1 -8.04523889488949 -2.99903990689069 -2.11480336933693
 1 -6.65637140914091 -3.10267480738074 -1.24636007000700
 1  7.11645750075008  0.66337955295530 -0.26521439643964
 1 -6.41084806080608  0.34149164426443 -0.09611473647365
 1  5.68180588558856  3.18900457245725  0.29718622762276
 1 -5.01667213821382 -2.21923960196020 -0.77444359435944
 1  4.88640183318332  0.27634238023802 -0.36069813781378
 1 -4.09158056205621  0.74802417441744 -0.12995171417142
 1  3.22620824882488  3.48736062606261  1.61152439343934
 1  1.70843910491049  2.94674565656566  0.63899850185018
 1  3.16374175417542  3.72160878587859 -0.03781683968397
 1 -2.18379949494949 -2.94159645164516 -0.04884254925493
 1 -3.06549526252625 -2.26951401340134 -1.82000074207421
 1 -1.06970735573557 -2.01177872787279 -1.53651219421942
 1  2.39766112911291 -0.27939122012201 -0.48469468146815
 1 -1.83217784078408  1.08641688568857  0.35748184118412
 1  0.47751805080508  1.91851727872787  0.06020803080308
 1  0.43236502150215 -1.13493365736574 -0.33866554055406

