%nproc=4
%Mem=2GB
# td=(NStates=1) CAM-B3LYP/6-31G(d,p) 

TD

0 1
 8  14.66438196319632 -2.34279721282128 -0.48172509550955
 8 -14.96289135313531  1.70266557165717  0.55832536353635
 6  11.11898424442444 -1.54551710381038  0.90337649864986
 6 -12.28571373537354 -1.00165178307831  0.66076972097210
 6  12.67287085308531 -1.95733502960296  0.78599349134914
 6 -13.67386410541054 -0.37344536443644  0.62117492949295
 6  13.24960299929993 -2.03320564266427 -0.54093763876388
 6 -13.69697899089909  1.14421308240824  0.72972422342234
 6  10.88601792879288 -0.29805743274327 -0.01124441744174
 6 -11.18117448144814 -0.19747075397540 -0.17815549154916
 6  13.18026851785178 -0.49397788288829 -1.09356211021102
 6 -12.90767320532053  1.75843885098510 -0.45344469746975
 6  11.91539740874087  0.17970835373537 -0.78603124612461
 6 -11.55293588858886  1.05238186728673 -0.64277627362736
 6  10.77975901690169 -1.24735017601760  2.37501088508851
 6  10.31719233923392 -2.70629839783978  0.48923231323132
 6 -11.78567037303730 -1.09891958385839  2.17709384038404
 6 -12.49927642264226 -2.48491971387139  0.19871113311331
 6  9.61511675267527  0.38669762276228  0.20272423242324
 6 -9.96542211421142 -0.92917565946595 -0.45356664166417
 6  11.73084896489649  1.37772294619462 -1.67980997099710
 6 -10.59405769376938  1.81707118421842 -1.54030092009201
 6  9.29927383238324  1.73520976397640  0.13214985498550
 6 -8.68154955195519 -0.39768171707171 -0.42939804180418
 6  8.02923202820282  2.30326630963096  0.16350712571257
 6 -7.45649368336834 -1.09142747064706 -0.56094226322632
 6  7.97588937293729  3.78960781578158  0.37722190619062
 6 -7.52040033703370 -2.57634721162116 -1.03976266126613
 6  6.86915688668867  1.65728466946695  0.18739625462546
 6 -6.23693639063906 -0.53353161506151 -0.29553847884788
 6  5.53855456945695  2.11159539753975  0.26313328232823
 6 -5.01861040704070 -1.16976404930493 -0.47680455845585
 6  4.47650643664366  1.24776097009701  0.14259217421742
 6 -3.81970326732673 -0.35507773177318 -0.30892370737074
 6  3.15567305830583  1.67261165216522  0.23826794279428
 6 -2.53891934793479 -0.78934901390139 -0.39576793179318
 6  2.84893646064606  3.14776246824682  0.58720637863786
 6 -2.37048581658166 -2.23465695769577 -0.69818104410441
 6  2.09744883388339  0.80221228522852  0.02502182218222
 6 -1.56028798879888  0.12564045304530 -0.22212616361636
 6  0.75305213421342  1.05635844984498  0.02643397139714
 6 -0.19380925092509 -0.01344894489449 -0.18545951595159
 1  13.48650723072307 -1.24886829692969  1.39572526152615
 1  12.69691319031903 -3.04498771287129  1.39977766176618
 1 -14.12643561656166 -0.82640008190819  1.54533545454545
 1 -14.08018151315131 -0.80464833673367 -0.38153000900090
 1  12.85102610961096 -2.66865617271727 -1.38489904790479
 1 -13.06896732873287  1.40408439053905  1.63589132313231
 1  13.91095568256826  0.18375095299530 -0.67772295329533
 1  13.44295985298530 -0.48794415151515 -2.19868259925993
 1 -13.41415662466247  1.70901596169617 -1.48579132213221
 1 -12.74792076507651  2.87043206330633 -0.34603356735674
 1  10.99273196219622 -2.05656408540854  3.07909260526053
 1  9.77040536753675 -1.14119391839184  2.43162991799180
 1  11.07352109410941 -0.36718558565857  2.73931731773177
 1  10.74505076807681 -3.49030380438044 -0.39599628262826
 1  10.11562056495650 -3.60692933593359  1.28426786678668
 1  9.14458177517752 -2.45182649064906  0.26049277027703
 1 -11.63485517151715  0.03895140124012  2.61588188518852
 1 -10.54277711671167 -1.70435297919792  2.24879866386639
 1 -12.70703159615961 -1.49180660056006  2.97651823182318
 1 -13.73993444244424 -2.69948864476448  0.76662479347935
 1 -11.46140137513751 -3.20247683658366  0.57090998899890
 1 -12.31748960796079 -2.53114230613061 -0.95698844084408
 1  8.85366726972697 -0.38913332433243  0.63184030503050
 1 -9.98776354135414 -1.93357042094209 -0.84721852385238
 1  10.59706099809981  1.56941161116112 -1.72420447944794
 1  11.81901773077308  2.25409635253525 -1.13856946494649
 1  12.21428309830983  1.14008486338634 -2.55843853285329
 1 -11.27128152915292  2.27735329942994 -2.16948766976698
 1 -9.86184216221622  1.44929894899490 -2.03755972297230
 1 -10.24458864286429  2.52907556165617 -0.83496665266527
 1  14.76209533753375 -3.26692201930193 -0.28496021602160
 1 -15.54195888888889  1.40382768286829  1.36840793679368
 1  10.17140305930593  2.43184009200920 -0.07616079107911
 1 -8.50792552855286  0.61232583368337 -0.12564319031903
 1  8.87392507950795  4.34353773577358  0.26836267726773
 1  7.51607799479948  4.17286214721472 -0.57901424742474
 1  7.45673493349335  4.19863093109311  1.30081691969197
 1 -7.44092688668867 -3.20720537843784  0.01524623562356
 1 -8.51270564156416 -2.77242724562456 -1.80674256325633
 1 -6.46424219621962 -2.85988052795279 -1.45031046504651
 1  6.94465032003200  0.62463567856786  0.17190931593159
 1 -6.18599557555756  0.59474696979698 -0.03722884788479
 1  5.36639434443444  3.15670134213421  0.57678418741874
 1 -4.77923839483948 -2.15736341434143 -0.84039018901890
 1  4.67404059705971  0.13515826182618 -0.23287535553555
 1 -4.06818822282228  0.72035140714071 -0.29092781178118
 1  3.49721534953495  3.42126401640164  1.49721296229623
 1  1.70775903690369  3.17460844284428  1.05784038603860
 1  3.01278665866587  3.87863448844885 -0.14250730873087
 1 -3.01467258225823 -2.87197948994899 -0.06809447444744
 1 -2.29387810081008 -2.25155221722172 -2.11352009400940
 1 -1.42474285928593 -2.81896944694469 -0.25651419441944
 1  2.31655301830183 -0.32275555655566 -0.16496270827083
 1 -1.74838946194619  1.27207545154515 -0.08089199619962
 1  0.32459275827583  1.94119954695470  0.21291330133013
 1  0.24360614561456 -0.98729889388939 -0.45676735073507

