%nproc=4
%Mem=2GB
# td=(NStates=1) CAM-B3LYP/6-31G(d,p) 

TD

0 1
 8  14.62693821882188 -2.29440237333733 -0.22364928792879
 8 -14.59501456545654  2.11115642074207  1.07543707470747
 6  11.21571391739174 -1.41804435653565  0.93581974297430
 6 -12.35220038403840 -1.02247386528653  0.66260990499050
 6  12.68525209120912 -1.67531682778278  0.99180407240724
 6 -13.66378309730973 -0.19789780968097  0.73608642064206
 6  13.35663370237024 -1.82430475257526 -0.35478902390239
 6 -13.47347664066407  1.31420008110811  0.99789104010401
 6  10.95918524552455 -0.27067469446945  0.02400910791079
 6 -11.23205956995700 -0.23442444934493 -0.13443111911191
 6  13.34297478847885 -0.44214269936994 -1.02023477747775
 6 -12.85672811081108  1.74170717781778 -0.29019837283728
 6  11.87516338533853  0.21550193309331 -0.87410005300530
 6 -11.60590118511851  0.97233386248625 -0.65437743374337
 6  10.74261530253025 -1.01766720772077  2.40294367836784
 6  10.47322794279428 -2.65328309630963  0.50877426742674
 6 -11.83057486348635 -1.31558125002500  2.07035316631663
 6 -12.84003049804980 -2.34440566246625  0.00636189818982
 6  9.69435467646765  0.36462541554155  0.20363432343234
 6 -10.07810338233823 -0.99790253215322 -0.42201348634863
 6  11.60369624962496  1.27025219911991 -1.97454944494449
 6 -10.72912120012001  1.72586206330633 -1.63368025802580
 6  9.38201210621062  1.59570581358136  0.13042968296830
 6 -8.77572896989699 -0.54093604250425 -0.43230833283328
 6  8.04023312831283  2.19469545254525  0.32073284828483
 6 -7.54516255025503 -1.21700002790279 -0.63614978397840
 6  7.93800558455846  3.63538239323932  0.75922010601060
 6 -7.61335963296330 -2.62464204110411 -1.05329401440144
 6  6.90296026702670  1.52747168816882  0.10565808080808
 6 -6.45003770077008 -0.51370963286329 -0.35174409940994
 6  5.60923163716372  2.01481571957196  0.25566253525353
 6 -5.04362290829083 -1.06248332123212 -0.66902378037804
 6  4.50381916791679  1.31073726772677 -0.00982306730673
 6 -3.93578487548755 -0.36507873187319 -0.34279709470947
 6  3.16664415541554  1.66547093809381  0.08973308930893
 6 -2.54796025202520 -0.83075315431543 -0.51396975197520
 6  2.72284385138514  3.11400909290929  0.43383104110411
 6 -2.40513928192819 -2.32436592859286 -0.85448667466747
 6  2.16370545954595  0.76567863186319 -0.22862354235424
 6 -1.47481944194419  0.06928481748175 -0.19955390639064
 6  0.77757458645865  0.91533434743474 -0.12353102510251
 6 -0.12031190119012 -0.14318191819182 -0.36728769876988
 1  13.22242082208221 -0.83884729482948  1.60294598359836
 1  12.83382688168817 -2.69243245734573  1.29438712271227
 1 -14.14209718271827 -0.74750219211921  1.67106802780278
 1 -14.51326482148215 -0.07166503840384 -0.08981083708371
 1  12.74605561256126 -2.58425773287329 -0.98015857385739
 1 -12.96896732873287  1.40883486558656  1.88627636163616
 1  14.11245583258326  0.22618519641964 -0.42738791979198
 1  13.57151270827083 -0.54228958605861 -2.17975070607061
 1 -13.57208241724172  1.72506756685669 -1.16208895189519
 1 -12.44345031803180  2.78322334243424 -0.09609857385739
 1  11.08830151915192 -2.03296172517252  2.92831752775278
 1  9.56502482948295 -1.21004080308031  2.43443019801980
 1  10.98810255225523 -0.02979184628463  2.75500888688869
 1  10.89046530953095 -3.04010878487849 -0.36737342034203
 1  10.86599560246025 -3.56647529052905  1.20245968596860
 1  9.25339265626563 -2.89311061906191  0.68362508350835
 1 -11.88704039003900 -0.37156965086509  2.62096239323932
 1 -10.80704354335434 -1.58310085398540  1.99274305830583
 1 -12.53732462546255 -1.98721614151415  2.55189576957696
 1 -13.78194864386439 -2.83084178007801  0.27772590359036
 1 -12.03077831283128 -3.02959954885488 -0.13247034903490
 1 -13.06231409040904 -2.05586477837784 -0.99229197119712
 1  9.01533343634364 -0.25989040004000  0.76880400140014
 1 -10.02461722672267 -2.12601966586659 -0.61405520752075
 1  10.56375766776678  1.34131880188019 -2.34437649664967
 1  11.86189201820182  2.26650759365937 -1.49882549054905
 1  12.11862353235323  0.98185904080408 -2.87309999899990
 1 -11.34095849684969  2.08477404150415 -2.68242896389639
 1 -10.03696967496750  1.11102512161216 -1.98277424442444
 1 -10.20916510051005  2.44221687578758 -1.28546170217022
 1  14.69744887288729 -3.24446977407741  0.20485876587659
 1 -15.23165785878588  1.36180348044805  1.55419651565157
 1  10.25462138113812  2.15818272627263 -0.20052322732273
 1 -8.63592832883288  0.37658225932593 -0.06974760076008
 1  8.86732441944194  4.06953033503350  0.84306014701470
 1  7.24322070907091  4.11469633063306 -0.16479282528253
 1  7.49021828182818  3.92444351235124  1.84220105810581
 1 -7.90605339933993 -3.47488214611461 -0.32879816881688
 1 -8.41297566856686 -3.04372437533753 -1.85875776477648
 1 -6.56466223822382 -2.96342088198820 -1.46794222822282
 1  7.02508836383638  0.48887210221022 -0.33624149914992
 1 -6.48095507150715  0.52457995309531  0.07553242824282
 1  5.52021972697270  2.99165483748375  0.75998250725072
 1 -4.77618808980898 -2.02742042004200 -0.99282543254325
 1  4.71976516951695  0.28136288228823 -0.48163023102310
 1 -4.21037244124412  0.66670604260426 -0.23174189318932
 1  2.72397802580258  3.26226811681168  1.62854609560956
 1  1.70143840484048  3.28628961096110  0.00524512651265
 1  3.62970835083508  3.76555318031803 -0.09835289328933
 1 -3.10428154315432 -2.80623291529153 -0.09160682568257
 1 -2.49566827982798 -2.27038410041004 -2.00933967596760
 1 -1.32567295229523 -2.69812736273627 -0.88042658565857
 1  2.54843620662066 -0.23650693169317 -0.76916312831283
 1 -1.83214783778378  1.15800404440444 -0.03996790379038
 1  0.27535783478348  1.83977940494049  0.12331434143414
 1  0.11084286928693 -1.10710087408741 -0.05900757475748

