%nproc=4
%Mem=2GB
# td=(NStates=1) CAM-B3LYP/6-31G(d,p) 

TD

0 1
 8  14.77341286628663 -2.00444337743774 -0.08243516651665
 8 -14.71870693469347  1.90359566466647  1.11931146214621
 6  11.16699904590459 -1.47030958305831  0.97785394639464
 6 -12.30873603760376 -0.97858947684768  0.55333897789779
 6  12.71848541454145 -1.83681297739774  1.15424031603160
 6 -13.53225994499450 -0.28808682858286  0.65786859885989
 6  13.34347238623863 -1.88434075617562 -0.22876642164216
 6 -13.49068836183618  1.20422908400840  1.07353860486049
 6  10.88371769876988 -0.33174080108011  0.05964267126713
 6 -11.30914727872787 -0.16956796369637 -0.19809748574857
 6  13.21273176417642 -0.61442992809281 -0.91552430643064
 6 -12.62844528252825  1.97464047114711 -0.03354270727073
 6  11.84602047104711  0.13390377327733 -0.93245588858886
 6 -11.48907950295030  1.09755638473847 -0.53846584258426
 6  10.85924696569657 -0.99178461946195  2.41313469746975
 6  10.35025564556456 -2.81344911291129  0.65227861786179
 6 -11.70519232523252 -1.28465815771577  1.99081521252125
 6 -12.55515201020102 -2.30957217911791 -0.04127286528653
 6  9.69526476747675  0.38047700070007  0.20612457245725
 6 -10.09730530253025 -0.94574731663166 -0.72585387038704
 6  11.76589246924692  1.25846102000200 -1.86534852485249
 6 -10.53050133813381  1.99605908300830 -1.20622751275128
 6  9.39087299229923  1.65396163916392  0.01892853285329
 6 -8.81514291129113 -0.55708765766577 -0.41433653565357
 6  8.06430553555355  2.26488247124712  0.17426820182018
 6 -7.64031206520652 -1.26353468136814 -0.69076524552455
 6  7.96393817781778  3.70460931593159  0.47518170217022
 6 -7.70281857885789 -2.60441001790179 -1.19789847484748
 6  6.89851982298230  1.59116805780578 -0.02869535453545
 6 -6.42001469846985 -0.62405066696670 -0.46411533653365
 6  5.56557727172717  2.15317955595560 -0.04278730973097
 6 -5.09243778977898 -1.27760483338334 -0.51318819681968
 6  4.38033681968197  1.36475266926693 -0.20205229022902
 6 -3.97868916591659 -0.46938916291629 -0.36539935493549
 6  3.06919441044104  1.67110150115011 -0.05985186918692
 6 -2.65845130113011 -0.93457353635364 -0.44113246824682
 6  2.59778134513451  3.09087677967797  0.53058071607161
 6 -2.42297106510651 -2.27361085308531 -0.95117634363436
 6  1.99116820582058  0.73480554455446 -0.24273495349535
 6 -1.56610857085709 -0.01104321532153 -0.18112206320632
 6  0.68747557655766  0.87731054505451 -0.10678935093509
 6 -0.21863173317332 -0.13506110611061 -0.38722969296930
 1  13.31286986698670 -1.20664407450745  1.74897058605861
 1  12.89907340634064 -2.91694490859086  1.62207989198920
 1 -14.33068604160416 -0.81792923482348  1.33217413841384
 1 -14.03484697969797 -0.27451532343234 -0.48848070407041
 1  12.99807081408141 -2.73010231733173 -0.68966952495250
 1 -12.89344977697770  1.32168615071507  2.16454418841884
 1  13.93939852685268  0.17424000190019 -0.52332751375138
 1  13.67105266226623 -0.57488284538454 -1.94388711971197
 1 -13.34991020002000  2.19813487358736 -0.85071781478148
 1 -12.02185815881588  2.87942296239624  0.31402243824382
 1  11.14179686868687 -1.57128555755576  3.45931062706271
 1  9.85457378437844 -0.87014681368137  2.24661141614161
 1  11.28887262926293 -0.02671153825383  2.43138652465247
 1  10.45923218621862 -3.15564033803380 -0.41721840484048
 1  10.60316931983198 -3.66746538953895  1.41333077307731
 1  9.21368868586859 -2.56570787878788  0.87888460946095
 1 -11.22597428342834 -0.35510800470047  2.55895619261926
 1 -10.79741258025803 -2.04256680058006  1.77779156315632
 1 -12.67926881988199 -1.60366778667867  2.57775835583558
 1 -13.37809825882588 -2.83653234913491  0.49094722572257
 1 -11.66612184718472 -2.88460504940494  0.04039693769377
 1 -12.89421728072807 -2.45371456335634 -0.92611535353535
 1  8.88783068606861 -0.33283769476948  0.77427454845485
 1 -10.16160092509251 -1.95901296519652 -1.14147794979498
 1  10.82056334833483  1.51975664566457 -2.09233129212921
 1  12.14574040304030  2.31121206410641 -1.24759036703670
 1  12.20764243424342  1.17500835573557 -2.91696438543854
 1 -11.16353075407541  2.48515407950795 -1.72001272227223
 1 -9.77098307630763  1.47060107920792 -1.75511147814781
 1 -9.96576076007601  2.79262191629163 -0.51912506850685
 1  15.03301242924293 -2.91476680378038  0.37033531353135
 1 -15.07364205720572  1.59917721782178  2.01869296529653
 1  10.19274519351935  2.32300920892089  0.05023184818482
 1 -8.55023975997600  0.40240484158416  0.06752612661266
 1  8.87982566956696  4.33800718271827  0.76212205320532
 1  7.45423181018102  4.18969383038304 -0.25052139813981
 1  7.26591585158516  3.65202627062706  1.34299113711371
 1 -8.04558735273528 -3.39685434333433 -0.47897318631863
 1 -8.27750212121212 -2.60289029192919 -2.19307119611961
 1 -6.53411918391839 -2.94894943484348 -1.84363979797980
 1  7.10236609160916  0.63492670767077 -0.38882675767577
 1 -6.37115409140914  0.38556605170517 -0.12886801180118
 1  5.44094179917992  3.32308798079808  0.29245575457546
 1 -5.06354682568257 -2.35454313231323 -0.78989513951395
 1  4.53740693369337  0.32355710171017 -0.63476554455446
 1 -4.18072947694770  0.54170354235424 -0.00915963496350
 1  3.13513914191419  3.22736462646265  1.63430667166717
 1  1.68899716071607  3.24932591459146  0.28847344934493
 1  3.03946932693269  3.80053667866787 -0.12577563556356
 1 -2.94453556855686 -3.08642093409341 -0.34549221422142
 1 -2.71253996699670 -2.26007306930693 -2.12388113011301
 1 -1.47134751975198 -2.62108965896590 -0.70289883288329
 1  2.46636799979998 -0.20514379537954 -0.64958117011701
 1 -2.07146176917692  0.91677992199220 -0.19564347134713
 1  0.23492379137914  1.81845727272727 -0.04782277227723
 1  0.15804758975898 -1.18756892089209 -0.62051372537254

