%nproc=4
%Mem=2GB
# td=(NStates=1) CAM-B3LYP/6-31G(d,p) 

TD

0 1
 8  14.68279380438044 -2.40003293639364 -0.40706762976298
 8 -14.72387745174517  2.04305961106111  0.84321385238524
 6  11.17371971797180 -1.48534108620862  0.95252141314131
 6 -12.35521068506851 -1.03812543044304  0.71152479647965
 6  12.61021458745875 -1.87127642374237  0.94538943094309
 6 -13.74080079907991 -0.28107612751275  0.58130094209421
 6  13.27616565556556 -1.96311863396340 -0.48846239123912
 6 -13.52660195319532  1.28461712281228  0.74969622062206
 6  10.93137246424643 -0.22761038803880 -0.04800809380938
 6 -11.31294765876588 -0.37238824572457 -0.14988266426643
 6  13.27290778177818 -0.55953443854385 -1.04888764276428
 6 -12.72367480548055  1.72216522362236 -0.53059241224122
 6  11.94311018001800  0.08993937683768 -0.97367001000100
 6 -11.38737933293329  0.88590521962196 -0.79623161916192
 6  10.73780482148215 -1.25329077007701  2.35374875887589
 6  10.27912853285329 -2.74606237423742  0.31420481048105
 6 -11.96188799479948 -1.10860055195520  2.08295442644264
 6 -12.70613710871087 -2.40382160406041  0.02247350935094
 6  9.70101534253425  0.36921587458746  0.06697065706571
 6 -9.96245181718172 -1.04790753265327 -0.30587187218722
 6  11.69032491249125  1.30864603850385 -1.79822181218122
 6 -10.45085337333733  1.55619509660966 -1.79003589358936
 6  9.24648855385539  1.73158940194019  0.26569320932093
 6 -8.72923432043204 -0.59856180508051 -0.22170727272727
 6  8.02755186018602  2.30191617461746  0.29520029502950
 6 -7.56286432043204 -1.31542987088709 -0.44142031103110
 6  7.94345612961296  3.81021987698770  0.68890307430743
 6 -7.54726302330233 -2.74937451435144 -0.77956664166417
 6  6.95458542954295  1.59240818181818  0.06935445044504
 6 -6.31470416741674 -0.63404166606661 -0.27601652665267
 6  5.53630434443444  2.15046928492849  0.34536150515051
 6 -5.04080262626263 -1.14850192309231 -0.34958183618362
 6  4.42701148714871  1.38415460946095 -0.04713679867987
 6 -3.94357565456546 -0.34250647464746 -0.36690950595059
 6  3.03770126112611  1.77309170017002  0.17263137913791
 6 -2.53022847884788 -0.71470154915492 -0.45044339933993
 6  2.81644321132113  3.18906659865987  0.60229788778878
 6 -2.24158292629263 -2.05050854285429 -0.99704093009301
 6  2.16318540754075  0.87971003500350 -0.13037371737174
 6 -1.55406736673667  0.17237512651265 -0.09195314631463
 6  0.76488331733173  1.00200301430143  0.21169249724973
 6 -0.19325919591959  0.06517891789179 -0.26479744974497
 1  13.25411399139914 -1.18084149424942  1.54206989598960
 1  12.73424692369237 -2.92114532863286  1.25742342634263
 1 -14.41359433243324 -0.83319076097610  1.48934985598560
 1 -14.32523601860186 -0.34671254315432 -0.28681053705371
 1  12.72974398139814 -2.82780208730873 -1.13981453945395
 1 -13.04182461446145  1.66369035113511  1.63637137113711
 1  14.04616920392039 -0.00769819191919 -0.58161334233423
 1  13.48261381838184 -0.64992034913491 -2.13450618161816
 1 -13.30911612061206  1.85638069816982 -1.43827657065707
 1 -12.55199117211721  2.86088110821082 -0.48581754575458
 1  11.08890157915792 -1.99027745674567  3.13091778777878
 1  9.72328065506550 -0.98272807180718  2.37926468146815
 1  11.30865460746075 -0.35838470557056  2.77889127512751
 1  10.68182444544454 -2.97068184218422 -0.70884756775678
 1  10.28362736563656 -3.61486012901290  0.89914935493549
 1  9.08035535253525 -2.65003631163116 -0.02184546354635
 1 -11.71906359235924 -0.14273676757676  2.46990728772877
 1 -11.05717855685569 -1.60017256115612  2.09670345434543
 1 -12.65421631463146 -1.88970639053905  2.67082766276628
 1 -13.63467391639164 -2.86586528242824  0.47277540854085
 1 -11.93636887188719 -3.09620620952095  0.10669356735674
 1 -13.00528838783878 -2.08137732963296 -0.95877861986199
 1  8.78818072107211 -0.50340475147515  0.23488060906091
 1 -10.04007877287729 -2.15910297419742 -0.48187198919892
 1  10.54462575457546  1.44381905190519 -2.13202526152615
 1  12.06576240524053  2.11852279517952 -1.51861746974697
 1  12.16347801780178  1.11172202710271 -2.78578126712671
 1 -11.06537093809381  2.19080464456446 -2.65961668266827
 1 -9.71950792879288  1.08014203330333 -2.31738770577058
 1 -9.90177436143614  2.36414906900690 -1.22582573857386
 1  14.47481660966097 -3.03609893699370  0.25677395739574
 1 -15.22324701770177  1.64829212931293  1.52861395739574
 1  10.04397031603160  2.40336724472447  0.20731755675568
 1 -8.42577731373137  0.38642324342434 -0.00321094709471
 1  8.88191587858786  4.42427580958096  0.26409225022502
 1  7.25872225922592  4.15965082608261  0.08167182118212
 1  7.78476773677368  4.01361242924292  1.81888872687269
 1 -7.86840963496350 -3.29638429632963 -0.06193148214821
 1 -8.42229660066007 -3.08380838373837 -1.49014090309031
 1 -6.54582035403540 -3.03773831373137 -1.18653408740874
 1  6.92295815081508  0.69175239023902 -0.32165004000400
 1 -6.33606058205821  0.40961845694569 -0.07974309930993
 1  5.46440414541454  3.16997266926693  0.63749025802580
 1 -4.82862333333333 -2.17941561956196 -0.67997414741474
 1  4.52253544654466  0.34732947894789 -0.39410147814782
 1 -4.03138454245425  0.76081545354535  0.03088436943694
 1  2.75167079507951  3.06247813781378  1.82472571357136
 1  1.66142440344034  3.45015599759976  0.30144474647465
 1  3.55046042604260  4.08382500750075  0.39437637963796
 1 -2.71663277827783 -2.97186947894789 -0.55393305830583
 1 -2.76561527452745 -2.13763082508251 -1.92893163516352
 1 -1.25122550755076 -2.25954350435044 -1.01475001800180
 1  2.45331669466947  0.03475019401940 -0.33104931693169
 1 -1.77642226522652  1.24449269326933  0.03890998399840
 1  0.49717001600160  1.98652407940794  0.62809481948195
 1  0.25921770677068 -0.67726789078908 -0.82023369736974

