%nproc=4
%Mem=2GB
# td=(NStates=1) CAM-B3LYP/6-31G(d,p) 

TD

0 1
 8  14.85465099009901 -2.13223615671567 -0.09410633363336
 8 -14.87675273927393  1.98889419451945  0.79372890389039
 6  11.17868021402140 -1.51620417251725  0.92081824282428
 6 -12.36069123312331 -0.94735635353535  0.55728937293729
 6  12.70610417641764 -1.84666396249625  0.98991388338834
 6 -13.70756747574757 -0.19250727062706  0.49784259625963
 6  13.45405344434444 -1.81497381948195 -0.30771431643164
 6 -13.53855314831483  1.33695235633563  0.74346559755976
 6  10.99099842684269 -0.27713534053405  0.01012771977198
 6 -11.32780914491449 -0.21030203710371 -0.12355003100310
 6  13.45041553255325 -0.36134461956196 -0.82447520152015
 6 -12.61728416641664  1.90955396249625 -0.29063841684168
 6  11.94445031403140  0.23037342024202 -0.81428407140714
 6 -11.41165176017602  1.05204183328333 -0.52922491849185
 6  10.53008404940494 -1.26730217121712  2.30378376237624
 6  10.34829544954495 -2.63950171817182  0.12847623762376
 6 -12.06922872887289 -1.27430712261226  2.02880901190119
 6 -12.68316481148115 -2.26445766766677 -0.13223196119612
 6  9.67100234123412  0.34648360136014  0.02795675567557
 6 -10.03494906690669 -0.95889863176318 -0.39652093709371
 6  11.79709558955896  1.44179935383538 -1.72641463146315
 6 -10.39822811081108  1.85224470157016 -1.28192508250825
 6  9.32693659865987  1.74717096009601  0.10631727172717
 6 -8.74656605360536 -0.50952290119012 -0.14289939193919
 6  7.96673577857786  2.30889687268727  0.24772554755476
 6 -7.58934696869687 -1.29830815871587 -0.34591076007601
 6  7.89965174917492  3.78518737373737  0.51872605660566
 6 -7.69297759475948 -2.71226080298030 -0.89062774777478
 6  6.83359333033303  1.56245518651865 -0.00331281628163
 6 -6.40709340634063 -0.74148241014101 -0.16503542854285
 6  5.54381509550955  2.02101633963396  0.00079704870487
 6 -5.06110465646565 -1.23733080598060 -0.38052493049305
 6  4.47688647464746  1.17742393639364 -0.04641672667267
 6 -3.90941223822382 -0.41125334933493 -0.20891370637064
 6  3.07474496549655  1.54178856985699  0.03159727572757
 6 -2.53460891689169 -0.83385346434643 -0.43453180818082
 6  2.86896846384638  2.97552524452445  0.49209686768677
 6 -2.27983675167517 -2.26842033403340 -0.92982420842084
 6  2.10597968696870  0.70044210821082 -0.32473315331533
 6 -1.55238719871987  0.07382527152715 -0.19179313031303
 6  0.74690151915191  0.76452926692669 -0.13082175417542
 6 -0.22710258025803 -0.11324892489249 -0.37856882688269
 1  13.28762734273427 -1.14417782788279  1.86347203620362
 1  12.70649414841484 -2.93941715581558  1.37563524752475
 1 -14.36430940394039 -0.59403684558456  1.26139706070607
 1 -14.09129262426243 -0.32153002490249 -0.45854771077108
 1  13.14601560856086 -2.48897820492049 -1.24767532553255
 1 -13.34297472947295  1.55032901500150  1.86226396039604
 1  14.26259084608461  0.09366194409441 -0.15587076807681
 1  13.73206876387639 -0.21202655975598 -1.88336106710671
 1 -13.22191740074007  2.19322438253825 -1.17380012301230
 1 -12.39410538353835  2.99037405750575  0.08327936393639
 1  10.85844853385339 -2.03808223722372  3.18554325032503
 1  9.55088341534153 -1.23648344734473  2.19398615361536
 1  11.00004374637464 -0.47872673977398  2.82479586558656
 1  10.74559082208221 -2.94966974097410 -0.89022570557056
 1  10.28020702360236 -3.46054469746975  0.78582802280228
 1  9.35726304330433 -2.40568187618762 -0.04144742374237
 1 -11.97263894989499 -0.29919241314131  2.81163146014602
 1 -11.10861370037004 -1.82886543044304  2.04983876787679
 1 -12.97369826282628 -1.88767618751875  2.31808238823882
 1 -13.59285973497350 -2.67333602950295  0.10373850485048
 1 -12.13655889088909 -3.15692228112811  0.15066796479648
 1 -12.60845870487049 -2.27503669556956 -1.19614235623562
 1  8.85644754775478 -0.38182259325933  0.16390351135113
 1 -10.12147691269127 -1.93691075497550 -0.69854365636564
 1  10.72931422342234  1.65959062906291 -1.64363642264226
 1  12.10847667666767  2.38109905280528 -1.15445105310531
 1  11.96987865786579  1.37394824972497 -2.87889057805781
 1 -11.00259466046605  2.25539110321032 -1.98057877887789
 1 -9.64649062706271  1.28483250235024 -1.83676964396440
 1 -10.05718990299030  2.60052270637064 -0.67960111611161
 1  14.70808993699370 -2.94956028312831  0.48975725572557
 1 -15.40606529952995  1.76332363246325  1.69481057705771
 1  10.19160507950795  2.34652156015602  0.09625645064506
 1 -8.62721745774577  0.65529013011301  0.15171454545455
 1  8.77975566256626  4.33133651565156  0.60092593359336
 1  7.30512689968997  4.28957381838184 -0.23559990599060
 1  7.41624088408841  3.83625469346935  1.40199703770377
 1 -8.46389918391839 -3.13470812871287 -0.26173146214621
 1 -8.01975634663466 -2.73116311921192 -1.99647153615361
 1 -6.90268604060406 -3.22379691959196 -0.83935936993699
 1  7.21329718471847  0.62400561556156 -0.49752762776278
 1 -6.39859683568357  0.22470996609661 -0.06144126912691
 1  5.20252795779578  3.18590426242624  0.03706021502150
 1 -5.05351582258226 -2.25376305430543 -0.72689883988399
 1  4.78994218721872  0.11544629062906 -0.32480454845485
 1 -4.01583298729873  0.60395976797680  0.02706398739874
 1  3.42887851585159  3.09553144314431  1.44938817981798
 1  1.83602186318632  3.08227920992099  0.46670127212721
 1  3.22886826682668  3.84865149014902 -0.37480053805380
 1 -2.38500961596160 -3.01433372537254 -0.15592325732573
 1 -3.27099581258126 -2.54905196719672 -1.58106684868487
 1 -1.19139952495250 -2.42003955395540 -1.49203774677468
 1  2.67785914891489 -0.19535281628163 -0.63966017801780
 1 -1.80273489648965  1.03357160116012  0.15093118611861
 1  0.43795409440944  1.86322174917492 -0.02001999199920
 1  0.02538432343234 -1.18698886288629 -0.53934560856086

