%nproc=4
%Mem=2GB
# td=(NStates=1) CAM-B3LYP/6-31G(d,p) 

TD

0 1
 8  14.77884340934093 -2.29555248834883 -0.01606852985299
 8 -14.95555061906190  1.63661896699670  0.89086861786179
 6  11.17566991299130 -1.50002255435544  1.05222138313831
 6 -12.36569173317332 -1.06675829372937  0.56266991099110
 6  12.70240380638064 -1.95272456855686  1.04129902190219
 6 -13.65603232223222 -0.41155917581758  0.54768758075808
 6  13.39483752275228 -2.00324264636464 -0.22869641464146
 6 -13.60314960796080  1.08271693279328  0.92983423442344
 6  10.95215454245425 -0.31836946394639  0.09377608460846
 6 -11.31422778677868 -0.26152715961596 -0.12159983598360
 6  13.32456294729473 -0.64389287438744 -0.84930768476848
 6 -12.75156759475948  1.76793980108011 -0.00803015601560
 6  11.92749861886189  0.13324370727073 -0.79213185618562
 6 -11.56492708770877  1.02079870897090 -0.44932692869287
 6  10.72755379637964 -1.15247068806881  2.42057544154415
 6  10.46060668066807 -2.72452022002200  0.46183957395740
 6 -11.86179798579858 -1.40253994589459  1.95418154915492
 6 -12.56321281628163 -2.40218144004400 -0.14870360836084
 6  9.58629387038704  0.24750370337034  0.05874983498350
 6 -10.01706727872787 -0.94698744064406 -0.37700898589859
 6  11.81923780378038  1.22563773767377 -1.81803379337934
 6 -10.58588687668767  1.76346582368237 -1.28670556055606
 6  9.45411931693169  1.63836007900790  0.08063470347035
 6 -8.81932332933293 -0.37076902580258 -0.23802890489049
 6  8.06463556855685  2.27208319131913  0.18001877687769
 6 -7.51178921292129 -1.08104643254325 -0.48293446244624
 6  8.04513629762976  3.72299115411541  0.45981016501650
 6 -7.58993729072907 -2.48202777967797 -0.94490317531753
 6  6.92133210421042  1.57103604460446  0.02555007000700
 6 -6.35837853485349 -0.50256851875188 -0.26141506650665
 6  5.55844655865587  2.08693293129313 -0.08796182718272
 6 -5.08622716871687 -1.01010808370837 -0.46077295529553
 6  4.44306309230923  1.36044223822382 -0.24381646664666
 6 -3.92009330633063 -0.27560978497850 -0.22284509950995
 6  3.11059855085509  1.73055744674467 -0.16724260826083
 6 -2.59993544954495 -0.59817989698970 -0.56175453045305
 6  2.85918748574857  3.11056874887489  0.36261391939194
 6 -2.36144491249125 -2.01296478847885 -1.09291051705171
 6  2.08961805080508  0.82339440344034 -0.42772345234523
 6 -1.63509546954695  0.23962185118512 -0.11778572957296
 6  0.73447027602760  1.01945475947595 -0.09784845684568
 6 -0.23423329332933  0.04086648664866 -0.39035000500050
 1  13.01015959595960 -1.10944435453545  1.53594928392839
 1  12.80433393239324 -2.85758897299730  1.62947063106311
 1 -14.44665763876388 -0.88953639553955  1.17814873587359
 1 -14.18553204820482 -0.38343621552155 -0.39511136713671
 1  12.95759676667667 -2.80487979507951 -0.68120867886789
 1 -13.39151958395840  1.33021700380038  2.03710144414441
 1  14.16883147014702 -0.08069549164916 -0.32443762476248
 1  13.54985054205421 -0.46497185428543 -1.97000973197320
 1 -13.37249245824582  2.12598765886589 -0.93122586558656
 1 -12.53001897489749  2.78458347844785  0.44977601360136
 1  10.81819450845084 -1.85502393139314  3.11693638963896
 1  9.62846117311731 -0.84858465746575  2.41949870487049
 1  11.36169991199120 -0.23790265736574  2.87284067006701
 1  10.92860912391239 -3.10045481948195 -0.46406308930893
 1  10.46362536543654 -3.33441208420842  1.14543398339834
 1  9.20005732273227 -2.47689899789979  0.00951767276728
 1 -11.87940962696270 -0.36153864776478  2.36704700170017
 1 -10.91277411641164 -1.89451199509951  1.97185096909691
 1 -12.39072996599660 -2.21597901780178  2.56756733673367
 1 -13.21266171517152 -3.12275097099710  0.27034516551655
 1 -11.76449168416842 -3.02456904580458 -0.47230433243324
 1 -13.02698055705570 -2.11493068496850 -1.17049979197920
 1  8.70071197419742 -0.54263867486749  0.10970809180918
 1 -9.98470323532353 -2.04550161406141 -0.72773657565757
 1  10.75104639663966  1.55773044304430 -1.97755981498150
 1  12.33605943494349  2.10750169306931 -1.37795340334033
 1  12.36699836983698  0.90281113601360 -2.59884257325733
 1 -11.42872727372737  2.57780334443444 -1.72470319131913
 1 -10.05624160216022  1.05369938903890 -1.88476444344434
 1 -9.91750593459346  2.27267992209221 -0.59593274927493
 1  14.71434056205621 -3.20181550865086  0.30335861586159
 1 -15.51759645264526  1.14727202730273  1.46646774277428
 1  10.19454537353735  2.40213712171217  0.14619144414441
 1 -8.72699743574357  0.66903150425042  0.14625399939994
 1  9.04342202920292  4.12873625562556  0.80506634763476
 1  7.54447083408341  4.19542440344034 -0.45243158915892
 1  7.38412767276728  4.15178624662466  1.32869970797080
 1 -8.51846464046405 -3.00458511641164 -0.43141843084308
 1 -8.17892226322632 -2.45930593349335 -1.97224911391139
 1 -6.63254902690269 -2.98041258115812 -1.01272670667067
 1  6.85235109010901  0.57767098209821 -0.08501637663766
 1 -6.49764674067407  0.66994448954896 -0.03889901490149
 1  5.45237294229423  3.27260293229323  0.05357186618662
 1 -5.05064553555356 -2.09206688468847 -0.77341349134913
 1  4.65355854885489  0.41746649264926 -0.71786385438544
 1 -4.20786219021902  0.68380775277528  0.23754503550355
 1  3.21671729972997  3.33016490649065  1.35955919691969
 1  1.82343060406041  3.45407638963896  0.41133573557356
 1  3.26074145414541  3.95875250025003 -0.29333239123912
 1 -2.34995611061106 -2.66082837483748 -0.09123678867887
 1 -3.30352906590659 -2.36358342034203 -1.80842958495850
 1 -1.38405879087909 -2.06748429842984 -1.66914545754576
 1  2.42790415341534 -0.04879816081608 -0.61507771977198
 1 -1.85646026902690  1.23339158315832  0.29287538053805
 1  0.41271157015702  2.01134656165617  0.03606561656166
 1  0.20820260526053 -0.83787395139514 -0.75202687668767

