%nproc=4
%Mem=2GB
# td=(NStates=1) CAM-B3LYP/6-31G(d,p) 

TD

0 1
 8  14.73658918391839 -2.15535846894689 -0.34915183818382
 8 -14.71427649164916  1.91132643774377  0.85184471547155
 6  11.16751909790979 -1.47560011211121  0.97796395739574
 6 -12.44547971197120 -1.05092671057106  0.44709835383538
 6  12.76247981398140 -1.79291858795880  1.01642653465347
 6 -13.67559427842784 -0.30049806970697  0.47190000200020
 6  13.35572361136114 -1.77937025912591 -0.41341488648865
 6 -13.46758605160516  1.20004866596660  0.85864711571157
 6  10.90849017601760 -0.32209983698370 -0.06787008000800
 6 -11.29951631563156 -0.23855486238624 -0.22613028902890
 6  13.20983147414741 -0.50519900500050 -1.04509726372637
 6 -12.66171860986099  1.88968197529753 -0.25094444744474
 6  11.85928179717972  0.17545792869287 -0.92163480648065
 6 -11.50037063206321  1.07964459355936 -0.60073206920692
 6  10.86126716771677 -1.05267070807081  2.34110749474948
 6  10.34987560756076 -2.56731449944995  0.59599298929893
 6 -11.97520932693269 -1.29092878477848  1.89179531053105
 6 -12.55204169916992 -2.37981920382038 -0.16866560456046
 6  9.68692393339334  0.43672262526253  0.13354731473147
 6 -10.05918149014902 -0.96682942484248 -0.56096738173817
 6  11.65559143914392  1.21571674557456 -1.97085907590759
 6 -10.62527081508151  1.88985846294629 -1.41889877987799
 6  9.37278118311831  1.66963320632063  0.05601224122412
 6 -8.78412980998100 -0.51250319921992 -0.32054715671567
 6  8.04209331433143  2.18505448844884  0.15520629562956
 6 -7.56651468546855 -1.22378070597060 -0.53918008700870
 6  8.00290207420742  3.77746660166017  0.33646783078308
 6 -7.67435573257326 -2.61262083898390 -1.07901658665867
 6  6.95919589058906  1.50671961296130 -0.04553703870387
 6 -6.38448114511451 -0.57337559945995 -0.33414233923392
 6  5.55061577557756  1.96094033203320  0.22970993999400
 6 -5.02599114511451 -1.13657072997300 -0.37899477747775
 6  4.41637042304230  1.14038023202320  0.10276819181918
 6 -3.91045234223422 -0.32868509250925 -0.15462827782778
 6  3.15070256125613  1.55470986198620  0.19601371737174
 6 -2.62248770477048 -0.84197427642764 -0.16563491849185
 6  2.84066563356336  3.04074176617662  0.60202786078608
 6 -2.21539030703070 -2.13981747374737 -0.65212643864386
 6  2.03922301130113  0.65092715671567 -0.03984466446645
 6 -1.64641660166017  0.15014290329033 -0.07431138213821
 6  0.69175600460046  0.93595640964096  0.07185851385139
 6 -0.22433230323032 -0.07590519051905 -0.18425939593959
 1  13.15219379937994 -1.09137254735474  1.67433312231223
 1  12.91968546754675 -2.89639285338534  1.37106479047905
 1 -14.36431940494050 -0.67432487438744  1.20474139513951
 1 -14.27551104610461 -0.15055292719272 -0.61503335933593
 1  12.65719672667267 -2.68934824192419 -0.91064162216222
 1 -13.19113954595460  1.27510149224922  1.76764449844984
 1  13.97522210921092  0.20800337823782 -0.81645682668267
 1  13.45098065506551 -0.62048740584058 -2.15768849984998
 1 -13.39942515151515  1.93580864096410 -1.01626436943694
 1 -12.43572954595460  2.86828184828483  0.04005504150415
 1  11.03731642064206 -1.94052248124812  2.92578727472747
 1  9.80154848184818 -0.92538233723372  2.64274102910291
 1  11.25686942894290  0.09782091499150  2.45964935093509
 1  10.52161842484248 -2.93882865686569 -0.45104178717872
 1  10.49239824272427 -3.51434007700770  1.17646708670867
 1  9.35376269326933 -2.36467777577758  0.45166188718872
 1 -12.01884357035704 -0.23536603050305  2.45720601760176
 1 -10.81852469146915 -1.39155169906991  1.81641542554255
 1 -12.46577747074707 -2.27189460936094  2.36612719271927
 1 -13.38371882088209 -2.83654235013501  0.43796192719272
 1 -11.65009024402440 -3.03269985888589  0.15286818481848
 1 -12.72473033203320 -2.31576076797680 -1.22418516051605
 1  8.96399830283028 -0.08665307630763  0.50996811781178
 1 -10.14297906290629 -2.01334839873987 -1.21985578757876
 1  10.57885917791779  1.11206587658766 -2.41755381438144
 1  11.86101193019302  2.26584752765276 -1.42493810181018
 1  12.45398706870687  1.05586644154415 -2.89093178217822
 1 -11.28159256025602  2.55655121922192 -2.32689341034103
 1 -9.84959093709371  1.43642766186619 -2.02133810081008
 1 -9.88077226122612  2.62787544164416 -0.92474563056306
 1  14.71300042804280 -3.13055838293829 -0.26884860486049
 1 -15.04316900990099  1.57021432153215  1.68585968196820
 1  10.10899681868187  2.55103201120112 -0.27529070407041
 1 -8.67759249524953  0.38772337343734  0.31612098609861
 1  9.14976266326633  4.08032141414141  0.28643448444845
 1  7.14790117711771  4.27271213221322 -0.29600594659466
 1  7.62590185018502  3.84970603860386  1.52881971997200
 1 -8.37101989598960 -3.05423008090809 -0.53450873987399
 1 -7.96530090109011 -2.50034003690369 -2.26233812281228
 1 -6.66394216621662 -3.15443998389839 -1.18253368736874
 1  6.97053290829083  0.40344355935594 -0.31465934093409
 1 -6.45895287128713  0.44655215031503 -0.12756788178818
 1  5.51016872187219  3.12304797679768  0.53231974097410
 1 -5.02610308130813 -2.14414209220922 -0.75460161016102
 1  4.58966215921592 -0.04680993499350  0.17331526352635
 1 -4.07690909490949  0.72540191219122  0.09944122512251
 1  3.46165179317932  3.23834572457246  1.39008224922492
 1  1.76641490249025  2.98092907490749  0.88493309530953
 1  3.13289866986699  3.95428205320532 -0.15780883888389
 1 -2.87099821482148 -2.71330362236224  0.02629496449645
 1 -2.42232094509451 -2.58028509050905 -1.69682842484248
 1 -1.16053643864386 -2.48031558155816 -0.02065060806081
 1  2.22198356135614 -0.41228450945095 -0.31333754575458
 1 -1.62588721172117  1.15842408640864  0.13721981498150
 1  0.24160445944594  1.87658308530853  0.13450546054605
 1  0.17352913791379 -1.06331649564957 -0.54869654365437

