%nproc=4
%Mem=2GB
# td=(NStates=1) CAM-B3LYP/6-31G(d,p) 

TD

0 1
 8  14.75735126012601 -1.97459039213921 -0.41695861886189
 8 -14.59346441044104  2.22676798189819  0.93312284328433
 6  11.24945729172917 -1.36297884998500  0.96792295329533
 6 -12.46281144514451 -0.99254087198720  0.51634527852785
 6  12.74408797479748 -1.64284358045805  0.92954784678468
 6 -13.73879059805981 -0.06221424132413  0.63190600260026
 6  13.32126016501650 -1.80274259635964 -0.43406695169517
 6 -13.43053234623462  1.37062572367237  0.78581983298330
 6  10.97328665566557 -0.20970859785979 -0.06388968196820
 6 -11.25754211821182 -0.16863787068707 -0.23778145414541
 6  13.22442293329333 -0.44921340644064 -1.07661041504150
 6 -12.61362380038004  1.86656966406641 -0.28079743274327
 6  11.81805767476748  0.16631701460146 -0.96776941994199
 6 -11.49247984298430  0.99194582368237 -0.71905390139014
 6  10.85868690969097 -0.93514895589559  2.44960834483448
 6  10.38704932493249 -2.51372914091409  0.48102149214921
 6 -11.86234804080408 -1.24458415031503  1.89085521652165
 6 -12.81558805380538 -2.33209443134313 -0.18229696769677
 6  9.57261250225022  0.35851480448045 -0.01269730973097
 6 -9.98073364536454 -0.93066580848085 -0.46598788378838
 6  11.53918979897990  1.19854502840284 -2.11229321932193
 6 -10.48823711171117  1.72213169026903 -1.68954584458446
 6  9.29751365636564  1.70305654865487 -0.00140350035004
 6 -8.76088748574857 -0.38916086498650 -0.38428353035304
 6  7.94477358235824  2.28759474247425  0.08097887288729
 6 -7.59263729772977 -1.31131945984598 -0.54307047604760
 6  7.81152293629363  3.72360121512151  0.55001918591859
 6 -7.73341163816382 -2.73736331323132 -0.93902258725873
 6  6.86203617461746  1.54693363436344  0.00088760376038
 6 -6.38432112911291 -0.63026128802880 -0.42361128612861
 6  5.54270498449845  1.87828206620662  0.37123409240924
 6 -5.06234478047805 -1.21616868976898 -0.64717159515952
 6  4.44078286428643  1.09878607260726  0.22862077707771
 6 -3.93446474347435 -0.51050327432743 -0.22380519551955
 6  3.17100459145915  1.42777716871687  0.31890600660066
 6 -2.57808326432643 -0.88038811781178 -0.31201955695570
 6  2.83306487348735  2.85820351235123  0.71006866486649
 6 -2.16790555855586 -2.19260275227523 -0.83406463246325
 6  2.08213730273027  0.47226929092909  0.13508282828283
 6 -1.56112807280728 -0.01902401340134  0.03799984898490
 6  0.77488431743174  0.72750556455646  0.29517084508451
 6 -0.16917678767877 -0.22555015501550 -0.08937990799080
 1  13.36484506450645 -0.99008241834183  1.57530321932193
 1  12.90944444344434 -2.71831504560456  1.56034371837184
 1 -14.37371034403440 -0.46455389728973  1.40468138913891
 1 -14.27517101210121 -0.23460133203320 -0.31559341534153
 1  12.91454246124612 -2.53439274637464 -1.14795535353535
 1 -12.87432786478648  1.57890187228723  1.80198793279328
 1  13.93813840084009  0.08061063896390 -0.57814299529953
 1  13.58190374737474 -0.48125348244824 -2.02925565656566
 1 -13.32160736973697  2.01315637573757 -1.19698244124412
 1 -12.25780175317532  2.92397741784178 -0.15914487848785
 1  11.32677536653665 -1.69381781078108  3.06653134913491
 1  9.79003733073307 -1.10639043804380  2.51830858585859
 1  11.10415415741574  0.07785891879188  2.82882626862686
 1  10.67311357435744 -2.81581635563556 -0.50820750375038
 1  10.37594659755976 -3.36020466346635  1.18933837383738
 1  9.31859917691769 -2.11657296529653  0.57461418241824
 1 -11.95541722772277 -0.26269876377638  2.49679997699770
 1 -10.78130096909691 -1.87373991789179  2.23701748574858
 1 -12.36685757875787 -1.93892131203120  2.55497607760776
 1 -13.91720216921692 -2.53449214511451  0.09668779977998
 1 -12.24154938993899 -3.07186377527753 -0.17877497949795
 1 -13.10824868386839 -2.22588178007801 -1.18158090009001
 1  8.86739864286429 -0.50697510851085  0.18113523452345
 1 -9.84163892889289 -2.07670473437344 -0.72170597259726
 1  10.52324361636164  1.22773744374437 -2.09424148314831
 1  11.89435526452645  2.28938988188819 -2.08672428042804
 1  11.80722239223922  0.72878373327333 -3.07210989999000
 1 -11.09974437543754  2.26508207230723 -2.37697841884188
 1 -9.87260323832383  0.91070508960896 -2.12719868686869
 1 -9.92854703870387  2.43814646874687 -1.09760291629163
 1  14.89040816881688 -3.00784611171117 -0.10929264926493
 1 -15.21063575657566  1.72135943604360  1.59792088808881
 1  10.12149806880688  2.38742565056506  0.03910073507351
 1 -8.52958769476948  0.57455205630563  0.07690706470647
 1  8.81271895889589  4.15491887388739  0.81161700270027
 1  7.30196658365837  4.34160902190219 -0.14868121412141
 1  7.27210647064706  3.76775784378438  1.58147498549855
 1 -8.61133392739274 -3.13599825772577 -0.06474176317632
 1 -8.13243761476148 -2.89442944584458 -2.01130301930193
 1 -6.65024079607961 -3.19670421032103 -0.67917335133513
 1  6.96592244724472  0.44887810281028 -0.22567044204420
 1 -6.44028100410041  0.48503599869987 -0.31818694369437
 1  5.65694339933993  2.99460513251325  0.32605911491149
 1 -4.82650312131213 -2.16590426842684 -1.03506965696570
 1  4.63448664166417  0.03251799779978 -0.15778784678468
 1 -3.99354075807581  0.43409278127813  0.56259754075408
 1  2.85278090609061  2.83196508650865  1.97157039803980
 1  1.81123938493849  3.11626260826083  0.40881548354835
 1  3.59520490049005  3.43659028402840  0.18803574557456
 1 -2.94727584258426 -3.02233452545255 -0.44790245524552
 1 -2.45292400540054 -2.28927598959896 -1.88454719671967
 1 -1.11448183318332 -2.58914646464646 -0.64027257025702
 1  2.43964532753275 -0.55940922192219 -0.17621383338334
 1 -1.99471409440944  0.96044428842884  0.63787988098810
 1  0.36843714271427  1.87098252525252  0.56423843384339
 1  0.24175596059606 -1.08400856485649 -0.66432810681068

