%nproc=4
%Mem=2GB
# td=(NStates=1) CAM-B3LYP/6-31G(d,p) 

TD

0 1
 8  14.70290581558156 -2.11070400350035 -0.13614053705371
 8 -14.62295735973597  1.91974727982798  0.98613814481448
 6  11.12025437143714 -1.56129868196820  0.91109727072707
 6 -12.34910007400740 -0.97914953285329  0.58420206420642
 6  12.61230479647965 -1.75708500460046  1.11481637363736
 6 -13.63705042404240 -0.25278329822982  0.62134494649465
 6  13.32913095209521 -1.84699702180218 -0.19345289028903
 6 -13.40549984298430  1.27737639873987  0.88547979897990
 6  10.91269059605961 -0.30799842684268 -0.00275356835684
 6 -11.33599996399640 -0.24011501840184 -0.20718839483948
 6  13.18904939593959 -0.53821230633063 -0.88367112111211
 6 -12.65455789378938  1.80872387948795 -0.30579993299330
 6  11.86716258525853  0.11506188908891 -0.87936057905791
 6 -11.40504109910991  1.03064969406941 -0.57368936493649
 6  10.58296933793379 -1.28328376937694  2.26242962696270
 6  10.36766738673867 -2.75364313231323  0.22970636063606
 6 -11.89413121912191 -1.43929362126213  2.07208333933393
 6 -12.69177567256726 -2.47304852675268 -0.25587432543254
 6  9.60260550155015  0.27604655765577  0.02165612561256
 6 -10.00711628362836 -0.98911165306531 -0.25252653765377
 6  11.62521840184018  1.08005317921792 -1.88305029502950
 6 -10.36284457245725  1.71145062216222 -1.47077396739674
 6  9.34730863586359  1.67187343034303 -0.00632399239924
 6 -8.73785518251825 -0.49395134403440 -0.13814891689169
 6  7.99290839583958  2.29231521452145  0.13300407540754
 6 -7.57791582558256 -1.22832116001600 -0.51528769776978
 6  8.01437322132213  3.80017887288729  0.35363954795480
 6 -7.61856015301530 -2.58008758565857 -0.97749643464346
 6  6.84922489348935  1.58558749974997  0.09935745074507
 6 -6.30256295329533 -0.54241250315031 -0.39429835483548
 6  5.51069178317832  2.07529176717672  0.18279524852485
 6 -4.99454800080008 -0.97677475037504 -0.63254013201320
 6  4.35463424942494  1.34249044304430  0.07776569156916
 6 -3.84541583858386 -0.28633085708571 -0.46071888688869
 6  3.02454994599460  1.71857624862486  0.20496461246125
 6 -2.51915737173717 -0.83839391839184 -0.42006036103610
 6  2.64905647264726  3.20337802980298  0.54258191619162
 6 -2.21104987298730 -2.21894538653865 -0.88107933393339
 6  2.06146523552355  0.79044110811081 -0.04408508850885
 6 -1.49645160516052  0.14648253725373 -0.20997494849485
 6  0.71602843184318  1.02166498049805  0.01801312931293
 6 -0.16912678267827 -0.07420502050205 -0.31828279827983
 1  13.18542712271227 -1.15447885798580  1.70341603060306
 1  12.64249774877488 -2.72821603570357  1.68694637863786
 1 -14.31039401240124 -0.66192363426343  1.37442836383638
 1 -14.10525402040204 -0.31887975987599 -0.42766462246225
 1  12.59002000900090 -2.74450375747575 -0.65557611561156
 1 -12.65506593859386  1.25211919401940  1.73358109210921
 1  13.75051963896390  0.27137971587159 -0.30157533853385
 1  13.75164072107211 -0.65557091419142 -1.90544327532753
 1 -13.47558276727673  1.79913497359736 -1.10524326732673
 1 -12.49345531853185  2.96799181928193 -0.22416138013801
 1  10.72407509650965 -2.04974340334033  2.94267896389639
 1  9.57648597559756 -0.78429822882288  2.45758251325132
 1  11.23675741774177 -0.37219608670867  2.46862024802480
 1  10.62487875087509 -3.02502727672767 -0.78634531753175
 1  10.28299730263026 -3.45931457445745  0.98677811781178
 1  9.31601891889189 -2.49891119911991  0.19129585058506
 1 -11.59908159415941 -0.56574906880688  2.68522881988199
 1 -10.97521036003600 -1.91140368426843  1.97681146514651
 1 -12.64095498849885 -1.94607202710271  2.51942252225223
 1 -13.57982843184318 -3.11998069396940  0.02503063406341
 1 -11.76800203520352 -3.06272286118612 -0.00382748474847
 1 -12.58565642464246 -2.29452864476448 -1.34982772477248
 1  8.70493239623963 -0.40982539353935  0.29691681268127
 1 -10.26472123712371 -1.95517258115812 -0.50381418341834
 1  10.58454974697470  1.24920959095910 -1.89856191519152
 1  11.86503233223322  2.27556849974997 -1.67987359535954
 1  12.15561723172317  0.76584743964396 -2.77479016801680
 1 -11.07165156615661  2.21117668176818 -2.37058777977798
 1 -9.64720069806981  1.10834485358536 -1.88000396739674
 1 -10.02024620862086  2.49359201330133 -1.05920907690769
 1  14.84932406040604 -3.05949127622762  0.11184946494649
 1 -15.04862955595559  1.64104140424042  1.75826692269227
 1  10.06786270527053  2.49071597959796  0.02477930293029
 1 -8.54883961996200  0.58516311741174  0.12360173417342
 1  8.92076976397640  4.38453183518352  0.22316815781578
 1  7.14234062106211  4.35951081208121 -0.34223056905691
 1  7.43983324332433  4.11627269526953  1.39149598759876
 1 -8.05977877187719 -3.40676533443344 -0.31126641564156
 1 -8.28584295529553 -2.74462446534653 -1.84757664666467
 1 -6.75807157915792 -3.17709224912491 -1.27201263526353
 1  6.70993684868487  0.45171838683868  0.02954507950795
 1 -6.32008898489849  0.49706720182018  0.07610248524852
 1  5.55959366436644  3.27035270727073  0.23748025702570
 1 -4.90932140314031 -2.04700237823782 -0.87634378437844
 1  4.40840403340334  0.29280402640264 -0.14239630763076
 1 -3.89955135913591  0.62705207720772  0.01642292329233
 1  3.39696532453245  3.40516240624062  1.49113235423542
 1  1.65840410141014  3.32916389838984  0.81776637863786
 1  3.03537891789179  3.85001162616262 -0.29108216621662
 1 -2.99704081908191 -2.99172146414641 -0.41728939393939
 1 -2.48334704770477 -2.28282534453445 -1.90710945294529
 1 -1.08773915891589 -2.46046359635964 -0.59094763776378
 1  2.62008337133713 -0.18363164416442 -0.31191740374037
 1 -1.69711433443344  1.06158440244024 -0.00181408840884
 1  0.24170446944694  1.84472989999000  0.71555356535654
 1  0.27833961896190 -1.00200036403640 -0.76503817781778

