%nproc=4
%Mem=2GB
# td=(NStates=1) CAM-B3LYP/6-31G(d,p) 

TD

0 1
 8  14.73573909890989 -2.29843277637764 -0.27778470147015
 8 -14.83882894689469  1.78838414351435  0.99566909790979
 6  11.17053939993999 -1.45576812891289  0.98873503450345
 6 -12.36597176117612 -1.11173279117912  0.67756140014001
 6  12.64408797479748 -1.93046234233423  1.09756464846485
 6 -13.74924164316432 -0.43127114701470  0.70789360136014
 6  13.37851589058906 -1.94315663776378 -0.29601314631463
 6 -13.60235952895290  1.08469713081308  0.92482373337334
 6  10.92996232323232 -0.37174480148015 -0.00105339833983
 6 -11.30697706170617 -0.25662666956696 -0.12665034103410
 6  13.25262575357536 -0.54138262336234 -0.86511926592659
 6 -12.81025346334633  1.68767177427743 -0.24164351735174
 6  11.93880974997500  0.04445482838284 -0.83596623962396
 6 -11.54729532453245  0.95735236433643 -0.60362235823582
 6  10.82852389338934 -1.14384982598260  2.37363074707471
 6  10.36266688668867 -2.69104687268727  0.60193358335834
 6 -11.89107091309131 -1.29421911381138  2.08204433543354
 6 -12.54898139313931 -2.44068529042904 -0.04174291229123
 6  9.68680392139214  0.25055400840084  0.11301526152615
 6 -10.06771234323432 -1.03406614851485 -0.33395468046805
 6  11.80198607860786  1.20240541444144 -1.87919990999100
 6 -10.70504879287929  1.65422489958996 -1.65080197019702
 6  9.28282218721872  1.61108735173517 -0.10715407540754
 6 -8.80405180218022 -0.31837378627863 -0.44699980198020
 6  8.05900500550055  2.26899288228823  0.08397917291729
 6 -7.55430346434643 -1.08693702160216 -0.68603477247725
 6  8.10009179317932  3.72435129012901  0.24427861186119
 6 -7.55893419041904 -2.49155873277328 -1.17441612661266
 6  6.89109908090809  1.58135707670767 -0.09709219421942
 6 -6.33721641864186 -0.43221148304830 -0.47746667166717
 6  5.62596331033103  2.07484172217222  0.27304427342734
 6 -5.05551409740974 -0.93380045294529 -0.56011288928893
 6  4.47105589158916  1.30315650965097  0.16401431643164
 6 -3.92227352435243 -0.19893211721172 -0.36508932393239
 6  3.16892438343834  1.69525391639164  0.27487160316032
 6 -2.62175763176318 -0.65702578157816 -0.44925328032803
 6  2.79121068806881  3.08611630363036  0.82817047504750
 6 -2.40908967696770 -2.11140463246325 -0.79561078707871
 6  2.09901899089909  0.89444150815082 -0.11857253725373
 6 -1.61162312231223  0.25531342034203 -0.23777772877288
 6  0.74168099709971  1.07059987398740 -0.08614728672867
 6 -0.21850172017202  0.02446484648465 -0.38506947694769
 1  13.22588116811681 -1.27953136323632  1.79749543854386
 1  12.75895939493949 -2.88593180728073  1.26623430743074
 1 -14.21896486948695 -1.07087452935294  1.46769769076908
 1 -14.13347684268427 -0.70058793069307 -0.26500835683568
 1  12.96633764076408 -2.67514682178218 -1.03462402040204
 1 -12.99017944994499  1.19207318941894  1.69694742874287
 1  13.94450903790379  0.07579015691569 -0.15338051905191
 1  13.83276883388339 -0.50430578767877 -1.75124785578558
 1 -13.56972218121812  1.54756981708171 -0.97654039703970
 1 -12.37965393839384  2.84036905700570 -0.07107607160716
 1  10.90417310631063 -1.98428685768577  3.10410510651065
 1  9.90981930893089 -0.85997579657966  2.40136689168917
 1  11.52043578557856 -0.35826469356936  2.77993137913791
 1  10.69851611461146 -2.85478025202520 -0.57085376837684
 1  10.38301730463046 -3.71052969596960  1.13625306530653
 1  9.33120043704371 -2.37423873187319  0.69238595959596
 1 -12.00052173817382 -0.37208970287029  2.58922921992199
 1 -10.90170300930093 -1.77403994789479  2.23048683268327
 1 -12.40216110911091 -1.99334675457546  2.68664924492449
 1 -13.52932338133813 -2.91705040094010  0.36300443144314
 1 -11.64589982498250 -3.10267685658566  0.25284818281828
 1 -12.66332419141914 -2.23191238313831 -1.10582332433243
 1  8.87890979397940 -0.16816122712271  0.38458557955796
 1 -10.02792755775578 -2.09765682958296 -0.21904570657066
 1  10.83194448644864  1.28497316731673 -2.22311437043704
 1  12.21109693869387  2.18087903080308 -1.60944655265527
 1  12.18892056205621  0.97070792569257 -2.96055874487449
 1 -11.37935233623362  2.28677424152415 -2.18093881488149
 1 -10.32314829282928  0.81612563166317 -2.15533150015002
 1 -9.99156334033403  2.43138579267927 -1.37599075507551
 1  14.73598272627263 -3.16544187128713 -0.13788550855085
 1 -15.20065475847585  1.77075437553755  1.94901599759976
 1  10.06705262426243  2.37478438643864 -0.34935811081108
 1 -8.59356409240924  0.67437203830383 -0.38342896889689
 1  9.14889257625762  4.06271965396540  0.52097793879388
 1  7.68597498449845  4.30443530453045 -0.56755310131013
 1  7.67937719771977  3.97269833783378  1.19522636063606
 1 -8.35128792279228 -2.98777343524352 -0.52821811081108
 1 -7.96890126112611 -2.49350935383538 -2.35828771777178
 1 -6.52064783678368 -2.93003754365437 -1.12088752275228
 1  6.78789464446445  0.60539375437544 -0.37127500250025
 1 -6.42421939793979  0.58098559365937 -0.05519064406441
 1  5.46266397139714  3.00034570657066  0.61270777977798
 1 -4.84009448044804 -1.89170684868487 -0.76857300730073
 1  4.81100429342934  0.27131187718772 -0.16472854085409
 1 -4.06604800880088  0.96539591159116 -0.10210892989299
 1  3.47777340534053  3.57496938693869  1.58287152815282
 1  1.53324158515852  3.30999198119812  1.29109371137114
 1  2.67233261326133  4.03124974997500 -0.19479253725373
 1 -2.85864697969797 -2.64269656165617 -0.01880954595460
 1 -2.39773848684868 -2.21107816981698 -1.83372211421142
 1 -1.31083146814681 -2.32997054705471 -0.70490903390339
 1  2.37001836483648 -0.16594987598760 -0.39572578457846
 1 -1.95153977697770  1.25270351435144  0.09465555855586
 1  0.35888618761876  2.17160258725873  0.07374938493849
 1  0.51459324432443 -0.80111027502750 -0.67211888588859

