%nproc=4
%Mem=2GB
# td=(NStates=1) CAM-B3LYP/6-31G(d,p) 

TD

0 1
 8  14.77835336033603 -2.16254918801880 -0.21912883588359
 8 -14.52378744274427  2.14287959305931  1.16365589658966
 6  11.22978532453245 -1.38023057515752  1.03466962796280
 6 -12.36332149614961 -0.97980959885989  0.72671631563156
 6  12.70965453145315 -1.74194349044904  1.09690458245825
 6 -13.66470318931893 -0.22594061396140  0.79448226022602
 6  13.38105614461446 -1.78808113021302 -0.24044758975898
 6 -13.33981327432743  1.29158781988199  1.06968821982198
 6  10.89167849484948 -0.27034466146615  0.05279198619862
 6 -11.33152951695170 -0.15637664456446 -0.17116479247925
 6  13.31289178017802 -0.38468695379538 -0.80398315231523
 6 -12.70281271927193  1.87615062216222 -0.11585093809381
 6  11.93373924292429  0.20545092799280 -0.84155679867987
 6 -11.50500109510951  1.16569319841984 -0.54095609160916
 6  10.74740578157816 -0.96859230023002  2.39577296129613
 6  10.34919553955396 -2.62057982598260  0.63863725372537
 6 -11.73098490449045 -1.16420611251125  2.13069920092009
 6 -12.71827832283228 -2.30648187008701  0.00355161716172
 6  9.63996923792379  0.27969692269227  0.06816077607761
 6 -10.06862243424342 -0.98025076697670 -0.45990727572757
 6  11.80176605660566  1.44659983388339 -1.77441943194319
 6 -10.64433272127213  1.86140561766177 -1.48582547254725
 6  9.26314021902190  1.62247849084908  0.01505814581458
 6 -8.77573897089709 -0.61356330523052 -0.38474357635764
 6  8.00942004700470  2.30344632763276  0.10303107810781
 6 -7.55462349634963 -1.27954628252825 -0.71908807780778
 6  7.96218800280028  3.74394324932493  0.57189137313731
 6 -7.82018031503150 -2.71574115101510 -1.23722240724072
 6  6.90157012801280  1.54165310631063 -0.00255274027403
 6 -6.33942663966397 -0.66922518441844 -0.57360628562856
 6  5.60034074807481  2.00808504650465  0.15165213421342
 6 -5.12392093809381 -1.26631370427043 -0.79985686368637
 6  4.49413819981998  1.23517971197120  0.02560047504750
 6 -4.03668496549655 -0.53425564956496 -0.42490530553055
 6  3.06350384138414  1.62541693269327  0.02575669166917
 6 -2.65067052305231 -0.92327240624062 -0.53941229622962
 6  2.74450601760176  2.99049674167417  0.57050470847085
 6 -2.37740650865087 -2.32147563956396 -0.96759798579858
 6  2.11834092309231  0.64277634163416 -0.15586626662666
 6 -1.57750971097110 -0.07909002000200 -0.32011596259626
 6  0.68515534453445  0.80905371937194 -0.20243891589159
 6 -0.19835970597060 -0.19072667266727 -0.47953892389239
 1  13.18029660966097 -1.09370278037804  1.84785047404740
 1  12.79186268526853 -2.67891110521052  1.82046973097310
 1 -14.26365933893389 -0.42648008990899  1.61106202720272
 1 -14.33534702970297  0.00361248934893 -0.13908576457646
 1  12.92706371337134 -2.62468177527753 -0.98553911191119
 1 -12.79395982798280  1.46380036213621  1.85410314431443
 1  13.90906549354935  0.29962254015402 -0.15798097909791
 1  13.71525708270827 -0.43642900000000 -1.92443517451745
 1 -13.35872108110811  1.80981604170417 -0.90718346134613
 1 -12.46138211121112  2.96439145924592 -0.04303326732673
 1  10.95335802480248 -1.84669309830983  3.13100779677968
 1  9.65680400740074 -1.01175097409741  2.49813656865686
 1  11.15614935693569  0.06845797869787  2.95308869486949
 1  10.72366862986299 -3.05396017001700 -0.18756543954395
 1  10.35438444134413 -3.40679932293229  1.36567600760076
 1  9.39300661766177 -2.33127443544354  0.53749047004701
 1 -11.53121480748075 -0.20784327822782  2.54188448544854
 1 -11.03606644564456 -2.04720726462646  2.01597538153815
 1 -12.46670756375637 -1.61023844374437  2.71592217221722
 1 -13.45080552955296 -2.82771146704671  0.32005013601360
 1 -11.77805304030403 -2.96950353925393  0.02730562856286
 1 -12.85716357535754 -1.94922411431143 -1.02933567556756
 1  8.92673457645765 -0.47641205220522  0.38302542354235
 1 -10.21453621862186 -2.00655771967197 -0.86117991999200
 1  10.71435272727273  1.30399506950695 -2.15998805780578
 1  11.97156298529853  2.52777372027203 -1.39756536453645
 1  12.49841151115112  1.33252410731073 -2.69856254525452
 1 -11.18488288928893  2.51971753585359 -2.36035675667567
 1 -10.04871084908491  1.24196821592159 -2.09065503250325
 1 -10.12463664766477  2.38674132823282 -0.86782993899390
 1  14.97939706770677 -3.05895122222222 -0.03150487048705
 1 -15.25788048104810  1.84980228032803  1.97039813581358
 1  10.11477739673967  2.22556946494649 -0.03613678867887
 1 -8.65479021502150  0.38924352545255 -0.16737736373637
 1  8.97208489548955  4.07810119211921  0.17666350735073
 1  7.02818920592059  4.35329019001900  0.31133478747875
 1  7.92938219821982  3.52221328932893  1.88862570057006
 1 -8.03764655865587 -3.26831148904891 -0.34533982298230
 1 -8.86791116211621 -2.86102610551055 -1.89175106410641
 1 -6.80426619861986 -3.16075061496150 -1.77806324032403
 1  7.00862671767177  0.46016923192319 -0.60510838583858
 1 -6.35853282928293  0.40663815891589 -0.40502562756276
 1  5.63108081308131  3.01732740474047  0.42685919491949
 1 -5.21133160416042 -2.40732841084108 -0.99810596059606
 1  4.69811300430043  0.09213395939594 -0.18050011801180
 1 -4.14167557155716  0.40367973997400 -0.29263798279828
 1  3.09949557755776  2.98280017001700  1.70994423542354
 1  1.58573683468347  3.06396737873787  0.66473107510751
 1  2.90579595959596  3.86400302530253 -0.04834789278928
 1 -2.75263637863786 -3.03212550455045 -0.20645831083108
 1 -3.04803351635164 -2.21335839783978 -1.82739148114811
 1 -1.45309569456946 -2.56818436843684 -1.10008855185519
 1  2.50703206620662 -0.34627790879088 -0.30736694869487
 1 -1.77850247324732  0.91182942694269 -0.09593350035003
 1  0.17786808580858  1.69958538553855  0.18015002500250
 1 -0.01875009000900 -1.16969713371337 -0.79244091809181

