%nproc=4
%Mem=2GB
# td=(NStates=1) CAM-B3LYP/6-31G(d,p) 

TD

0 1
 8  14.65669119411941 -2.33734666776678 -0.43811073407341
 8 -14.77325238923892  1.86496180128013  0.61639117011701
 6  11.19629197519752 -1.38169072117212  0.99711587258726
 6 -12.31882704670467 -1.02600421832183  0.55205884988499
 6  12.71276484248425 -1.90876017211721  1.00331522352235
 6 -13.71982870187019 -0.22975099499950  0.52637544954495
 6  13.33765180418042 -1.92717503960396 -0.48546209120912
 6 -13.51732102510251  1.25347400850085  0.78686993799380
 6  10.95706503350335 -0.27558518551855 -0.07681097409741
 6 -11.35290165416542 -0.22473348024802 -0.22026970297030
 6  13.35590608160816 -0.52740122522252 -0.99715246924692
 6 -12.75306774477448  1.82923593069307 -0.24883423642364
 6  11.89758562756276  0.23538392129213 -0.98088073107311
 6 -11.45500609560956  1.12454908400840 -0.56511850785078
 6  10.72846388738874 -0.85898133913391  2.38924230823082
 6  10.22618323832383 -2.55213298129813  0.58292168216822
 6 -11.90407221322132 -1.21448114001400  2.03517964896490
 6 -12.60650714571457 -2.39410063196320 -0.03631236923692
 6  9.63719896089609  0.40698965196520  0.10857481748175
 6 -10.02565813781378 -0.89642238413841 -0.46011729672967
 6  11.67914379437944  1.19446462036204 -2.01464345434543
 6 -10.58174646264626  1.85206468356836 -1.42157904790479
 6  9.39919382438244  1.74350059305931  0.08048468846885
 6 -8.70592198919892 -0.39402135103510 -0.35872097409741
 6  8.03216232123212  2.34241022402240  0.14995577057706
 6 -7.52917095109511 -1.22923125102510 -0.48039420842084
 6  7.97647943194319  3.78992784778478  0.56181036503650
 6 -7.67607590459046 -2.66694627152715 -0.97868655365537
 6  6.84734470547055  1.59609855085509  0.08209572457246
 6 -6.36119881688169 -0.55861412331233 -0.14753367836784
 6  5.59296001000100  2.06508074607461  0.18242521152115
 6 -5.05691423742374 -1.11126819971997 -0.46282316031603
 6  4.45208399439944  1.28099429342934  0.07809572457246
 6 -3.93116441344134 -0.41851407540754 -0.26504931993199
 6  3.04570206120612  1.61959635063506  0.21180529652965
 6 -2.59443489948995 -0.85617569656966 -0.41205956095610
 6  2.72643421042104  3.00471816381638  0.78133579157916
 6 -2.28764753275328 -2.29981347334733 -0.99462068806881
 6  2.19311840084008  0.64329639363936 -0.03548422842284
 6 -1.55898785878588 -0.02041415241524 -0.05405935693569
 6  0.75209203820382  0.71172398639864  0.19781110911091
 6 -0.18239810981098 -0.19937753775378 -0.34297526752675
 1  13.31525010501050 -0.97715112521252  1.40235592459246
 1  12.59854335333533 -2.89808302240224  1.44555223922392
 1 -14.29399237223723 -0.82825026692669  1.16644756575658
 1 -14.25353884888489 -0.20979885178518 -0.32430428642864
 1  12.83460446744674 -2.67967727482748 -1.11529208720872
 1 -13.02121255325532  1.58149213131313  1.71754948894889
 1  14.01464605160516 -0.03863128522852 -0.21331651265127
 1  13.85118067506751 -0.65558091519152 -2.19735246624663
 1 -13.46725193419342  1.90618567866787 -1.11503424642464
 1 -12.49607558055806  2.78552357245725  0.03049408540854
 1  11.03559624862486 -1.69088751775178  3.10614531053105
 1  9.65363369036904 -0.66155595459546  2.78952570757076
 1  11.38108185018502  0.02115324822482  2.43975736173617
 1  10.63343960696070 -3.04206898089809 -0.40082676567657
 1  10.31249025192519 -3.42951159415942  1.29430887088709
 1  9.18998631563156 -2.32744405240524  0.61433815481548
 1 -11.69752143814381 -0.33867636153615  2.45591588858886
 1 -10.82726556555656 -1.60026257015702  2.15608939293929
 1 -12.65154604760476 -1.84666208610861  2.55938651865187
 1 -13.17819826882688 -2.86062475837584  0.59512764376438
 1 -11.68466370137014 -3.11038762766277 -0.10307740974097
 1 -12.87903576257626 -2.37579677157716 -1.16018876087609
 1  8.97341924492449 -0.26647105810581  0.37851497249725
 1 -10.01460622562256 -1.90129719361936 -0.83318712071207
 1  10.71297258925892  1.29278394839484 -2.26137819681968
 1  12.02843867286729  2.23377432033203 -1.93996960496050
 1  12.15829749974997  0.81943279817982 -2.97596028502850
 1 -11.06408080908091  2.35109067316732 -2.28011873287329
 1 -9.81257723572357  1.28058207730773 -2.00766673367337
 1 -9.85680986498650  2.52242489658966 -0.69006216221622
 1  14.57766689468947 -3.33777910501050 -0.03183490349035
 1 -15.54606929992999  1.33509080918092  1.12441353735374
 1  10.20469638863887  2.48433534153415 -0.44343751875188
 1 -8.69176391239124  0.79127372847285 -0.09382000800080
 1  8.95388307530753  4.27934131613161  0.91358719971997
 1  7.56522290929093  4.35165002600260 -0.38985533153315
 1  7.30560982098210  3.93259432743274  1.48524536253625
 1 -7.88296109010901 -3.24692935083508 -0.26941223022302
 1 -8.28436280728073 -2.84635463836384 -1.86144803380338
 1 -6.83263903590359 -2.98623316321632 -1.15803123712371
 1  6.92839869486949  0.64715793079308 -0.36624449944994
 1 -6.43274025002500  0.42515001010101  0.23044791979198
 1  5.55073277827783  3.13418909090909  0.46794330333033
 1 -4.94728519951995 -2.04496217421742 -0.92808895889589
 1  4.61247444044405  0.32366711271127 -0.09516158415842
 1 -3.88733013701370  0.59639901190119  0.21953323432343
 1  2.98402403040304  3.00101199119912  1.87022026302630
 1  1.73493175417542  3.25086606860686  0.32850745274527
 1  3.44312969296930  3.88758538353835  0.34713165516552
 1 -2.96205732073207 -2.92638493049305 -0.45508317331733
 1 -2.35843455645565 -2.26151321332133 -2.17499624162416
 1 -1.22795318031803 -2.56654420442044 -0.25363390639064
 1  2.73705506850685 -0.35091837283728 -0.45054126612661
 1 -1.89825444844484  0.87645588958896  0.64632072507251
 1  0.48665896489649  1.71493692069207  0.71071308130813
 1  0.32646443144315 -1.06650681468147 -0.97306898089809

