%nproc=4
%Mem=2GB
# td=(NStates=1) CAM-B3LYP/6-31G(d,p) 

TD

0 1
 8  14.61562708770877 -2.46180911401140 -0.43929085208521
 8 -14.69364442844284  1.96166147124712  1.08207773877388
 6  11.23598594459446 -1.44402695479548  1.07846400740074
 6 -12.43521868586859 -1.07887950585059  0.52383602760276
 6  12.68922248824882 -1.91173046914691  1.02912780478048
 6 -13.74889160816082 -0.26491451135114  0.62458527052705
 6  13.28146618561856 -2.07138946104610 -0.44816836183618
 6 -13.53329262226223  1.17409607070707  1.02809406040604
 6  10.90319964696470 -0.24095172217222  0.03775048204821
 6 -11.40633699769977 -0.37032803970397 -0.25606328232823
 6  13.19060955195519 -0.62163064816482 -1.16509926392639
 6 -12.75200763876388  1.76245925302530 -0.21574092709271
 6  11.89791566056606  0.11175155805581 -0.93675631863186
 6 -11.55299589458946  0.96541317041704 -0.54583657965797
 6  11.06580762176218 -0.96061150215022  2.63298668266827
 6  10.33648426842684 -2.54227199519952  0.81657504750475
 6 -11.99555136113611 -1.48096778867887  1.92152828382838
 6 -12.63397989298930 -2.38873009490949 -0.23898263626363
 6  9.68003324432443  0.36314526752675  0.26370033003300
 6 -10.09426499849985 -1.07434017591759 -0.52816410141014
 6  11.47030291029103  1.00936611051105 -2.02815480548055
 6 -10.61508979697970  1.77755723282328 -1.42856974697470
 6  9.40011391639164  1.68517476047605  0.04482112211221
 6 -8.85112650965097 -0.50464241314131 -0.44778988098810
 6  8.13353245824582  2.35482146514651  0.17701847684768
 6 -7.58803683768377 -1.22405073297330 -0.52751892089209
 6  7.99322110611061  3.83017187218722  0.42611679567957
 6 -7.59262755975598 -2.65539511641164 -1.05341402640264
 6  6.92564253525353  1.59859880088009  0.04525204020402
 6 -6.33073577057706 -0.56015427732773 -0.35331425642564
 6  5.62654336833683  2.16000023802380  0.23415038403840
 6 -5.05111365736574 -1.03061013391339 -0.61570844884488
 6  4.48212699869987  1.36020221422142  0.08031594659466
 6 -3.91910320732073 -0.37526975097510 -0.32859567456746
 6  3.17173466446645  1.74873926492649  0.18868298429843
 6 -2.53654911091109 -0.71766184518452 -0.45568392339234
 6  2.77225879287929  3.17422511451145  0.57125478347835
 6 -2.32499126712671 -2.12936642864286 -0.82045327132713
 6  2.15565465446545  0.73330539453945 -0.09924060406041
 6 -1.53846580658066  0.22384027302730 -0.14339829082908
 6  0.81653848284829  1.02497531153115 -0.03635230723072
 6 -0.15029489948995  0.02238463846385 -0.32624359435944
 1  13.37401598159816 -1.14076748684869  1.44505019401940
 1  12.89181268026803 -2.75113832793279  1.54639232323232
 1 -14.39294226722672 -0.68169561146115  1.39874079507951
 1 -14.29027252225223 -0.23741161306131 -0.48437029302930
 1  12.65738674567457 -2.79023833093309 -1.00027058505851
 1 -12.77890832283228  1.21184516661666  1.82910064406441
 1  13.89995458245825  0.04322690059006 -0.70154533553355
 1  13.35281083808381 -0.60943630073007 -2.16828955995600
 1 -13.56071128012801  1.88389344944494 -1.11195393839384
 1 -12.46275224822482  2.83609862996300  0.24365540154015
 1  10.90808349734974 -1.89639806880688  3.32032672867287
 1  9.95186351335133 -0.54076387538754  2.61683843884389
 1  11.83591733373337 -0.09234810191019  2.90648403440344
 1  10.52678894189419 -2.85245001900190 -0.29911659465947
 1  10.62489149204920 -3.37687633063306  1.57012645264526
 1  9.23730104710471 -2.47562887088709  1.02403912491249
 1 -11.94234592059206 -0.54928742264226  2.68644894189419
 1 -11.00332317131713 -1.73358590249025  1.70394417841784
 1 -12.71734262726273 -2.34100152005201  2.24697527752775
 1 -13.47960840984098 -2.96849554545455  0.10056818781878
 1 -11.87021225622562 -3.04064065296530 -0.33443054505451
 1 -12.70747860686069 -2.00608980088009 -1.23457619961996
 1  8.86267817081708 -0.29451386238624  0.58358547954796
 1 -10.04456922192219 -1.97178424232423 -0.82239604160416
 1  10.44633592559256  1.13246791679168 -2.30581264026403
 1  11.50055588458846  2.17506844974497 -1.77393300130013
 1  12.02089375937594  0.94907576247625 -2.89644233323332
 1 -11.06159056005600  2.42453801790179 -2.30325104610461
 1 -9.85984196219622  1.13033705280528 -1.88514448144814
 1 -9.68486267026703  2.32670532463246 -0.86912006800680
 1  14.68208733673367 -3.39929525662566 -0.10173189318932
 1 -15.08286297929793  1.55526282638264  1.80182127812781
 1  10.30232615161516  2.33980088808881  0.11078790379038
 1 -8.76704144014401  0.49049365046505  0.11211058505851
 1  8.94060174717472  4.29160254225422  0.27895373637364
 1  7.37290367736774  4.39305416641664 -0.25837218321832
 1  7.80205946594659  4.28925999399940  1.51908874687469
 1 -8.18428122212221 -3.41494615251525 -0.35798108710871
 1 -7.97607197819782 -2.82605260816082 -2.05361725072507
 1 -6.56627239923992 -2.76486102600260 -0.92104753875387
 1  6.83612946794679  0.60581379637964 -0.26784465946595
 1 -6.40366734273427  0.57287478257826 -0.28786391139114
 1  5.48548625362536  3.29464513651365  0.11571808080808
 1 -4.74213468446845 -1.99603728172817 -1.00167631763176
 1  4.68957215021502  0.30329507550755 -0.15750781878188
 1 -4.03112451645165  0.82513188518852 -0.19397811681168
 1  3.35549117711771  3.37859974997500  1.47124036503650
 1  1.75732399339934  3.38931991399140  0.69500410241024
 1  3.01849722972297  3.85523214821482 -0.35741879987999
 1 -2.78557967296730 -2.58870116211621  0.00676301130113
 1 -2.63442215521552 -2.42727978997900 -1.79403814581458
 1 -1.30877126212621 -2.20067761776178 -0.83546208920892
 1  2.54931629462946 -0.30277355835584 -0.31399761176118
 1 -1.93790841384138  1.19982822682268  0.18298439143914
 1  0.44557485648565  2.02135756275628  0.16221823182318
 1  0.46661844684468 -0.91320148414842 -0.62338401240124

