%nproc=4
%Mem=2GB
# td=(NStates=1) CAM-B3LYP/6-31G(d,p) 

TD

0 1
 8  14.64756028102810 -2.26881981508151 -0.33781070407041
 8 -14.65155021902190  1.98938424352435  1.09457898889889
 6  11.11503384938494 -1.39555210731073  1.01746790779078
 6 -12.31527669166917 -0.99887150505051  0.63498714271427
 6  12.65872943894389 -1.85603489958996  1.05997088908891
 6 -13.62522924192419 -0.03974199409941  0.76952976497650
 6  13.26903494249425 -1.83200552265227 -0.30883442844284
 6 -13.33880317331733  1.39294795589559  1.00225147614761
 6  10.86915624262426 -0.22280990799080  0.01290799779978
 6 -11.18393475747575 -0.20080108700870 -0.28555623162316
 6  13.27726821782178 -0.43911239633963 -0.86519927392739
 6 -12.57371980998100  1.88509151625163 -0.22526187918792
 6  11.87899376837684  0.11381176407641 -0.86814945794579
 6 -11.40457105210521  0.97703433253325 -0.68377037303730
 6  10.70103114411441 -1.14815025602560  2.46521990599060
 6  10.25316593659366 -2.54780254825483  0.52100549054905
 6 -11.77138894489449 -1.28389808170817  2.08024415541554
 6 -12.83704019901990 -2.20747196909691  0.00520178217822
 6  9.60607584858486  0.37400635363536  0.18523248324832
 6 -10.07819339133913 -1.05455819771977 -0.52824410941094
 6  11.71652753275328  1.18823399729973 -1.84453644364436
 6 -10.45904419241924  1.76324580168017 -1.53761065106511
 6  9.28395230023002  1.67073331633163 -0.00017337733773
 6 -8.78062945994600 -0.73153510241024 -0.32450755275528
 6  7.98975808080808  2.38703468646865  0.17072784778478
 6 -7.50666870087009 -1.34350267816782 -0.55356152515252
 6  8.03202498649865  3.78512736773677  0.48825300930093
 6 -7.72059035603560 -2.78502807970797 -1.09373805880588
 6  6.92472244324432  1.66202514351435 -0.03852633763376
 6 -6.29836253325333 -0.68963722562256 -0.49201812681268
 6  5.57046776077608  2.09868410641064  0.18035500450045
 6 -5.03643218921892 -1.29915698859886 -0.67248412641264
 6  4.46609539553955  1.34422061606161  0.07764567956796
 6 -3.88008930593059 -0.54645686968697 -0.39797261226123
 6  3.10377786878688  1.67909230023002  0.12308642464246
 6 -2.57630308630863 -0.89689976897690 -0.52755111011101
 6  2.63381494849485  3.05538323032303  0.67902556055606
 6 -2.29512828082808 -2.26567005900590 -0.94730595659566
 6  2.02522161116112  0.79603166716672 -0.07333801380138
 6 -1.58219017901790  0.08402629162916 -0.30376432743274
 6  0.71694852385239  0.97804061806181  0.04292562056206
 6 -0.24341421142114 -0.10333793379338 -0.41674264426443
 1  13.15694427442744 -1.16498990909091  1.61691738073807
 1  12.78677217621762 -2.76859007310731  1.82064974897490
 1 -14.20744371737174 -0.54693213511351  1.52125304630463
 1 -14.17395089008901 -0.18226609850985 -0.26148800480048
 1  12.83061406840684 -2.62280158725873 -1.00609116711671
 1 -12.67430786278628  1.64790877297730  1.92938067206721
 1  14.14316890389039  0.37608018591859 -0.36444162516252
 1  13.59052460946095 -0.42165752285229 -1.97879061006101
 1 -13.44865007400740  1.84208926902690 -1.02185492849285
 1 -12.25298127112711  2.84170919101910 -0.33599256325633
 1  10.98435112411241 -2.04424285328533  2.90059475547555
 1  9.59975830283028 -1.06520631963196  2.72324907990799
 1  11.41544528652865 -0.20234910201020  2.75463884988499
 1  10.64034029702970 -3.15886066006601 -0.32937962096210
 1  10.32259126202620 -3.38664730773077  1.27337677767777
 1  9.24314163116312 -2.31985329332933  0.45551227222722
 1 -11.64558624462446 -0.46330882478248  2.59680997799780
 1 -10.72353519251925 -1.46596914081408  2.15447923192319
 1 -12.52592348534854 -1.91476889678968  2.51687226722672
 1 -13.50733118211821 -2.78649734563456  0.64294242524252
 1 -12.00253548854885 -2.96494308320832 -0.08483558555856
 1 -13.23628148714871 -2.02307149904990 -0.74795753775378
 1  8.55958786178618 -0.14469888088809  0.44682180318032
 1 -10.51755652065207 -2.06271333523352 -0.74535833783378
 1  10.70146143814381  1.56336100610061 -2.14960701970197
 1  12.04674050305031  2.24321526442644 -1.46866247424742
 1  12.37148881888189  1.00457131203120 -2.86547923692369
 1 -11.08970337133713  2.23326889098910 -2.18453917491749
 1 -9.74109008700870  1.19644366346635 -2.08279424642464
 1 -9.77750193419342  2.41422407650765 -0.90944410041004
 1  14.69862899089909 -3.27419274637464 -0.45179689968997
 1 -15.12761745474547  1.79096639673967  1.89321041704170
 1  10.03365928492849  2.11237814581458 -0.35968914391439
 1 -8.60349508550855  0.25663026412641 -0.02327295329533
 1  9.18244593159316  4.14339772177218  0.38067390839084
 1  7.40032641964196  4.46600146114611 -0.07751409740974
 1  7.69416867686769  3.85727679567957  1.50175701370137
 1 -8.50681347534753 -3.50109476737674 -0.65785107410741
 1 -7.96325069606961 -2.70744074697470 -2.20651254025403
 1 -6.68380415241524 -3.03696823672367 -1.39059449344934
 1  7.06406226122612  0.59205242024202 -0.47299517451745
 1 -6.30867784378438  0.35769326442644 -0.30690581558156
 1  5.59626733173317  3.17214288628863  0.61189769876988
 1 -5.06622709370937 -2.27458513651365 -0.60423657365737
 1  4.69319251225123  0.28899364536454 -0.24885695369537
 1 -4.08990039403940  0.76145551755176 -0.36635535453545
 1  3.35429105710571  3.31529341934193  1.64252749374938
 1  1.66047430843084  2.83924490649065  1.20811541354135
 1  2.53728910891089  4.03028965396540 -0.17370042804280
 1 -2.45904701970197 -2.91871416341634 -0.26275394039404
 1 -2.97950666366637 -2.23738080008001 -1.91811055305530
 1 -1.15977636263626 -2.60136768676868 -1.36891543454345
 1  2.48222958595860 -0.28647192819282 -0.42721893389339
 1 -1.85500012301230  1.04484272827283  0.12290838383838
 1  0.21095139413941  1.93757918491849  0.32605461546155
 1  0.11534331933193 -1.05004516851685 -0.84460613461346

