%nproc=4
%Mem=2GB
# td=(NStates=1) CAM-B3LYP/6-31G(d,p) 

TD

0 1
 8  14.57842336733673 -2.45040797389739 -0.23094001700170
 8 -14.79590465446545  1.67079238433843  1.14286381738174
 6  11.14164651065106 -1.44339689178918  1.10724688568857
 6 -12.39937510151015 -1.03710532843284  0.66346999099910
 6  12.60746431243124 -1.89161845794579  1.09703459545955
 6 -13.72703942294229 -0.30659867976798  0.67969078107811
 6  13.25751379037904 -2.01587390949095 -0.20688423342334
 6 -13.50523981698170  1.08461712281228  0.99804105510551
 6  10.98537786478648 -0.14991261826183  0.13325003200320
 6 -11.30480684468447 -0.25336634353435 -0.07161483748375
 6  13.24405489648965 -0.62003048814881 -0.81254400840084
 6 -12.82382482048205  1.78651165826583 -0.11933128612861
 6  11.89205507450745  0.07774815771577 -0.79275191819182
 6 -11.52448304330433  1.04462109120912 -0.45436743274327
 6  10.79301034203420 -1.02730817181718  2.56717010101010
 6  10.27186780678068 -2.58114588258826  0.66843023302330
 6 -11.89933173917392 -1.27977766966697  2.21837796879688
 6 -12.59900639563956 -2.50316153805381  0.04230549254925
 6  9.62440768176818  0.45067402040204  0.20597455745575
 6 -10.14498007000700 -1.01765450735074 -0.49547083208321
 6  11.93010889088909  1.12680785468547 -1.93294528452845
 6 -10.53725201320132  1.83504298139814 -1.35671256125613
 6  9.33665757075708  1.72924916791679  0.00565720572057
 6 -8.87225862286229 -0.50441239013901 -0.28770387238724
 6  8.05204430943094  2.32937892089209  0.12921369636964
 6 -7.63349138313831 -1.12973130103010 -0.64374054305431
 6  7.94478626262626  3.76830568556856  0.50327451145115
 6 -7.62768106510651 -2.50395997289729 -1.17324600960096
 6  6.92547251825183  1.63248218921892  0.03130064506451
 6 -6.43410610761076 -0.61882014391439 -0.35873479847985
 6  5.63024373837384  2.04745898389839  0.11684865386539
 6 -5.00889943594359 -1.02469954285429 -0.64097097509751
 6  4.55033381938194  1.30019621362136 -0.18766085108511
 6 -3.95000629762976 -0.28033025702570 -0.43472628762876
 6  3.17611510251025  1.63343773477348 -0.00986687068707
 6 -2.58066352235224 -0.64809488848885 -0.68174652965297
 6  2.83172473947395  3.05358305030503  0.48986664466447
 6 -2.29060782878288 -2.08774226622662 -1.18245947194720
 6  2.16189527852785  0.79219128312831 -0.35846652665267
 6 -1.52991495149515  0.31409929892989 -0.47340129112911
 6  0.85913274227423  0.95600841484148 -0.16402507450745
 6 -0.13845371537154 -0.01064866486649 -0.53996496649665
 1  13.43679225922592 -1.19401281138114  1.69238492749275
 1  12.69367286628663 -2.90815402950295  1.71321900590059
 1 -14.43588656165617 -0.86867430933093  1.26067698869887
 1 -14.10417391239124 -0.29875774767477 -0.42656451245125
 1  12.56818782578258 -2.57258656575658 -1.00010056805681
 1 -12.85178561056106  0.95327931003100  1.95462319631963
 1  14.16359094609461 -0.09826724882488 -0.47897307830783
 1  13.57980353735373 -0.80689604670467 -1.78565129612961
 1 -13.37567277627763  1.97396245634563 -0.95838858185819
 1 -12.47525349834983  2.86904192429243  0.34745578157816
 1  11.06924961396140 -1.71475990499050  3.41883657965797
 1  9.60435876287629 -0.98472827182718  2.89716647164716
 1  11.12367610961096  0.00286141904190  2.82997638363836
 1  10.55844210721072 -3.10244501850185 -0.13580026302630
 1  10.14071307420742 -3.35122376537654  1.47705714571457
 1  9.14990230723072 -2.24316562456246  0.59408612961296
 1 -11.74084577057706 -0.24667716161616  2.51910220722072
 1 -11.03213605260526 -1.68454099799980  2.06398018201820
 1 -12.54971586458646 -1.89467688758876  2.63168374837484
 1 -13.62470291929193 -2.81155985188519  0.54264239523952
 1 -11.74005924092409 -3.04430101900190  0.16017891589159
 1 -12.76901476047605 -2.25819501140114 -0.99982272427243
 1  8.70411231423142 -0.25887029802980  0.19689681068107
 1 -10.12241700670067 -2.08025508940894 -0.57791159315932
 1  10.86045733773377  1.65940061006101 -2.13243530253025
 1  12.61632746174618  2.03235417831783 -1.57225283328333
 1  12.38597026702670  1.07145800070007 -2.81012370137014
 1 -11.16081048204820  2.51882744684468 -1.97420814181418
 1 -10.15075105310531  0.82655667476748 -2.11246721372137
 1 -9.86403058705871  2.40749340344034 -0.77821097709771
 1  14.65016414441444 -3.22582790989099  0.14685296529653
 1 -15.59664435743574  1.20276757685769  1.70595169116912
 1  10.23621954095410  2.35564247224723  0.05883270827083
 1 -8.69885462146215  0.58721332243224  0.08599797379738
 1  9.01291897889789  4.12944632663266  0.57873371437144
 1  7.55548193519352  4.40577543854385 -0.29310565656566
 1  7.58897815781578  3.86855792379238  1.47663450145015
 1 -7.92221501550155 -3.64564922282228 -0.71928721772177
 1 -8.14800917191719 -2.49203920682068 -2.03537542654265
 1 -6.72245801780178 -2.89628416831683 -1.72551798579858
 1  7.00970682568257  0.58982219721972 -0.36689456445644
 1 -6.33943091909191  0.37823531863186  0.15448032303230
 1  5.68234593959396  3.19463513551355  0.68705521452145
 1 -4.97536800780078 -2.01761943994399 -1.02593874387439
 1  4.71433462646265  0.32620736673667 -0.35682775077508
 1 -4.00386179017902  0.62648202020202  0.06933821482148
 1  3.59618524652465  3.18304019401940  1.35221846284628
 1  1.74515277627763  3.22313329532953  0.87054165616562
 1  3.25863124312431  3.76943356835684 -0.21994505250525
 1 -2.30239135413541 -2.80703299529953 -0.33015068006801
 1 -2.73130184318432 -2.15967302930293 -2.16029477147715
 1 -1.24736512151215 -1.97558510851085 -1.59764830783078
 1  2.58811017401740 -0.17755103610361 -0.67337354935494
 1 -1.88894351735174  1.33338158215822 -0.36351025802580
 1  0.47510780978098  1.86664209120912  0.18357036703670
 1  0.20690247524752 -0.94288445244524 -0.90736241024102

