%nproc=4
%Mem=2GB
# td=(NStates=1) CAM-B3LYP/6-31G(d,p) 

TD

0 1
 8  14.66896242124212 -2.42689562266227 -0.33821074407441
 8 -14.95842090609061  1.69473477857786  0.75217474847485
 6  11.09899224522452 -1.54949750185018  0.85834199519952
 6 -12.44152931693169 -1.06660827872787  0.47980162416242
 6  12.67446101210121 -1.98737803390339  0.96596148814881
 6 -13.77064378337834 -0.36688470837084  0.44096690869087
 6  13.31212925192519 -2.02485480758076 -0.30551409640964
 6 -13.64709400240024  1.17661632273227  0.79292054305431
 6  10.95817514451445 -0.34277190419042 -0.04251754475448
 6 -11.23349971397140 -0.24960596749675 -0.20417809380938
 6  13.26563705470547 -0.56719520462046 -0.96816957095710
 6 -12.71071350935093  1.86702971007101 -0.35753510651065
 6  11.93248911791179  0.11578196109611 -0.91432407540754
 6 -11.43533412841284  1.02869949904991 -0.64987698369837
 6  10.70214125512551 -1.12341778277828  2.30080346434643
 6  10.30807142714271 -2.66724449244925  0.31341473147315
 6 -12.00486229222922 -1.36380607250725  1.99733586458646
 6 -12.62535903090309 -2.44663588548855 -0.13184192219222
 6  9.75506074707471  0.46146509950995  0.08956291629163
 6 -9.98544411641164 -0.96664940684068 -0.40898218321832
 6  11.76528240824083  1.26757193109311 -1.87404939493949
 6 -10.39868815681568  1.85254473157316 -1.42476936693669
 6  9.42679658465847  1.87614385738574 -0.00547390739074
 6 -8.72819421642164 -0.47998994789479 -0.39112421442144
 6  8.09849895489549  2.33470945394539  0.15155593059306
 6 -7.56820485448545 -1.21485981388139 -0.42064823382338
 6  7.96817860186019  3.77275613061306  0.59594377837784
 6 -7.59666796379638 -2.72233181008101 -0.79383806880688
 6  6.87013698469847  1.55493443444344  0.16416393139314
 6 -6.37731042804280 -0.58397665956596 -0.16976590159016
 6  5.57251796579658  2.10558479647965  0.22825979497950
 6 -5.03603214921492 -1.14502157505751 -0.26700357835784
 6  4.48227701370137  1.29188538253825 -0.07181926692669
 6 -3.92919421642164 -0.32023424742474 -0.12806562156216
 6  3.13872136313631  1.66619101010101  0.09105322132213
 6 -2.61414687068707 -0.62203228222822 -0.27395575057506
 6  2.97372893989399  3.14396208820882  0.45442310031003
 6 -2.30678944694469 -2.07685117711771 -0.65312653865387
 6  2.10361945094509  0.74669673367337 -0.06986766676668
 6 -1.63423538353835  0.29911780078008 -0.10662461346135
 6  0.71952878187819  1.09050186418642 -0.01288996099610
 6 -0.19809967996800  0.14043644364436 -0.30706167616762
 1  13.27486606660666 -1.22429583968397  1.50036572557256
 1  12.68642214121412 -2.77358057215722  1.59606729072907
 1 -14.22031500450045 -0.89396683858386  1.32357327832783
 1 -14.16237973297330 -0.56350422232223 -0.53610546654665
 1  12.76385739273927 -2.72545185228523 -1.19168972697270
 1 -13.17142757475747  1.17376135823582  1.71017875187519
 1  14.01177576457646  0.03269584748475 -0.44688986998700
 1  13.76644220122012 -0.72452780988099 -2.07146987798780
 1 -13.46213142214221  1.95157021712171 -1.24917766076608
 1 -12.45894186718672  2.90803582368237 -0.31512047604760
 1  11.22522521152115 -2.01450987998800  2.85180987698770
 1  9.59509783678368 -1.04595439443944  2.61255801080108
 1  11.00911465346535 -0.16497536463646  2.77742112811281
 1  10.80317658065807 -3.13310808480848 -0.54891157415742
 1  10.37338634153415 -3.36564520752075  1.03827326732673
 1  9.23222053905391 -2.46936824482448 -0.10621390039004
 1 -11.70235192119212 -0.43474596849685  2.55476577357736
 1 -10.80354319331933 -1.65947849174917  1.94816860086009
 1 -12.66437733073307 -1.96820424032403  2.46949752975297
 1 -13.48451890089009 -2.88196689258926  0.32640077107711
 1 -11.85224045904591 -3.11756834573457 -0.06448355035504
 1 -12.75384324332433 -2.27642683458346 -1.29766250825083
 1  8.96427833083308 -0.23383779477948  0.50101722272227
 1 -10.19312407740774 -2.06658372227223 -0.52949675167517
 1  10.62124341634163  1.58037270727073 -2.13636569556956
 1  12.25325115411541  2.10630157305731 -1.31982759075908
 1  12.55749741974197  1.16167702260226 -2.63845653465347
 1 -11.05088948994899  2.26613217731773 -2.37329805080508
 1 -9.74735071307131  1.13260727982798 -1.91419738673867
 1 -9.92249643364336  2.72916557065707 -0.79929308530853
 1  14.80007913591359 -3.32744807190719 -0.06559827982798
 1 -15.63780847384738  1.31681898199820  1.44405550155016
 1  10.10531645064507  2.66722363036304 -0.41109428442844
 1 -8.49828456445644  0.55837043814381 -0.24807543354335
 1  8.87319500650065  4.15776915891589  0.85037087808781
 1  7.57834422142214  4.42698755975597 -0.31149749574958
 1  7.38985824582458  3.89495056305631  1.41789862786279
 1 -8.08215100910091 -3.18667332523252  0.01850656165617
 1 -8.04810918191819 -2.68261826472647 -1.84873676267627
 1 -6.60920669266927 -2.99503404330433 -1.02729816381638
 1  6.95857171217122  0.52012522752275 -0.04859273427343
 1 -6.44699167516752  0.50170766586659  0.04590946594659
 1  5.47187489248925  3.06147181918192  0.40841735073507
 1 -4.90307077807781 -2.04447212521252 -0.83329947994799
 1  4.59875306830683  0.33784853085309 -0.56981904990499
 1 -4.31124252825283  0.56863623562356  0.01086236723672
 1  3.37869349734974  3.25439732973297  1.42218545954595
 1  1.90839910091009  3.34057503950395  0.51574617661766
 1  3.44610999099910  3.82713933893389 -0.25532859085909
 1 -2.90100121512151 -2.57455974797480  0.10584291929193
 1 -2.71939065206521 -2.27154421642164 -1.61443018501850
 1 -1.40788117311731 -2.17340489048905 -0.76402494549455
 1  2.29304066706671 -0.21308458945895 -0.50232644464446
 1 -1.99412403540354  1.23840208420842  0.27359345234523
 1  0.63588388738874  2.05052047904790  0.43598560856086
 1  0.31416320132013 -0.85558572257226 -0.61926360036004

