%nproc=4
%Mem=2GB
# td=(NStates=1) CAM-B3LYP/6-31G(d,p) 

TD

0 1
 8  14.82631815681568 -2.33890682378238 -0.32648957195720
 8 -14.84730979497950  1.74538984408441  1.03105263626363
 6  11.26417876387639 -1.50512306440644  0.99923608460846
 6 -12.38160332433243 -1.06877849574957  0.57560120412041
 6  12.72748631463146 -1.89530882698270  0.93064795679568
 6 -13.76108282728273 -0.45174319421942  0.52032484448445
 6  13.42098013701370 -1.93457577967797 -0.33620716571657
 6 -13.61264055705571  1.04479314041404  0.89094034503450
 6  11.03052237923792 -0.22727035403540  0.12110881788179
 6 -11.32150851485149 -0.27036804370437 -0.24648232423242
 6  13.25693618461846 -0.63539202430243 -1.04659741374137
 6 -12.89601203920392  1.64180718781878 -0.31835118811881
 6  11.96451232023202  0.04083446634663 -0.91791443444344
 6 -11.54974556955696  1.06402303140314 -0.61114311031103
 6  10.84418545954595 -1.16499194019402  2.47370075407541
 6  10.38068868886889 -2.65600336833683  0.46281967196720
 6 -11.94952675867587 -1.37057674957496  1.97651378237824
 6 -12.57604409940994 -2.48392961486149 -0.10557929592959
 6  9.77182242324232  0.35796474947495  0.17753171317132
 6 -10.02459803180318 -0.92745548744874 -0.46037732273227
 6  11.79013489348935  1.19069424332433 -1.83186517651765
 6 -10.67611589958996  1.78604808190819 -1.57581447144714
 6  9.45884978997900  1.75094133713371  0.13464010401040
 6 -8.76372776977698 -0.40097204610461 -0.27761286328633
 6  8.10616972197220  2.22288827182718  0.07840861586159
 6 -7.55555358935894 -1.00582891079108 -0.52990915991599
 6  8.05773755775578  3.69113796879688  0.28817300130013
 6 -7.64646294329433 -2.57845742264226 -0.79664834983498
 6  6.90347031803180  1.46781572257226  0.18142565756576
 6 -6.39794249124912 -0.37379564146415 -0.40506943194319
 6  5.63358407240724  2.00390462846285  0.17429439843984
 6 -5.14134268026803 -0.91949902280228 -0.51643852185219
 6  4.47785657165717  1.27648384238424 -0.07806989198920
 6 -4.01461275827583 -0.16247847184718 -0.27753056805681
 6  3.09600709170917  1.77915230623062  0.11201531753175
 6 -2.64466992299230 -0.67923800280028 -0.41522987798780
 6  2.88131969896990  3.15207289928993  0.63159081708171
 6 -2.48129689768977 -2.04253774577458 -0.85165639163916
 6  2.09704879387939  0.84613667766777 -0.11112179217922
 6 -1.61912387238724  0.17538542754275 -0.16915086608661
 6  0.71567839683968  1.01064387838784 -0.12177084908491
 6 -0.26468633863386 -0.01593919391939 -0.11122209220922
 1  13.03634221422142 -1.11327473757376  1.50814650365037
 1  13.07810130913091 -2.76259947404741  1.47207489148915
 1 -14.64968794179418 -0.90663810571057  1.19691061206121
 1 -14.04160765576558 -0.41751962386239 -0.47121897789779
 1  12.57277828482848 -2.61835114221422 -0.90328088608861
 1 -13.06578701070107  1.06244022612261  1.76881461546155
 1  14.10419500650065 -0.08052547464746 -0.62404758575858
 1  13.40476603360336 -0.86333169026903 -2.09831256225623
 1 -13.40449565856586  1.59846490659066 -1.42607535053505
 1 -12.80365633863386  2.67587260736074 -0.16972593659366
 1  11.02638532753275 -1.95286371537154  2.98571326732673
 1  9.73635196219622 -0.83729352835283  2.45665242024202
 1  11.52315605760576 -0.39677854495450  3.01682506850685
 1  10.59860612361236 -2.95883065706571 -0.55809249224922
 1  10.51410041294129 -3.28303694669467  1.07960740074007
 1  9.44597191419142 -2.41390269826983  0.40396711771177
 1 -11.94129581558156 -0.33370586448645  2.55089538653865
 1 -10.76053889288929 -1.42936548044804  1.96189997399740
 1 -12.64941583458346 -2.00819823972397  2.54924550455046
 1 -13.53867431643164 -2.82228092399240  0.17727585858586
 1 -11.82023725872587 -3.23234982388239  0.12441533953395
 1 -12.57731559055905 -2.38943813571357 -1.25418816081608
 1  9.08018992199220 -0.29806421742174  0.41665878687869
 1 -10.27601236623662 -1.92002906680668 -0.56099990199020
 1  10.74568586058606  1.56540121012101 -2.36120817981798
 1  12.09697552655265  2.15129607250725 -1.31295690369037
 1  12.40711238123812  0.96289714461446 -2.82193488248825
 1 -11.28920332133213  2.56156172027203 -2.23027374837484
 1 -10.04583056105611  1.15102912201220 -2.21508747574758
 1 -9.97947213121312  2.29621227532753 -0.90758391439144
 1  14.76895602360236 -3.16268159525953  0.22762104210421
 1 -15.22773746674667  1.31990929102910  1.91153224922492
 1  10.33702962196220  2.39419632763276  0.09628645364536
 1 -8.92136687268727  0.73662826392639  0.08790816481648
 1  9.03107079407941  4.13779716171617  0.52074791579158
 1  7.41558794579458  4.15639050005000 -0.53789013501350
 1  7.47089634963496  3.80647171517152  1.28240507850785
 1 -8.04448724272427 -3.23403806170617 -0.18344363336334
 1 -8.22874724572457 -2.74011401430143 -1.72983487248725
 1 -6.59110488248825 -2.90947548744874 -1.05887132113211
 1  7.09467532253225  0.42039525452545  0.10253237823782
 1 -6.34732170817082  0.65401289638964  0.01813668866887
 1  5.45237294229423  3.03155882788279  0.46031254025403
 1 -5.01108157915791 -1.99408708670867 -0.76543269326933
 1  4.73924711771177  0.17863260926093 -0.09069113711371
 1 -4.32707411141114  0.89104847684768 -0.18173689268927
 1  3.75312094009401  3.31388327832783  1.49870311131113
 1  1.84126238723872  3.43492447444744  1.10881548354835
 1  3.09463484348435  3.89972659765977 -0.26683974197420
 1 -2.81684279927993 -2.56469876187619  0.12167450245025
 1 -3.06854556755675 -2.40278734073407 -1.80476921892189
 1 -1.32273265826583 -2.34143169316932 -1.11826036903690
 1  2.61512287528753 -0.10158343934393 -0.31823803580358
 1 -2.09862448544854  1.26275451945195 -0.15053896089609
 1  0.50299059805981  1.97225265226523 -0.23743173317332
 1  0.36355814081408 -1.00449061306131 -0.21792346634663

