%nproc=4
%Mem=2GB
# td=(NStates=1) CAM-B3LYP/6-31G(d,p) 

TD

0 1
 8  14.57047257225723 -2.34253718681868 -0.07712463546355
 8 -14.72703776777678  1.80606591169117  1.16701623262326
 6  10.94328667466747 -1.63740629272927  1.05216137713771
 6 -12.23012817681768 -1.08926054395440  0.71109475347535
 6  12.43134670067007 -2.06705600170017  1.18072296429643
 6 -13.56497321632163 -0.42519053895390  0.80793360536054
 6  13.10911895089509 -2.12607492959296 -0.23495704070407
 6 -13.48256754975498  1.05804446554655  1.08034928592859
 6  10.87560688768877 -0.29323695069507 -0.02313560656066
 6 -11.24946131013101 -0.36704771167117 -0.08809648564856
 6  13.11860235123512 -0.80342882798280 -0.82837559155916
 6 -12.76561899989999  1.72777578467847 -0.15461481448145
 6  11.85979184818482  0.07898828172817 -0.80085272827283
 6 -11.55879647464746  0.92715934503450 -0.62410440644064
 6  10.51704274527453 -1.16870231123112  2.45580896489649
 6  10.08981960196020 -2.75021278927893  0.56536992699270
 6 -11.74863666966697 -1.25452514441444  2.23548967996800
 6 -12.46449294429443 -2.45422664456446  0.05953721572157
 6  9.57822306330633  0.41952090509051  0.15111907190719
 6 -9.96843241524152 -1.07748048994899 -0.44008529352935
 6  11.69940582058206  1.21308648254826 -1.80017200720072
 6 -10.72508079607961  1.69058853595360 -1.45707259725973
 6  9.40485439043904  1.76205244824482  0.10126676667667
 6 -8.77176857385739 -0.54418636753675 -0.37570267226723
 6  8.09439854485449  2.35214119711971  0.13230400540054
 6 -7.48524655865587 -1.20793912181218 -0.69375554455446
 6  8.05282706670667  3.84173302830283  0.52122630663066
 6 -7.59982827982798 -2.63322289918992 -1.07150583558356
 6  6.87648761976198  1.68439738073807 -0.07015950095009
 6 -6.34735743274327 -0.57854611651165 -0.54593351835184
 6  5.63977469146915  2.16915115311531  0.05807277627763
 6 -4.96031457745775 -1.00833790669067 -0.77324420242024
 6  4.51588037403740  1.51500769476948 -0.16503858885889
 6 -3.89082037903790 -0.27068929292929 -0.46891970697070
 6  3.16963445444544  1.95624001500150 -0.08395427942794
 6 -2.53745920192019 -0.63362344134413 -0.63335169016902
 6  2.85392695969597  3.32499019101910  0.54330198819882
 6 -2.16589535753575 -2.02616610861086 -1.12904413041304
 6  2.18540762976298  0.91900396439644 -0.13417409740974
 6 -1.49999195919592  0.26525441444144 -0.42261621262126
 6  0.78122495149515  1.11013382738274 -0.15343401540154
 6 -0.09824969496950  0.14402680268027 -0.53101407140714
 1  13.19509808980898 -1.72970638073807  1.93932962196220
 1  12.25674917391739 -2.96998021212121  1.55753343734373
 1 -14.00681365436544 -0.89066650855085  1.54834575557556
 1 -14.22761625662566 -0.57107497939794 -0.08636049204921
 1  12.74088509550955 -3.04407371447145 -0.98520907890789
 1 -12.83996442844284  1.24889887198720  1.87282501650165
 1  13.89741432843284 -0.37184460656066 -0.20520570157016
 1  13.39690524752475 -0.86213157025703 -1.91786451745175
 1 -13.52856806580658  1.85835089518952 -1.07000974397440
 1 -12.43675964896490  2.78052307240724  0.10636167216722
 1  10.57464015301530 -1.99061749074907  3.12946764276428
 1  9.45136346334633 -0.84982478147815  2.55312206720672
 1  11.39788353035303 -0.47870673777378  2.64587797379738
 1  10.19429569256926 -3.07277205120512 -0.54359104210421
 1  10.14170317321732 -3.45389403240324  1.35436487648765
 1  9.08171548854886 -2.53732504050405  0.60281700270027
 1 -11.80236192219222 -0.23174566846685  2.60380067706771
 1 -10.78406124512451 -1.73979652355236  2.24548833283328
 1 -12.40817171017102 -1.83120053995400  2.82033261326133
 1 -13.32549299829983 -2.97724642054205  0.49970810181018
 1 -11.55535077007701 -3.09301589048905  0.18038093609361
 1 -12.70086794579458 -2.33163235513551 -0.97173991599160
 1  8.73318522152215 -0.02676708770877  0.15037215821582
 1 -9.96097086208621 -2.08565562946295 -0.75015881788179
 1  10.50961225322532  1.09230390039004 -2.30300235923592
 1  11.95278110711071  2.14170511341134 -1.22963857185719
 1  12.37348901890189  1.04035489038904 -2.55477816681668
 1 -11.35146954795479  1.89474503860386 -2.44991571257126
 1 -9.79405538353835  1.15005902500250 -1.67155312231223
 1 -10.32165634963496  2.77483013711371 -0.91865502150215
 1  14.64631375937594 -3.24453978107811  0.06580486048605
 1 -15.18406309930993  1.40599789988999  1.97485858185819
 1  10.33267918691869  2.42781968996900  0.11084790979098
 1 -8.44982971897190  0.31204580568057  0.18791816581658
 1  8.83118080508051  4.38976235823582  0.65953179417942
 1  7.58891527852785  4.49189405040504 -0.17184353035304
 1  7.57663692369237  4.05814688268827  1.62518935693569
 1 -8.34099689368937 -3.36075073297330 -0.42772806180618
 1 -8.16562093309331 -2.69794979787979 -2.12849473847385
 1 -6.53643941594159 -3.05725026492649 -1.08178361236124
 1  6.86794264926493  0.58554176917692 -0.21851972697270
 1 -6.27420439643964  0.39282677777778 -0.11026615161516
 1  5.64524222922292  3.05984165616562  0.48253476247625
 1 -4.81916238723872 -1.94134181218122 -1.25962211221122
 1  4.65050824382438  0.52353709970997 -0.58615068306831
 1 -4.03946535053505  0.85953532553255 -0.09057777677768
 1  3.14353998199820  3.34750664066407  1.63570681168117
 1  1.80592885388539  3.76894787678768  0.56771137313731
 1  3.63526890689069  4.11841846684668  0.39933687568757
 1 -2.61340245524552 -2.69314160616062 -0.54898256325633
 1 -2.35570428342834 -2.28122518451845 -2.36139488148815
 1 -1.18024840984098 -2.27655520552055 -0.81019956295630
 1  2.50998236123612 -0.05250853185319 -0.39473568556856
 1 -1.97272189518952  1.19677792179218  0.04054014701470
 1  0.36844714371437  2.12378780578058 -0.15015300530053
 1  0.33227501250125 -0.83137330133013 -0.92703437743774

