%nproc=4
%Mem=2GB
# td=(NStates=1) CAM-B3LYP/6-31G(d,p) 

TD

0 1
 8  14.71031655665567 -2.27549048214821 -0.08971589458946
 8 -14.74344940894089  1.88222352745275  1.34954448544854
 6  11.11005335133513 -1.41431398349835  0.99459562056206
 6 -12.34028919291929 -1.04872649054905  0.52733637763776
 6  12.54382794879488 -1.78735803190319  1.19639453145315
 6 -13.67124384338434 -0.30730875077508  0.75901871387139
 6  13.25961400040004 -1.99674199629963 -0.14875842084208
 6 -13.50922021502150  1.21815047614761  1.05627687868787
 6  10.96292561956196 -0.28687631463146  0.06732343934393
 6 -11.31432779677968 -0.14921592849285 -0.21370904690469
 6  13.24392488348835 -0.62115060016002 -0.92816557055706
 6 -12.82484492249225  1.73088609570957 -0.09394874787479
 6  11.90024589358936  0.07330771367137 -0.79746238923892
 6 -11.44480507550755  1.17159378847885 -0.51636363236324
 6  10.55536657765777 -1.12320776177618  2.37535091909191
 6  10.35070569056906 -2.66537430543054  0.45660905090509
 6 -11.74055586158616 -1.38780847274727  1.93201933293329
 6 -12.68460495549555 -2.31281250315032 -0.19773851185119
 6  9.60839608060806  0.39538849184918  0.15105906590659
 6 -10.04970054205421 -0.96531927382738 -0.38270955595560
 6  11.81375725572557  1.07234240814081 -1.93777576757676
 6 -10.53781206920692  1.96409588668867 -1.26246313631363
 6  9.31542544754475  1.69644588758876  0.06688332833283
 6 -8.81524292129213 -0.50893284218422 -0.37750285228523
 6  8.01499060406041  2.44159014201420  0.16055683068307
 6 -7.53233126712671 -1.26740506840684 -0.71862803180318
 6  7.99688147214721  3.96900575557556  0.40275445944594
 6 -7.68181647864786 -2.75119469636964 -1.18870755575558
 6  6.86269624062406  1.75716465746575  0.00034754975498
 6 -6.33166586358636 -0.60626888878888 -0.55699462446245
 6  5.53185389938994  2.23174741274127  0.18474544354435
 6 -5.00497904390439 -1.05243231613161 -0.70693757175718
 6  4.44425321132113  1.27943413741374 -0.03320540554055
 6 -3.87326862386239 -0.37184940894089 -0.42677549254925
 6  3.17541503250325  1.66815120612061  0.03317743374337
 6 -2.54454991099110 -0.80807088608861 -0.47699605460546
 6  2.73810537753775  3.16958465046505  0.39284694269427
 6 -2.16605537353735 -2.29873336533653 -0.86728795479548
 6  2.12976206520652  0.70902296629663 -0.15547622762276
 6 -1.56196815681568  0.05545343434343 -0.30597454845485
 6  0.71668849784979  0.84576739073907 -0.27026569856986
 6 -0.14791466146615 -0.14957255725573 -0.42131310131013
 1  13.30962954295430 -1.09667307740774  1.71821751075107
 1  12.62812631163116 -2.72700591469147  1.62485016901690
 1 -14.29986295929593 -0.84030147204720  1.49850077107711
 1 -14.34366786178618 -0.31902977487749 -0.06424828082808
 1  12.77183819081908 -2.61684099119912 -0.71778233623362
 1 -12.80490092209221  1.34266824892489  1.96723445744574
 1  13.97850243724372  0.02041461936194 -0.54781996299630
 1  13.60932648964897 -1.01994735183518 -1.89487221822182
 1 -13.41218642764276  1.93967902800280 -0.98938168116812
 1 -12.39530550355036  2.78546356645665  0.14012504850485
 1  10.56755944494449 -1.98741717071707  2.97847254325433
 1  9.53248157515752 -0.68161796079608  2.44047080208021
 1  11.18014175617562 -0.26508537563756  2.89365275127513
 1  10.75283154615462 -3.08225299929993 -0.48753543654365
 1  10.36418542144214 -3.41093973697370  1.20609004900490
 1  9.43062037903790 -2.28860016801680  0.22751947294729
 1 -11.50873255925593 -0.50924341824182  2.66197649464947
 1 -10.71484432343234 -1.92065460936094  1.89775355935594
 1 -12.40191108410841 -2.19435685558556  2.25194577457746
 1 -13.76402685168517 -2.70329902580258 -0.00234210321032
 1 -11.84716995199520 -2.89648623752375 -0.09793689568957
 1 -12.92408026702670 -2.05735492739274 -1.41833457545755
 1  8.79847175017502 -0.27783219421942  0.35996311731173
 1 -10.23860862586259 -2.01858892279228 -0.75522932493249
 1  10.66479777177718  1.33103777377738 -2.21057311631163
 1  12.24068989798980  2.03019396229623 -1.57707331533153
 1  12.38684035403540  0.55751660656066 -2.72961565056506
 1 -11.03661806280628  2.58766433053305 -1.79885060606061
 1 -10.01740771877188  1.22441646074607 -1.76392235923592
 1 -9.69608379237924  2.52115476957696 -0.79734289028903
 1  14.75042417041704 -2.98308363546355  0.76077435743574
 1 -15.08126281928193  1.39582688278828  2.08271936793679
 1  10.15842176117612  2.35953286128613 -0.11981515651565
 1 -8.71179591559156  0.40499510061006 -0.08336896289629
 1  9.08981666866687  4.10133351535154  0.55070091109111
 1  7.55210159715972  4.52642750375037 -0.38210455645565
 1  7.40627988798880  4.05492656065607  1.29962680068007
 1 -8.11911470547055 -3.38417307520752 -0.29497478647865
 1 -8.34908927992799 -2.86622662556256 -1.74288617761776
 1 -6.78052382438244 -3.22439697959796 -1.39116455045504
 1  7.13743959895990  0.62170538553855 -0.12134000900090
 1 -6.30103707970797  0.45669316441644 -0.29581470647065
 1  5.15973367836784  3.30813648564856  0.36063257225723
 1 -5.12300277127713 -2.20715839383938 -0.99581573157316
 1  4.62728592159216  0.21784653065307 -0.09191125912591
 1 -4.11347275127513  0.61376074807481 -0.15503422242224
 1  3.12848847684769  3.66425831583158  1.28740198119812
 1  1.65600386138614  3.23039402140214  0.25006960896090
 1  3.18773415341534  4.01903852885289 -0.07866092409241
 1 -2.77422853785378 -2.78126041804180 -0.26799446444644
 1 -2.40235894889489 -2.32833989598960 -1.97529627162716
 1 -1.09056944194419 -2.49766731673167 -0.76206474947495
 1  2.34574593759376 -0.33144642564256 -0.56312252425243
 1 -1.83515813881388  1.12190043404340  0.21507760076008
 1  0.31524182318232  1.84814024102410 -0.03439142914291
 1  0.24217600260026 -1.09256942094209 -0.66875854985499

