%nproc=4
%Mem=2GB
# td=(NStates=1) CAM-B3LYP/6-31G(d,p) 

TD

0 1
 8  14.67833335833583 -2.26702963606361 -0.21304822782278
 8 -14.58761382538254  2.07962326742674  1.31078060906091
 6  11.28745109110911 -1.45142769486949  1.11938809980998
 6 -12.27704286828683 -1.01227284518452  0.61846549054905
 6  12.73208677467747 -1.90550984708471  1.17288218021802
 6 -13.62290900990099 -0.23785180508051  0.94638745074507
 6  13.30534857385739 -1.85723804590459 -0.28328187318732
 6 -13.35326461946195  1.25470413151315  1.18033928492849
 6  10.90998032503250 -0.28224585158516  0.07862456945695
 6 -11.28097446144614 -0.23616462336234 -0.24077175317532
 6  13.22705319631963 -0.45013349844985 -0.78549130313031
 6 -12.65488792679268  1.89430243734373  0.05387603460346
 6  11.86635250425043  0.25245562846285 -0.75359800280028
 6 -11.47353794879488  1.12577920702070 -0.44446644264426
 6  10.83339438043804 -0.95663110411041  2.52662604660466
 6  10.35978659865987 -2.68146591459146  0.75350874087409
 6 -11.62740454645465 -1.29298899079908  2.04181031203120
 6 -12.58855535053505 -2.36322754465447 -0.04668340634063
 6  9.70355559655965  0.36252520552055  0.27003096309631
 6 -10.06735230723072 -0.93236597849785 -0.62085337033703
 6  11.57694357435744  1.27430260416042 -1.75032702270227
 6 -10.64907319531953  1.81946142324232 -1.47665455545555
 6  9.33850775577558  1.70693693669367  0.05363200320032
 6 -8.84040543754375 -0.54030597949795 -0.50459556155616
 6  8.13393249824982  2.39116509950995  0.12831360636064
 6 -7.59424745874587 -1.23149147704770 -0.74425059405941
 6  7.95135691969197  3.85798465346535  0.43217740174017
 6 -7.79037733473347 -2.70269984688469 -1.06518520352035
 6  6.90411038203820  1.60743968496850  0.02917043204320
 6 -6.42104480148015 -0.64416267816782 -0.65863478847885
 6  5.51500221422142  1.98543278127813  0.16166313531353
 6 -5.08663720972097 -1.23104017691769 -0.75178205620562
 6  4.41529031503150  1.20889708370837 -0.09078116311631
 6 -3.98387968496850 -0.42106433043304 -0.64851766676668
 6  3.04878236923692  1.63118750975098  0.07733184918492
 6 -2.64115957195720 -0.90726080508051 -0.66828518351835
 6  2.86178774577458  2.99457714971497  0.42767042504250
 6 -2.32927169516952 -2.35168866086609 -1.16142736873687
 6  1.95397448644864  0.72822488648865 -0.30257093709371
 6 -1.63955591559156  0.05241313031303 -0.40008395939594
 6  0.57760458945895  0.94165697969797 -0.25164383638364
 6 -0.28552842284228 -0.13486108610861 -0.54940591059106
 1  13.39605818581858 -1.25778918901890  1.63868955795580
 1  12.75518901790179 -2.77605081918192  1.65658334233423
 1 -14.32342531553155 -0.63809125102510  1.85755667666767
 1 -14.28371186618662 -0.27336520842084 -0.00547240324032
 1  12.94109511651165 -2.40204951205121 -1.11988254625463
 1 -12.63451388338834  1.46390037213721  1.98690642464246
 1  13.90434502150215  0.20381295919592 -0.25676085708571
 1  13.62202775977598 -0.62966832393239 -1.84020675167517
 1 -13.33318852785279  2.06385144524452 -0.67698044104410
 1 -12.27588356135614  2.83262828292829  0.34999603560356
 1  11.40090277927793 -1.65305373437344  3.30646534253425
 1  9.76167449444944 -1.13799359835984  2.67779453445345
 1  11.32082582458246  0.16162729562956  2.73475686168617
 1  10.68733499649965 -3.01602637663766 -0.10086676967697
 1  10.22793179607961 -3.51684032703270  1.42341178117812
 1  9.31703902090209 -2.33753506150615  0.79832655365536
 1 -11.35348703470347 -0.33443593749375  2.44796509350935
 1 -10.48441128012801 -1.59656220012001  1.88044182818282
 1 -12.12096298929893 -1.76551397129713  2.80412099209921
 1 -13.47382783178318 -2.91836053195320  0.50465859685969
 1 -11.83989922492249 -3.02383897279728  0.02317521552155
 1 -12.83053091209121 -2.27430662256226 -1.08213095509551
 1  8.92727463046305 -0.35656006700670  0.77680480148015
 1 -9.94440920592059 -1.98791585548555 -0.87902170417042
 1  10.48695998799880  1.65884055405541 -1.74154621362136
 1  12.25386121512151  2.10187113001300 -1.52826843484348
 1  11.76523819381938  0.81856271117112 -2.75144783378338
 1 -11.29574397539754  2.33331889598960 -2.21163188418842
 1 -9.77451342934293  1.44351837093709 -1.92190815781578
 1 -10.19505368936894  2.62262491659166 -0.92913606960696
 1  14.67979710771077 -3.33892922002200 -0.13243496349635
 1 -15.02601729472947  1.46419371947195  2.03944504050405
 1  10.08487440644064  2.35001190919092 -0.30781395639564
 1 -8.62067680368037  0.62687728882888 -0.24128475447545
 1  8.78459614661466  4.43467684968497  0.62201804280428
 1  7.30949733673367  4.53472833383338 -0.26265261126113
 1  7.37321658165817  4.06171723972397  1.50531736973697
 1 -8.04625741974198 -3.27484214211421 -0.08162345134513
 1 -8.56818118911891 -2.89740974387439 -1.75743763276328
 1 -6.97447321932193 -3.14639917981798 -1.33534896889689
 1  7.06108196319632  0.61200441544154 -0.25416329132913
 1 -6.45290226622662  0.50801829692969 -0.30283540854085
 1  5.41579928492849  2.97763343534353  0.67848435743574
 1 -4.90331080208021 -2.18359603760376 -1.05768191819182
 1  4.46517971097110  0.27617236323632 -0.49423149114911
 1 -4.04698610261026  0.62827219921992 -0.25262398139814
 1  3.30981660966097  3.31143303330333  1.23715695669567
 1  1.75988424942494  3.17114809680968  0.65022962496250
 1  3.25874125412541  3.53933055805581 -0.39808286628663
 1 -3.03648476347635 -3.04439673167317 -0.61472913791379
 1 -2.41484019701970 -2.21077813981398 -2.24398314031403
 1 -1.24165455045505 -2.68005555555556 -0.87691623462346
 1  2.37408877187719 -0.35429871087109 -0.95911212321232
 1 -1.86014063706371  0.99595783978398 -0.06561046804680
 1  0.19213951295130  1.78051347834783  0.53092510251025
 1  0.06079786478648 -1.02588275227523 -1.02779445344534

