%nproc=4
%Mem=2GB
# td=(NStates=1) CAM-B3LYP/6-31G(d,p) 

TD

0 1
 8  14.70353587858786 -2.36114904800480 -0.29621654465447
 8 -14.89610467446745  1.86423172827283  0.66527605860586
 6  11.16113845984598 -1.50471302340234  0.94689085008501
 6 -12.28379354335434 -1.07532915081508  0.54130777477748
 6  12.60063362936294 -1.88403769986999  0.94450934293429
 6 -13.72671939093909 -0.35459347924792  0.61417422942294
 6  13.28973701270127 -2.06886920902090 -0.38793233823382
 6 -13.55885517851785  1.17951661276128  0.81455270627063
 6  10.84412373937394 -0.37802542954295 -0.12044533753375
 6 -11.26346271027103 -0.34168517541754 -0.29788746474647
 6  13.10873136413641 -0.66256474157416 -1.18227098109811
 6 -12.66292873087309  1.69208221532153 -0.28591794479448
 6  11.76807267626763 -0.03226284338434 -0.96530917391739
 6 -11.46619721472147  0.95935256435644 -0.77457945394539
 6  10.83369441044104 -1.04830027102710  2.39637302130213
 6  10.32783340334033 -2.76968473647365  0.48040143014301
 6 -11.75376718271827 -1.28084777667767  1.97273340434043
 6 -12.60337683268327 -2.56002722462246  0.05822708470847
 6  9.59376461746175  0.30002895589559  0.06483044304430
 6 -9.94803037503750 -1.11633437533753 -0.46915820082008
 6  11.56832271227123  1.18137331123112 -1.99631162116212
 6 -10.41446973497350  1.67234671177118 -1.61384827482748
 6  9.38272217721772  1.67268351135114  0.06321296129613
 6 -8.79195059205921 -0.45683763266327 -0.29609471147115
 6  8.10356946194619  2.39482546554655  0.16388716371637
 6 -7.61624965896590 -1.17755608350835 -0.53556972597260
 6  8.02685446944695  3.85378423342334  0.51778596259626
 6 -7.62981127812781 -2.65075465236524 -0.81599028402840
 6  6.90969094009401  1.68280722172217 -0.03641612661266
 6 -6.40100279727973 -0.52717097899790 -0.39688861386139
 6  5.66781749574958  2.17062130013001  0.25977294629463
 6 -5.05929447544754 -1.01370844374437 -0.55419229722972
 6  4.48203698969897  1.42131832583258  0.05624353935394
 6 -3.91343264026403 -0.23200542454245 -0.27147996299630
 6  3.05155264626463  1.71500589158916  0.36786090209021
 6 -2.55494095009501 -0.57587766676668 -0.39152750775078
 6  2.84657622462246  3.20403809580958  0.91161881988199
 6 -2.26530529852985 -1.96781027302730 -0.85348657465747
 6  2.16123521252125  0.76877894189419  0.04386370637064
 6 -1.51439339933993  0.30029791879188 -0.19248319931993
 6  0.73303013201320  0.97875068906891  0.27753908190819
 6 -0.17528739873987  0.03328572857286 -0.14352532253225
 1  13.33557213721372 -1.06694010411041  1.47973366236624
 1  12.75296879587959 -2.85548876297630  1.50568825282528
 1 -14.42558553155316 -0.69496693859386  1.39264018501850
 1 -14.20626412141214 -0.49600747264726 -0.36659851585159
 1  12.74285529252925 -2.63037234433443 -0.97023758175818
 1 -13.09992042404240  1.32732671477148  1.86283401740174
 1  13.94219880688069  0.09626220412041 -0.92298747974797
 1  13.17586314331433 -0.93818917601760 -2.33588631963196
 1 -13.24675988498850  1.93478853895390 -1.26901964496450
 1 -12.37972394539454  2.70667568766877 -0.09763872787279
 1  11.08851154015402 -1.84805323432343  3.04228892489249
 1  9.81224955195520 -0.88129792879288  2.53236999199920
 1  11.55234897689769 -0.16020488758876  2.70574396039604
 1  10.62666892989299 -2.87398217221722 -0.65620230323032
 1  10.37310631353135 -3.64759340234023  1.05891533153315
 1  9.31079839683968 -2.50233154115412  0.35707242824282
 1 -11.71976366236624 -0.26261875577558  2.50431072807281
 1 -10.87514035303530 -1.96888943284328  1.98069185318532
 1 -12.43795468846885 -1.79911733163316  2.61861244124412
 1 -13.79161961096110 -2.57787648354836  0.45498362936294
 1 -11.82156739173917 -3.23987057595760  0.27325022302230
 1 -12.61854971397140 -2.45374456635664 -1.15536827882788
 1  8.80978288128813 -0.22711712271227  0.53960108110811
 1 -10.11271603660366 -2.14364142804280 -0.49104290629063
 1  10.55389668166817  1.33844851485149 -2.28863092209221
 1  11.95498132713271  1.89602054495450 -1.69168477647765
 1  12.03374504450445  0.99272012691269 -2.94340702970297
 1 -11.07957235823582  2.27479304340434 -2.41671239223922
 1 -9.79307528552855  0.96946096519652 -2.26709267626763
 1 -9.80403458745874  2.44653730783078 -1.00800395639564
 1  14.92334146214622 -3.39551487858786 -0.27988970897090
 1 -15.40322501550155  1.67907520762076  1.55361645764576
 1  10.21427734673467  2.36844375237524 -0.13889706470647
 1 -8.49944468046805  0.59599420052005 -0.00607123312331
 1  9.09101678867887  4.10103348534853  0.91305714671467
 1  7.71033742074207  4.50628548954895 -0.12419876587659
 1  7.18982824282428  4.04378544654466  1.28559539753975
 1 -7.74960775477548 -3.39860451835183  0.12837754875488
 1 -8.34869924092409 -2.65352535543554 -1.37701959095910
 1 -6.69834560656066 -3.04212875277528 -1.32237767176718
 1  6.96087194219422  0.60745396039604 -0.24598247324733
 1 -6.52898987498750  0.71617911301130 -0.35259038403840
 1  5.63048075307531  3.29774544654465  0.58800530953095
 1 -5.03580405140514 -2.14832251025102 -0.41663781378138
 1  4.46498969196920  0.45180992699270 -0.26594866286629
 1 -4.00421182518252  0.95103447544754 -0.06791551055105
 1  2.94514014201420  3.19107099709971  1.84950819181918
 1  1.72738099909991  3.38110909290929  0.67267186918692
 1  3.34098947894790  3.77390401540154  0.38066500850085
 1 -2.87230834583458 -2.61098339033903 -0.12229989498950
 1 -2.56653536653665 -2.21079814181418 -1.76456519851985
 1 -1.11787217221722 -2.40102765276528 -0.61503004600460
 1  2.39877124012401 -0.25450873187319 -0.20728694069407
 1 -1.90046466946695  1.19514775877588  0.39471556455646
 1  0.43667396639664  1.94826025302530  0.60886289628963
 1  0.14623640864086 -0.91145130913091 -0.44916659065907

