%nproc=4
%Mem=2GB
# td=(NStates=1) CAM-B3LYP/6-31G(d,p) 

TD

0 1
 8  14.61691721672167 -2.36399933303330 -0.45967289028903
 8 -14.82181724572457  1.82766807190719  0.94898442944294
 6  11.16365871187119 -1.44320687278728  1.02670883188319
 6 -12.31222638663866 -1.09721133903390  0.65704934893489
 6  12.63655722172217 -1.89286858295830  1.09226411841184
 6 -13.76975369436944 -0.32778079797980  0.58098091009101
 6  13.21599963896390 -1.91494381648165 -0.35873941894189
 6 -13.61766105910591  1.15271393249325  0.84384563556356
 6  11.07058638563856 -0.25245287228723  0.04340104710471
 6 -11.23977034103410 -0.22402340924092 -0.16945462146215
 6  13.26576706770677 -0.62207069216922 -0.93754650865087
 6 -12.72499493749375  1.73289629672967 -0.23161251425143
 6  11.92814868386839  0.19798018091809 -0.86397904090409
 6 -11.50506110111011  1.03746037513751 -0.62871486748675
 6  10.68810985198520 -1.09035447644764  2.52824620862086
 6  10.34633525352535 -2.68402617061706  0.55858924892489
 6 -11.77153895989599 -1.39003869576958  2.01246737773777
 6 -12.52505900090009 -2.38022924482448  0.01056231823182
 6  9.67484272527253  0.26684563756376  0.17378133813381
 6 -9.97470304230423 -1.01117385928593 -0.41650293529353
 6  11.67066294629463  1.25002017591759 -1.75545753575358
 6 -10.57608589658966  1.70888036513651 -1.50243713371337
 6  9.39600350535054  1.62642888588859  0.10507714771477
 6 -8.70592198919892 -0.45261721062106 -0.32088719071907
 6  8.03746285128513  2.21202718571857  0.23251402640264
 6 -7.57160519451945 -1.11417974587459 -0.61809797879788
 6  7.94699648364837  3.70045890089009  0.63922810681068
 6 -7.64135243224322 -2.61528110501050 -0.91575026002600
 6  6.90022999399940  1.59654859585959 -0.08847133213321
 6 -6.27640033703370 -0.60439870177018 -0.25024394939494
 6  5.58290900490049  2.05302954095410  0.18593556255626
 6 -5.05547409340934 -1.05997307020702 -0.48119499749975
 6  4.43406219221922  1.35341153515352 -0.29020110511051
 6 -3.99174047104710 -0.25368759275928 -0.25755857085709
 6  3.11699919091909  1.76373076407641 -0.00416630063006
 6 -2.56912236823682 -0.68123820282028 -0.41858021302130
 6  2.79662122912291  3.15151284328433  0.50574823282328
 6 -2.29994876287629 -2.10051354335434 -0.98996022202220
 6  2.15880496949695  0.79377144114411 -0.22028270827083
 6 -1.55517747774777  0.23579146814681 -0.33266721772177
 6  0.74697152615262  0.99209202320232 -0.12559123112311
 6 -0.19055892589259  0.07776017601760 -0.39100007000700
 1  13.42931151115111 -1.14864827492749  1.49141483048305
 1  12.68670216921692 -2.78965217931793  1.52974065806581
 1 -14.24268724172417 -0.74704214611461  1.61427234823482
 1 -13.94305780078008 -0.59243711561156 -0.49488134413441
 1  12.61618262526253 -2.70733004010401 -0.79297985598560
 1 -13.27255768776878  1.51740572267227  1.84818255225523
 1  14.09403399039904  0.07083966186619 -0.37822300330033
 1  13.45800135713571 -0.55761111821182 -2.02612534353435
 1 -13.53519872887289  1.69225428552855 -0.95113785678568
 1 -12.32176814981498  2.92620764086409 -0.03773273727373
 1  11.01658434743474 -2.08146657565757  3.28750344634463
 1  9.65314364136414 -0.82718251725172  2.76882363736374
 1  11.35981972397240 -0.30007887498750  2.76507989398940
 1  10.46974323732373 -3.33465823982398 -0.29942662566257
 1  10.33548255115511 -3.23123176617662  1.44623406340634
 1  9.24338165516552 -2.49559086708671  0.53252997399740
 1 -11.71590327632763 -0.47993048694869  2.63691398839884
 1 -10.80322316131613 -1.87692023592359  1.89732351635164
 1 -12.51443233623362 -1.91124854475448  2.53274385438544
 1 -13.48514896389639 -2.90832952885289  0.27518564956496
 1 -11.75655089008901 -3.12799938883888  0.38968186618662
 1 -12.43180103910391 -2.38488768066807 -1.24994773677368
 1  8.82797470047005 -0.44332874387439  0.37629475047505
 1 -10.09994475947595 -1.98120518441844 -0.44150795279528
 1  10.66344763676367  1.71387605760576 -1.72005406440644
 1  12.32440826982698  2.04925586848685 -1.39411501950195
 1  11.80476214621462  0.79770062496250 -2.94203689268927
 1 -11.20848524952495  2.82177774187419 -1.79660038103810
 1 -10.06157213521352  0.98289230833083 -2.41670763776378
 1 -9.65813999799980  1.97996065016502 -0.92591574757476
 1  14.54879400740074 -3.35427075417542 -0.09691141114111
 1 -15.21236592959296  1.71574887498750  1.92791388738874
 1  10.28081400040004  2.45427233523352  0.19247607260726
 1 -8.72629736573657  0.81526612771277 -0.16196682268227
 1  8.86017370437044  4.06571995399540  0.98510435143514
 1  7.48451483848385  4.03778863986399 -0.21384773077308
 1  7.38496775677568  3.64494556255626  1.63320015801580
 1 -7.86752954695470 -3.04939959785979  0.23557826882688
 1 -8.69194356535654 -2.98193819671967 -1.62567445644564
 1 -6.80462623462346 -3.26245078497850 -1.33530896489649
 1  6.98945480048005  0.50255347034704 -0.27976585158516
 1 -6.43033000900090  0.36327382248225  0.33398827382738
 1  5.45780348534853  3.05820149214922  0.46547305630563
 1 -5.11829230023002 -2.13359103710371 -0.89974612461246
 1  4.79577277027703  0.50892563856386 -0.78038010601060
 1 -4.16592799679968  0.87319669166917  0.01062234323432
 1  2.77283291129113  3.39161105110511  1.69928316931693
 1  1.85669393039304  3.54871585358536  0.01418602060206
 1  3.62334771477148  3.86842346734674  0.16112305430543
 1 -2.85970708570857 -2.86101839383938 -0.27877554255426
 1 -2.85504421742174 -2.40155721772177 -1.69258800080008
 1 -1.30011039603960 -2.22385993599360 -1.05547409040904
 1  2.31019238223822 -0.14692797379738 -0.84814102610261
 1 -1.65329995299530  1.39988823282328 -0.18207211421142
 1  0.17051735073507  1.97446287328733  0.21177318731873
 1  0.16129791479148 -0.95522568656866 -0.66416809080908

