%nproc=4
%Mem=2GB
# td=(NStates=1) CAM-B3LYP/6-31G(d,p) 

TD

0 1
 8  14.56613213821382 -2.43799673277328 -0.32653957695770
 8 -14.81607667166717  1.77084238933893  0.92392192319232
 6  11.02214456045605 -1.57544009610961  0.94126028702870
 6 -12.31381654565457 -1.06873849174918  0.63861750575058
 6  12.49579314531453 -1.99356865296530  0.92229712171217
 6 -13.66759347834783 -0.44322234213421  0.73626643864386
 6  13.19447748674868 -2.07360968306831 -0.38007155215522
 6 -13.63317261026103  1.05012367346735  0.88650990199020
 6  10.85349467646765 -0.31081870887089  0.08887559455946
 6 -11.25648201220122 -0.26323733063306 -0.17659533553355
 6  13.22051254225422 -0.66382486758676 -0.89785253925393
 6 -12.78539097709771  1.66179918701870 -0.34328368136814
 6  11.86455232423242  0.06246662956296 -0.74976761976198
 6 -11.46561715671567  0.97352398149815 -0.61040303630363
 6  10.62835387638764 -1.33102854385439  2.40349373337334
 6  10.18140876087609 -2.73825159315932  0.34020741074107
 6 -11.79644145014501 -1.42938263016302  1.98210434143414
 6 -12.59421591659166 -2.43954517641764 -0.21909064706471
 6  9.52293753475347  0.36766571957196  0.12841680168017
 6 -10.01993756575658 -1.01701444334433 -0.29496078107811
 6  11.67639351935193  1.16465163906391 -1.73668565856586
 6 -10.67357564556456  1.72963244034403 -1.61112800280028
 6  9.40307421242124  1.71278752175218  0.19407604760476
 6 -8.73108450545054 -0.45150709960996 -0.32622772477248
 6  8.10372947794779  2.37936391939194  0.25644641964196
 6 -7.50824885888589 -1.17560588848885 -0.51092726172617
 6  8.00159194319432  3.87830668566857  0.59564374837484
 6 -7.54867316431643 -2.63835341224122 -0.73105179017902
 6  6.93286325732573  1.57705664666467  0.18435595059506
 6 -6.31070376737674 -0.48447670957096 -0.37821674667467
 6  5.66847756175618  2.20801503950395  0.14631160016002
 6 -4.99703824982498 -1.03401047394739 -0.49831670967097
 6  4.50094888088809  1.51792798679868 -0.27005909090909
 6 -3.85017631463146 -0.34472669666967 -0.18197101210121
 6  3.19017650865087  1.94756914791479 -0.14409029302930
 6 -2.47772322832283 -0.66938701770177 -0.38096645164516
 6  2.97821938893889  3.41350904290429  0.29550720872087
 6 -2.23518228622862 -2.09953344534453 -0.85692691869187
 6  2.15518460746075  1.01641370537054 -0.24427510751075
 6 -1.51214317431743  0.26636452545255 -0.16036998799880
 6  0.78727555655566  1.22377519151915 -0.15627429942994
 6 -0.14825469546955  0.17696009600960 -0.21744271427143
 1  13.02659123912391 -1.37009041914191  1.54227991699170
 1  12.66249974897490 -3.04934814891489  1.32367005100510
 1 -14.21091406440644 -0.94635207710771  1.54520544154415
 1 -14.31233472847285 -0.75806367826783 -0.09017087308731
 1  12.66209721672167 -2.68034734183418 -1.21613217121712
 1 -12.82957338933893  1.48610259235924  1.68821655565557
 1  14.23870845784579 -0.14660208230823 -0.66767194819482
 1  13.36079163616362 -0.77530288738874 -1.90575330633063
 1 -13.49162437143714  1.46290135023502 -1.33467621062106
 1 -12.83695966896690  2.75674069416942 -0.34279324332433
 1  10.87183987298730 -2.32017044604461  3.00160485648565
 1  9.66255458245825 -1.34730452945295  2.52939969496950
 1  11.37910165216522 -0.49432829992999  2.84323770977098
 1  10.53680994399440 -3.13077785178518 -0.69886656965697
 1  10.15113411631163 -3.50636927992799  1.09447888788879
 1  8.98771608860886 -2.44682599059906 -0.03600687968797
 1 -11.55690737673767 -0.51111360526053  2.64416471347135
 1 -10.68496133513351 -1.92659520342034  1.63864764876488
 1 -12.34319521252125 -2.09700712061206  2.72250283028303
 1 -13.55836628562856 -2.83207190309031  0.19582771377138
 1 -11.80264549954996 -3.15835242414241 -0.08375547754775
 1 -12.72003986298630 -2.27359655155516 -1.25736847884788
 1  8.59201110411041 -0.27371178217822  0.35672279327933
 1 -9.87149191419142 -2.10368743264326 -0.36180998299830
 1  10.62722401440144  1.20879554955496 -2.21984404340434
 1  12.25548137713771  2.09277021992199 -1.13511911991199
 1  12.24408607860786  1.08591944684468 -2.63473616261626
 1 -11.27619202020202  2.34625018911891 -2.21617233823382
 1 -9.79643562156216  1.29960397949795 -1.96739270627063
 1 -10.05700988498850  2.48135078917892 -0.84782793879388
 1  14.40184931293129 -3.05841116821682  0.63344162416242
 1 -15.38152284528453  1.17201450155016  1.50099119511951
 1  10.32558847784779  2.36607351535153  0.26118294329433
 1 -8.57346208220822  0.67456205730573  0.03336271027103
 1  9.02819050605060  4.44748813081308  0.43026886788679
 1  7.27519390639064  4.14608946994700 -0.07478382438244
 1  7.83832309230923  4.27901896989699  1.55285212321232
 1 -8.08593138713871 -3.34640929882988  0.01655636663666
 1 -8.36402077307731 -2.88516851975197 -1.43002489148915
 1 -6.61509728172817 -3.12019655955596 -0.92697813181318
 1  6.96887274227423  0.60370358535854 -0.27968584358436
 1 -6.49652662866287  0.53230072517252  0.03034790979098
 1  5.45616332133213  2.99845551755176  0.62520902990299
 1 -4.90539101010101 -2.13875155315531 -0.89355550555056
 1  4.62310550355036  0.44785953195320 -0.42558462646265
 1 -3.77755915991599  0.69674904690469  0.26448772977298
 1  3.29672530053005  3.44484637463746  1.45560880188019
 1  1.87955621662166  3.75741672367237  0.17253185518552
 1  3.70214559455946  4.01066769176918 -0.20608366636664
 1 -2.40018113311331 -2.68705099709971  0.04630696569657
 1 -3.14773348634863 -2.28229529152915 -1.48429717171717
 1 -1.24872525752575 -2.37362491249125 -1.16636517951795
 1  2.41609297229723  0.02460917991799 -0.64494070607061
 1 -1.72462708570857  1.06932517651765  0.27989408240824
 1  0.31229152815282  2.12877830483048  0.20644265426543
 1  0.21298308330833 -0.94754491849185 -0.48100977497750

