%nproc=4
%Mem=2GB
# td=(NStates=1) CAM-B3LYP/6-31G(d,p) 

TD

0 1
 8  14.66800232523252 -2.29058199129913  0.04398747574757
 8 -14.83682874687469  1.81802710781078  1.25275480648065
 6  11.17002934893489 -1.43103565566557  1.00463662466247
 6 -12.34363952795279 -1.13390500840084  0.54035767976798
 6  12.61819538553855 -1.76868616471647  1.25332022402240
 6 -13.60854757375738 -0.33980200010001  0.70725353735374
 6  13.33664170317032 -1.88084040614061 -0.07898144314431
 6 -13.48253754675468  1.11912057315732  1.10396164716472
 6  10.91971129812981 -0.14733236023602  0.07509421642164
 6 -11.20366673067307 -0.18243925082508 -0.17226490249025
 6  13.33555404640464 -0.53568205330533 -0.81200395439544
 6 -12.70605304330433  1.83479648674867  0.00003065006501
 6  11.86070193919392  0.14021440434043 -0.89704234723472
 6 -11.43508410341034  1.11392802190219 -0.39278127412741
 6  10.64862590359036 -1.14417985898590  2.37448083208321
 6  10.27284790479048 -2.65590335833583  0.44611800180018
 6 -11.67273907990799 -1.55244493639364  1.94997112811281
 6 -12.65644213921392 -2.42290351225123 -0.24584332233223
 6  9.64924016501650  0.44239319231923  0.21207516751675
 6 -10.05479105110511 -0.90698344024402 -0.48069935493549
 6  11.76159203920392  1.25062023592359 -1.81146313631363
 6 -10.59714800280028  1.95945542264226 -1.29154604460446
 6  9.38524242924293  1.69841608460846 -0.01473483348335
 6 -8.76030742774277 -0.38494044294429 -0.40484558655866
 6  8.05234433943394  2.30306628962896  0.07042781778178
 6 -7.63168120212021 -1.13788211611161 -0.72581875087509
 6  7.83649543354335  3.76980583558356  0.51032521652165
 6 -7.67219551655166 -2.55413499039904 -1.10991967696770
 6  6.96755672667267  1.53943288428843 -0.12857534253425
 6 -6.38219091609161 -0.37149541144114 -0.54223314831483
 6  5.61641235523552  1.95134937293729 -0.13016604760476
 6 -5.07245579157916 -0.98529560246025 -0.69488636663666
 6  4.53020180618062  1.12682887688769 -0.30924300930093
 6 -3.95193649064906 -0.27065928992899 -0.50606342134213
 6  3.10657814881488  1.59370376137614 -0.09662554655466
 6 -2.65954141014101 -0.72051213021302 -0.43888224322432
 6  2.86146771377138  3.04943263526353  0.36048370637064
 6 -2.46385515351535 -2.24379787178718 -0.59272049804981
 6  2.17137622662266  0.56639870387039 -0.23353403340334
 6 -1.57743970397040  0.17928581758176 -0.26255020602060
 6  0.78254508350835  0.97109992399240 -0.17125579757976
 6 -0.21616148614861 -0.09841744174417 -0.30582155215522
 1  13.10288886888689 -0.93448685878588  1.82917860686069
 1  12.85988948794880 -2.68364157825783  1.77527521152115
 1 -14.42290526352635 -0.89283672557256  1.52204312531253
 1 -14.13569706470647 -0.06659453135314 -0.34593644964496
 1  12.75584659165917 -2.52480178727873 -0.75523608160816
 1 -12.82029246124612  1.12231621372137  2.01006874087409
 1  14.17162174917492 -0.14565198729873 -0.18462364336434
 1  13.60554611161116 -0.79062441954195 -1.68474120512051
 1 -13.37245245424542  2.25956101620162 -0.77584032703270
 1 -12.40221619461946  2.81921694179418  0.44925596159616
 1  11.06379906890689 -1.83597202620262  3.14591928792879
 1  9.70172849984998 -1.10256005500550  2.33260001500150
 1  11.07814155615562 -0.14401326842684  2.71738512451245
 1  10.25897216021602 -2.70774554855486 -0.70718740174017
 1  10.37516651955195 -3.52027067006701  1.18587802780278
 1  9.25736305330533 -2.27313862186219  0.42989971097110
 1 -11.59675136113611 -0.59084157805781  2.37649794679468
 1 -10.70110294929493 -1.98855139903990  1.80087387138714
 1 -12.47399829282928 -2.24531195109511  2.30026060606061
 1 -13.47665811481148 -3.18066676257626  0.10691882288229
 1 -11.83272850785078 -3.05147173607361 -0.36518362036204
 1 -13.02902076107611 -2.25378457035703 -1.18624136613661
 1  8.75615751875188 -0.27009142014201  0.52708982998300
 1 -10.20827559255926 -1.93495055895590 -0.57748155015502
 1  10.84163545554555  1.34718938893889 -2.31623368236824
 1  12.04399022802280  2.26448739163916 -1.42505811381138
 1  12.49153082308231  0.89261011591159 -2.57112980198020
 1 -11.36488088908891  2.50062562666267 -2.03619434043404
 1 -9.78756473447345  1.41067508660866 -1.86220218721872
 1 -10.03259744374437  2.60915356945695 -0.56465962196220
 1  14.69318844684468 -3.38340366746675 -0.04347606760676
 1 -15.19533422642264  0.93913121322132  1.86369746574657
 1  10.26165208420842  2.41976888488849  0.02760958595860
 1 -8.65539027502750  0.70278487958796 -0.26799742574257
 1  8.88885657265726  4.07267064906491  0.87781362236224
 1  7.60951733873387  4.51773663466347 -0.34774112011201
 1  7.04697395739574  4.01984305230523  1.40741757975798
 1 -8.10170296429643 -3.00402506040604 -0.15491078007801
 1 -8.35431980298030 -2.72042204510451 -2.03622551155116
 1 -6.81187695969597 -3.05661020092009 -1.36045147914792
 1  7.10776663166317  0.60456367136714 -0.67376525152515
 1 -6.36975395139514  0.63942143724373 -0.25864098909891
 1  5.53277098209821  2.99808548054805  0.09043555255526
 1 -4.95992646364636 -2.15134281228123 -1.03942009200920
 1  4.62496568956896  0.11012575857586 -0.51621368936894
 1 -4.21091249524953  0.81783115511551 -0.35535425442544
 1  3.19871549954996  3.11784367436744  1.38834207520752
 1  1.82835109610961  3.32160314231423  0.34922952495250
 1  3.31430681068107  3.76055268026803 -0.20249330733073
 1 -3.15378649364936 -2.78265055705570  0.21955429042904
 1 -2.75249396239624 -2.42291935393539 -1.63539228122812
 1 -1.40533091809181 -2.50249779977998 -0.51053959695970
 1  2.40351171417142 -0.52466574757476 -0.64702091409141
 1 -2.10945556855686  1.13055129912991 -0.18274218121812
 1  0.44286458545855  1.87781320832083 -0.08182617261726
 1  0.01978376337634 -1.21363152715272 -0.41854352835284

