%nproc=4
%Mem=2GB
# td=(NStates=1) CAM-B3LYP/6-31G(d,p) 

TD

0 1
 8  14.60003552855286 -2.18890182328233 -0.09206612961296
 8 -14.78974403840384  1.90888619371937  1.06152568356836
 6  11.01206355235523 -1.41149370147015  1.02665882688269
 6 -12.37030219421942 -0.95658727662766  0.70913455745575
 6  12.53611717771777 -1.86232552865287  1.17760265226523
 6 -13.60858757775778 -0.20605862576258  0.70105291729173
 6  13.28635667466747 -1.92142446454645 -0.17932147714771
 6 -13.55907520052005  1.22338099919992  1.09129038003800
 6  10.94923425042504 -0.23311093809381  0.13562026902690
 6 -11.24522088608861 -0.15264627152715 -0.01499917591759
 6  13.17130762176217 -0.54733321842184 -0.78737149114911
 6 -12.68269070707071  1.85719872697270 -0.01079043204320
 6  11.84798066706671  0.12329271217122 -0.86769941294129
 6 -11.41880247524752  1.11308793789379 -0.34572656865687
 6  10.71044208520852 -0.92830827182718  2.44002738673867
 6  10.13881450145015 -2.62079984798480  0.61366475647565
 6 -11.87192899889989 -1.29446913881388  2.11207733873387
 6 -12.61198769376938 -2.35460668256826  0.09390065206521
 6  9.55380062106211  0.33649260226023  0.11022498249825
 6 -10.03838941094109 -1.00568331023102 -0.25884716971697
 6  11.62884876487649  1.15539071297130 -1.85974796479648
 6 -10.58139642764276  1.73085256235624 -1.28543543354335
 6  9.30278418341834  1.69280552355236  0.17713435343534
 6 -8.72969436643664 -0.57494944384438 -0.29476457845785
 6  8.02045115011501  2.28648463146315  0.26356713171317
 6 -7.52534056805681 -1.27086541444144 -0.55941211021102
 6  7.98845062906291  3.73741259625963  0.58528271227123
 6 -7.64374267126713 -2.78692826972697 -1.03698238323832
 6  6.87979795079508  1.58311725272527  0.07838535353535
 6 -6.31419411641164 -0.68828709060906 -0.42629155415542
 6  5.61421213521352  2.07116135413541  0.09774674367437
 6 -4.96697524352435 -1.03218029092909 -0.90718759675968
 6  4.50352913891389  1.31096729072907 -0.08609069406941
 6 -3.86088738573857 -0.31833405740574 -0.52207502250225
 6  3.22246973797380  1.67235162616262 -0.07607349134914
 6 -2.56395185118512 -0.79411949094910 -0.69370772577258
 6  2.86103767076708  3.02189988198820  0.46472413041304
 6 -2.29996876487649 -2.11534502650265 -1.54842606860686
 6  2.19882897189719  0.70196226022602 -0.41046172617262
 6 -1.39493145314531  0.07480536953695 -0.50623457445745
 6  0.77573440244024  0.90250306430643 -0.39351802380238
 6 -0.05471534153415 -0.20424802480248 -0.58272924292429
 1  12.97764634463446 -1.15854926502650  1.67257294629463
 1  12.70098359735974 -2.94568778287829  1.61356904090409
 1 -14.45847882088209 -0.71765920782078  1.22177309830983
 1 -14.16717021202120 -0.09325719761976 -0.29593144914491
 1  12.73313432043204 -2.59994930203020 -0.90598115611561
 1 -13.14343477547755  1.49027300940094  1.92404013801380
 1  13.96346093309331  0.09244182208221 -0.27619280028003
 1  13.52552810981098 -0.60169552665267 -1.78279101010101
 1 -13.34170937993799  2.21660672077208 -0.92063480648065
 1 -12.15603157615762  2.82735775587559  0.59248028402840
 1  10.50050273927393 -1.70196862586259  3.28427312331233
 1  9.77393572057206 -0.60425022402240  2.71344809980998
 1  11.46807054905491 -0.19735860296030  2.81301468746875
 1  10.38223448644865 -2.71067584158416 -0.36008269126913
 1  10.30900990389039 -3.50576921992199  1.41777121712171
 1  9.13615093209321 -2.39653096109611  0.80842756375638
 1 -11.40941262726273 -0.51916441034103  2.72129242624262
 1 -11.12566540554055 -2.04041658555856  1.98129191319132
 1 -12.62074296729673 -1.79020644054405  2.59558013801380
 1 -13.47995844484448 -2.86038473437344  0.51655978697870
 1 -11.81450668566857 -3.10550713961396  0.37837073507351
 1 -12.60521838083808 -2.11599079097910 -1.17966070807081
 1  8.74244614761476 -0.24089850085008  0.25381250225023
 1 -10.30833559855986 -2.10177724162416 -0.65517931993199
 1  10.55365665766577  1.38237290729073 -1.87059911891189
 1  12.01481731073107  2.21607255015501 -1.59056466446645
 1  12.09986165616561  0.74890574547455 -2.70692338133813
 1 -11.07190159115911  2.24313987808781 -2.21622234323432
 1 -9.70061603960396  1.03275729482948 -1.77879384638464
 1 -10.07048123212321  2.59320197429743 -0.99592274827483
 1  14.63765289328933 -3.08109343644364  0.47818609860986
 1 -15.14038873187319  1.41318861896190  1.71256235223522
 1  10.14818073707371  2.38681558955896  0.01012783778378
 1 -8.60372510851085  0.56495109620962  0.07973734773477
 1  9.05000268726873  4.21301468346835  0.80157599859986
 1  7.55744213121312  4.40575543654365 -0.15413175917592
 1  7.19594885488549  4.00019108710871  1.54205104310431
 1 -7.85357815181518 -3.40658531643164 -0.17801309030903
 1 -8.61711608260826 -2.88542854575458 -1.82501439043904
 1 -6.73652942494249 -3.19190373027303 -1.56413184718472
 1  6.88020387538754  0.59436265126513 -0.21078895389539
 1 -6.31690866686669  0.29653714881488  0.32541741674167
 1  5.32046975197520  3.16201187318732  0.37932444144414
 1 -4.86120659165917 -1.96593427142714 -1.41833798379838
 1  4.77169036203620  0.13397814381438 -0.34726679467947
 1 -4.14785618961896  0.73860323232323 -0.06406512551255
 1  3.05928155615562  3.30329221922192  1.57341058205821
 1  1.78690695169517  3.44173515551555  0.52493709570957
 1  3.36217159715972  3.90345697069707 -0.07162022002200
 1 -3.00658177317732 -3.13703599559956 -1.23817148214821
 1 -2.32419113211321 -1.81996905890589 -2.74955369736974
 1 -1.17674805980598 -2.52845039503950 -1.11775031803180
 1  2.57062842584258 -0.29083236423642 -0.46705291729173
 1 -1.60503512651265  1.14627287128713 -0.15542944994500
 1  0.47479777877788  1.82976840384038  0.03489549954996
 1  0.34973675867587 -1.11743190719072 -0.97135880988099

