%nproc=4
%Mem=2GB
# td=(NStates=1) CAM-B3LYP/6-31G(d,p) 

TD

0 1
 8  14.76572209720972 -2.02677561066107 -0.32442936593659
 8 -14.62771783578358  2.21151645674567  0.93406293729373
 6  11.24733707970797 -1.46788934103410  0.85643180418042
 6 -12.40655581958196 -0.88057967586759  0.56625026902690
 6  12.77116068206821 -1.72474177027703  0.96015090709071
 6 -13.70301702070207 -0.07974599449945  0.58800161216122
 6  13.40624866386639 -1.75537785988599 -0.44200774577458
 6 -13.43587288028803  1.54559322042204  0.84033528452845
 6  10.94081340834084 -0.21127875487549  0.02336904390439
 6 -11.34198056205621 -0.27060806770677 -0.22743041904190
 6  13.37224771577158 -0.31542002710271 -0.93866662066207
 6 -12.60766320432043  1.99115212231223 -0.34591394439444
 6  11.95962183118312  0.34615499839984 -0.85819846284628
 6 -11.48886948194819  1.07116374547455 -0.60997299329933
 6  10.71741278227823 -1.17358279927993  2.29372275627563
 6  10.42616323632363 -2.71305907390739  0.31643503350335
 6 -11.91244305030503 -1.13556324822482  2.02827895889589
 6 -12.82901939693969 -2.22028325022502 -0.21866060406041
 6  9.57871311231123  0.37197615061506  0.05364932493249
 6 -10.05295086708671 -1.02347508940894 -0.39746103110311
 6  11.65409128912891  1.50680585448545 -1.70768275827583
 6 -10.44046233423342  1.73616309340934 -1.55466235623562
 6  9.39494339933993  1.75039128212821  0.09765640564056
 6 -8.81152254925493 -0.59715166406641 -0.36783188518852
 6  8.06311541654165  2.29515549854985  0.12409318431843
 6 -7.61100913491349 -1.36151447934793 -0.58763493249325
 6  8.00545232923292  3.73942279727973  0.64812899689969
 6 -7.83025132213221 -2.74905448234823 -0.87043572857286
 6  6.84843481448145  1.56166510751075  0.06430394539454
 6 -6.33947664466447 -0.73084134603460 -0.41712063706371
 6  5.55801651565157  2.03883812181218  0.11137810681068
 6 -5.05985453145315 -1.36306337923792 -0.43788066606661
 6  4.51089987598760  1.06957315131513 -0.07240932593259
 6 -3.99080037703770 -0.57454967896790 -0.22766558155816
 6  3.07798528952895  1.52300669166917  0.13006712271227
 6 -2.65243069906991 -0.99801988098810 -0.38784713971397
 6  2.77005857285729  2.89246693869387  0.57937559555956
 6 -2.26546531453145 -2.39591308330833 -0.65452667866787
 6  2.08196728572857  0.53421548554855 -0.01950263026303
 6 -1.59641160116012 -0.01262337333733 -0.12946689768977
 6  0.71543837283728  0.74788760276028 -0.03427209920992
 6 -0.20019988998900 -0.26410401040104 -0.22138310831083
 1  13.18556713671367 -0.92518592869287  1.70255594459446
 1  12.88485198419842 -2.68690190429043  1.57280496449645
 1 -14.21785475847585 -0.56392383428343  1.32922384338434
 1 -14.17040053505350 -0.06737460936094 -0.35292714871487
 1  12.91045205220522 -2.41694100120012 -1.09774033203320
 1 -12.95282571457146  1.66727070917092  1.63371110511051
 1  14.17447203420342  0.38347092499250 -0.52528770977098
 1  13.56392194919492 -0.33092844994499 -1.94000673167317
 1 -13.27592280128013  2.07670273037304 -1.18442118511851
 1 -12.32016798979898  3.12576759685969 -0.06657562156216
 1  10.93910659965997 -1.98921735073507  2.92121681768177
 1  9.57845617261726 -1.01295109410941  2.70497725272527
 1  11.06287002900290 -0.22512137923792  2.64027741374137
 1  10.75358162116212 -2.73984875887589 -0.71814849784978
 1  10.54422342524252 -3.76812545554555  0.87839727972797
 1  9.43978129512951 -2.39750105810581  0.25013173417342
 1 -11.84388607460746 -0.16642913681368  2.62881317831783
 1 -10.97826066506651 -1.53635617951795  2.06357014101410
 1 -12.48904979797980 -1.92385980588059  2.49738031803180
 1 -13.74579502850285 -2.53536223212321  0.48551668266827
 1 -12.06327156215622 -2.97357394629463 -0.03461056305631
 1 -13.06339419841984 -2.30643983588359 -1.36741948394839
 1  8.76593849684969 -0.26820123112311  0.23302042304230
 1 -10.25928069306931 -1.95147221112111 -0.54414821682168
 1  10.72167345934593  1.78478314831483 -2.02160421942194
 1  12.06923275227523  2.53138408130813 -1.38714432243224
 1  12.32636430643064  1.35317617251725 -2.58111080008001
 1 -10.81050545154515  2.49292485658566 -2.41435215621562
 1 -10.01081705970597  0.92724674377438 -2.14223019001900
 1 -9.80849503350335  2.33045569966997 -0.89468262426243
 1  14.67753688168817 -3.01790711781178 -0.09789150915092
 1 -15.26842153515351  1.70913821392139  1.49467056305631
 1  10.34864078307831  2.46653356135614  0.13187001200120
 1 -8.62527726372637  0.48644324542454  0.26303567756776
 1  8.89154684168417  4.08037141914191  0.48931477247725
 1  7.59901628862886  4.46778163916392 -0.01222756875688
 1  7.57275653565356  3.90611167916792  1.60201703970397
 1 -8.61389418341834 -3.42064672257226 -0.41185647464746
 1 -8.17930230123012 -3.01330133303330 -1.91472336133613
 1 -6.81434720672067 -3.33840838073807 -0.74328976297630
 1  6.77871372637264  0.32452566756676 -0.15508338333833
 1 -6.49583655965597  0.38268576367637 -0.24838996399640
 1  5.34479218421842  3.10610628262826  0.47307381638164
 1 -4.93655412641264 -2.43557123512351 -0.87035318531853
 1  4.74663785678568 -0.03380863486349 -0.13349541754175
 1 -4.33137454145414  0.39528890089009  0.25361664266427
 1  3.30895652365237  3.00809269926993  1.55959920092009
 1  1.80253851485148  3.18411939393939  0.74773937593759
 1  3.06296167616762  3.79516614161416  0.08397533953395
 1 -2.91949306430643 -3.15028732073207  0.06453878887889
 1 -2.63705241824182 -2.48054511651165 -1.73835257725773
 1 -1.31000138513851 -2.73853140314031 -0.59835837883788
 1  2.30101146414641 -0.52128540954095 -0.25605181718172
 1 -1.97221184418442  1.05437368136814  0.29822591559156
 1  0.39763006200620  1.78337376437644  0.37509951995200
 1  0.07925971097110 -1.22354251825183 -0.56492816681668

