%nproc=4
%Mem=2GB
# td=(NStates=1) CAM-B3LYP/6-31G(d,p) 

TD

0 1
 8  14.76068159315932 -2.24698763186319 -0.41503842684268
 8 -14.85689075307531  1.82873817891789  0.69729926092609
 6  11.32902524852485 -1.43998655075508  1.01296745774577
 6 -12.43976914091409 -1.09219083698370  0.51690533453345
 6  12.90555412141214 -1.74133342944294  0.99271416341634
 6 -13.83765048404840 -0.31824984488449  0.52886569856986
 6  13.41545958495850 -1.93492581468147 -0.46733027802780
 6 -13.62431172417242  1.15809447054706  0.80410166116612
 6  11.01134046104610 -0.31104873187319  0.01756846384638
 6 -11.37200356435644 -0.19682068896890 -0.12862053805381
 6  13.33504399539954 -0.56932541764176 -1.16641939593959
 6 -12.82649508750875  1.81423443054305 -0.34058341134113
 6  11.93530939993999  0.07265764866487 -0.99948259125913
 6 -11.57015761076108  1.06993362246225 -0.62033402940294
 6  11.03793483448345 -1.01390683168317  2.44868825282528
 6  10.46625724572457 -2.61367913591359  0.65591898189819
 6 -11.92411421742174 -1.38822851475148  1.98984511551155
 6 -12.48645514051405 -2.39114033593359 -0.28255699369937
 6  9.68060330133013  0.32253120612061  0.18188214821482
 6 -10.09377494949495 -0.87865060696070 -0.41907319231923
 6  11.66349222922292  1.09081425532553 -2.03981597159716
 6 -10.63350163816382  1.82741221832183 -1.35541243124312
 6  9.32704660966097  1.63765000800080  0.02383902390239
 6 -8.79208060506051 -0.52758470737074 -0.18509361136114
 6  8.02101120612061  2.18495447844784  0.14517529252925
 6 -7.64762279627963 -1.18719704760476 -0.63027919691969
 6  7.96155793979398  3.71820067506751  0.24431861586159
 6 -7.74403270027003 -2.61894147104710 -1.06253493849385
 6  6.90982095309531  1.44206314731473  0.07168468346835
 6 -6.45656835383538 -0.55772403430343 -0.38532745774577
 6  5.59209992399240  1.90835507350735  0.17980494949495
 6 -5.12981152715272 -1.06316338923892 -0.42440931893189
 6  4.43479226522652  1.20636683068307  0.09662757775778
 6 -3.93137443444344 -0.27204942894289 -0.13291610661066
 6  3.16350384138414  1.69256364736474  0.31581569756976
 6 -2.67464292029203 -0.70323040204020 -0.29957831283128
 6  2.90862242924292  3.15817350935093  0.65218287628763
 6 -2.27910667866787 -2.10655414741474 -0.81947317331733
 6  2.05657474647465  0.81219328332833 -0.01307198719872
 6 -1.59291125112511  0.16234412341234 -0.02033598459846
 6  0.72077890689069  1.01737455145515  0.22049337733773
 6 -0.25856572657266  0.10916331633163 -0.11999296929693
 1  13.55631421142114 -1.15892930303030  1.56848253725372
 1  13.16639013801380 -2.68057127122712  1.45376306030603
 1 -14.51050402340234 -0.79442688458846  1.27162808380838
 1 -14.31742523752375 -0.52150002190219 -0.41216307230723
 1  12.97971897889789 -2.89380868796880 -0.96457701570157
 1 -12.99786021802180  1.30839482158216  1.70644837883788
 1  14.10687527452745  0.22848542644264 -0.70082526352635
 1  13.69530508750875 -0.62737809490949 -2.18965169616962
 1 -13.27409261826183  1.66360142024202 -1.26419916291629
 1 -12.65689166216622  2.78505352545255 -0.13279224322432
 1  11.49407209620962 -1.69084751375137  3.29869456545654
 1  9.86619494649465 -0.95050484948495  2.58070482548255
 1  11.47775151715171 -0.05859472657266  2.71476486248625
 1  10.84296055905591 -2.74333910791079 -0.37027371037104
 1  10.81333033593359 -3.46472511551155  1.23635307530753
 1  9.41412872987299 -2.43984529252925  0.58637535853585
 1 -11.94117580358036 -0.52266476037604  2.69866016301630
 1 -11.08579141814181 -1.94521706560656  2.02342612661266
 1 -12.67692858585858 -2.03130054995500  2.42137271727173
 1 -13.60469091809181 -2.89877857375738 -0.11133300230023
 1 -11.78264349934994 -3.08205479437944 -0.01774887688769
 1 -12.13239109810981 -2.32317150905091 -1.53479622162216
 1  9.02098400140014 -0.25651006200620  0.65605272627263
 1 -10.02767753275328 -1.94488155205521 -0.80484428642864
 1  10.58701999399940  1.47523219321932 -2.21581364036404
 1  12.14351018001800  2.00912185508551 -1.77222283028303
 1  12.13664533453345  0.91705256015602 -3.11967465646565
 1 -11.06885128612861  2.39404496859686 -2.16570729172917
 1 -9.81096707470747  1.16655067416742 -1.74570053705371
 1 -10.20564474847485  2.77891054515452 -0.79373252925293
 1  14.78841796979698 -3.08407373447345 -0.02002372237224
 1 -15.46337103010301  1.48481578167817  1.33900499649965
 1  10.33682960196020  2.26613352135214 -0.21133430843084
 1 -8.55991072707271  0.37446204730473  0.13069244324432
 1  8.93966165316531  4.11822520452045  0.06488232923292
 1  7.17246363336334  4.07984284528453 -0.43775012101210
 1  7.65659491949195  3.90517158515852  1.30113695169517
 1 -8.11313410741074 -3.52565722362236 -0.54814010301030
 1 -8.13005737673767 -2.58526852975298 -2.01501339033903
 1 -6.84764053605361 -2.92826736663666 -1.30725615961596
 1  7.08726458145815  0.32392560756076 -0.05893376837684
 1 -6.44621159715972  0.32998049314931  0.02144701970197
 1  5.58037574257426  2.98030370237024  0.36369287828783
 1 -5.20139061006101 -2.07625530353035 -0.67734388438844
 1  4.56345953895390  0.14657940394039 -0.11010307830783
 1 -4.26251765576558  0.91325069706971  0.00630191119112
 1  3.56508213621362  3.35944783478348  1.64271751275127
 1  1.89806806780678  3.43295427742774  1.04495909790979
 1  3.28606398639864  4.06974359935994  0.07178412041204
 1 -2.75991710671067 -2.76247853985399 -0.13267093209321
 1 -2.75171388438844 -2.30780784278428 -1.70419916191619
 1 -1.33166355135514 -2.31412896289629 -0.94929347234724
 1  2.44096545954595 -0.16627990899090 -0.34787099909991
 1 -1.89694431743174  1.21248949294929  0.29797589058906
 1  0.46090638963896  2.08655408240824  0.45624763476348
 1  0.25504728972897 -0.80194035803580 -0.34940661466147

