%nproc=4
%Mem=2GB
# td=(NStates=1) CAM-B3LYP/6-31G(d,p) 

TD

0 1
 8  14.61476700170017 -2.37062999609961 -0.13466038903890
 8 -15.00179524352435  1.50395570067007  0.98522805380538
 6  11.30437278327833 -1.46398895099510  1.11826798779878
 6 -12.25427059105911 -1.09954157205721  0.73007665166517
 6  12.73461702770277 -2.02320161626163  1.07773266526653
 6 -13.70304702370237 -0.50525854575458  0.80048286028603
 6  13.20279831883188 -2.06650897299730 -0.26224976997700
 6 -13.67324661766177  0.95459412051205  0.90848209920992
 6  11.06265559255926 -0.29583721072107  0.11077778477848
 6 -11.27897426142614 -0.27090809770977 -0.10275795179518
 6  13.24674516551655 -0.63687217231723 -0.99281203520352
 6 -13.01054349234923  1.65550855795580 -0.16946629962996
 6  11.87932380138014  0.09664004690469 -0.88948159115912
 6 -11.59534012901290  0.94399102820282 -0.60976297229723
 6  10.88475951695169 -1.02068750975097  2.50637402140214
 6  10.36622724272427 -2.73510127812781  0.72633602360236
 6 -11.81745355135513 -1.15038473037304  2.29544567556756
 6 -12.42117861286129 -2.52199342124212  0.23085434743474
 6  9.78577381838184  0.33825277827783  0.30949490949095
 6 -10.04250982298230 -0.93229597149715 -0.50064134913491
 6  11.66166204620462  1.12671784568457 -1.95397738773877
 6 -10.79093738173817  1.82166164326433 -1.45216210621062
 6  9.36210011501150  1.63249949294929  0.00577721772177
 6 -8.75896729372937 -0.46772872177218 -0.32582768476848
 6  8.08279738473847  2.20097608060806  0.10513128812881
 6 -7.60335836983698 -1.08940726862686 -0.64626079507951
 6  8.02530431443144  3.68498735373537  0.41860604460446
 6 -7.62721101810181 -2.46692626952695 -1.35519420442044
 6  6.88532850385038  1.39297823882388  0.00489800480048
 6 -6.35541823882388 -0.48343660556056 -0.42117104210421
 6  5.57394810881088  2.05152939093909  0.26142311131113
 6 -5.04737328332833 -0.88215528842884 -0.77770464846485
 6  4.48765755175518  1.23311950595060  0.00686860186019
 6 -3.96199749674967 -0.15889811381138 -0.45265808080808
 6  3.14801229222922  1.71043543454345  0.09212332833283
 6 -2.59865532153215 -0.51395147414742 -0.63678203320332
 6  2.89892145914591  3.15305299729973  0.52497015501550
 6 -2.30319908790879 -1.82713620562056 -1.17304853085309
 6  2.20320940994099  0.92902496649665 -0.20818149814982
 6 -1.55612757275728  0.42907079607961 -0.26579053005301
 6  0.78569539853985  1.20793360736074 -0.10982965496550
 6 -0.25170504050405  0.19926232623262 -0.38316928692869
 1  13.42549112911291 -1.33925733583358  1.66627231623162
 1  12.83641714071407 -3.11014422852285  1.55752343634363
 1 -14.34961793479348 -0.93641108300830  1.42743366436644
 1 -14.12594608960896 -0.57752562446245 -0.30333218921892
 1  12.57483849084909 -2.77066637373737 -0.94538509650965
 1 -13.10612104410441  1.14106808890889  1.71275900990099
 1  14.07905249224923 -0.09931735383538 -0.62095727672767
 1  13.47937349434943 -0.58312366946695 -2.10710344134413
 1 -13.61252646164616  1.76770183028303 -1.22098484148415
 1 -12.76293226622662  2.75903092319232  0.22116315231523
 1  11.08973166216622 -1.90764919391939  3.23897859385939
 1  10.00189851685169 -0.64042384138414  2.55590234523452
 1  11.55245898789879 -0.08028689578958  2.84147753375338
 1  10.60502676567657 -3.10527530153015 -0.22084876787679
 1  10.57031603450345 -3.51117976097610  1.31608104810481
 1  9.32019933693369 -2.22767407540754  0.74567128812881
 1 -11.88302998899890 -0.19013150705070  2.75882617961796
 1 -10.87442028102810 -1.49746229012901  2.19295307930793
 1 -12.41280217321732 -1.94280170007001  2.77409798979898
 1 -13.42875332433243 -3.13924262016202  0.63817194819482
 1 -11.55698093309331 -3.21670825972597  0.45699859785979
 1 -12.56812467146715 -2.42826201810181 -0.85438818081808
 1  8.98943084608461 -0.29705411641164  0.69145626662666
 1 -10.01548631363136 -1.99034609850985 -0.54984878687869
 1  10.49580087208721  1.16483115311531 -2.20690274927493
 1  12.23139896889689  2.07467841074107 -1.91288689668967
 1  11.99185085508551  0.72327318221822 -3.14728741774177
 1 -11.28687308830883  2.43185874997500 -2.04965568656866
 1 -10.11169714771477  1.04757877697770 -2.12205817281728
 1 -10.20308449244924  2.39457211131113 -0.88382153815382
 1  14.68519764776478 -3.28781410851085 -0.00535225522552
 1 -15.56055074807481  1.05356265636564  1.79562065806581
 1  10.11239715871587  2.40003691169117 -0.28461163616362
 1 -8.46921165716572  0.60173477457746  0.13017239123912
 1  9.07621530853085  3.89369275127513  0.78362420342034
 1  7.85485187218722  4.33132799379938 -0.75457180318032
 1  7.30856011601160  4.06999806780678  1.25007184518452
 1 -8.18387118111811 -3.25756041394139 -0.82665795479548
 1 -8.19200357135714 -2.40098010091009 -2.34067595659566
 1 -6.53828960096010 -2.97331187108711 -1.67338277227723
 1  7.02032788778878  0.34198741374137 -0.27284515951595
 1 -6.52739971597160  0.52470996609661  0.00832570757076
 1  5.57162486748675  3.18423409540954  0.31028753775378
 1 -5.00843131413141 -1.90832851085109 -1.35215136513651
 1  4.66737993099310  0.17420216621662 -0.11357342534253
 1 -4.14843624762476  0.82348172017202 -0.04751347034703
 1  3.37181280928093  3.51221311131113  1.51646488748875
 1  2.08103636463646  3.50323130513051  0.67430203220322
 1  3.44408978897890  3.85312193719372 -0.19496255425543
 1 -2.62226334133413 -2.57252954495450 -0.39793745874587
 1 -2.74164287728773 -2.14091115311531 -2.09504824682468
 1 -1.28260864586459 -2.06104365436544 -1.40257880088009
 1  2.48740010301030 -0.14384766576658 -0.72360857285729
 1 -1.76341096409641  1.46780502450245  0.06530262326233
 1  0.53104340334033  2.08899432643264  0.09387139713971
 1  0.21028281328133 -0.88005816981698 -0.52198387238724

