%nproc=4
%Mem=2GB
# td=(NStates=1) CAM-B3LYP/6-31G(d,p) 

TD

0 1
 8  14.83262878787879 -2.07432036513651 -0.19037596059606
 8 -14.64175923992399  2.10613591869187  1.00190972197220
 6  11.16987933393339 -1.50751330343034  0.86993315431543
 6 -12.51447661166117 -0.97015863376338  0.47608125212521
 6  12.68318188418842 -1.83905320142014  1.07390228222822
 6 -13.74422114111411 -0.15017303720372  0.45667847984798
 6  13.39566760576058 -1.77530985308531 -0.34893843884388
 6 -13.44916420942094  1.32153081418142  0.83523477447745
 6  11.05123445044505 -0.19387701470147 -0.03819711271127
 6 -11.27397376137614 -0.19941094799480 -0.31009868586859
 6  13.36677716871687 -0.32058054315432 -0.92409516351635
 6 -12.49703214121412  1.90677368446845 -0.24579393239324
 6  11.99277514651465  0.25326570947095 -0.93505614861486
 6 -11.37055765076508  1.11153778287829 -0.58537053305331
 6  10.59149019001900 -1.17755319631963  2.41996538053805
 6  10.43008362836284 -2.74538230623062  0.18422181218122
 6 -11.98844065006501 -1.43829352125213  1.85111124212421
 6 -12.76585308030803 -2.34371559345935 -0.24502324032403
 6  9.62752799379938  0.38945789878988  0.07730169016902
 6 -10.03987955995600 -0.94285702760276 -0.43788507350735
 6  11.61678755875588  1.31548672257226 -1.91714370437044
 6 -10.40279856785678  2.00191966906691 -1.31889877987799
 6  9.35041894689469  1.69193543654365  0.07659429942994
 6 -8.80103150015002 -0.50871282018202 -0.39038414041404
 6  7.99741884688469  2.22433841684168  0.16873764876488
 6 -7.57855588958896 -1.34845317321732 -0.52440860986099
 6  7.94823660766077  3.73068192319232  0.44924910891089
 6 -7.83602189918992 -2.79780935783578 -0.98956764176418
 6  6.85690566156616  1.48343728472847 -0.04275676067607
 6 -6.43920661766177 -0.70753901580158 -0.23794271927193
 6  5.51656237023702  1.93827806580658  0.09770673967397
 6 -5.05563410941094 -1.30391746464646 -0.36501337933793
 6  4.38461724772477  1.20414660866087  0.08760667566757
 6 -3.98509980698070 -0.54837706170617 -0.21257407240724
 6  3.09626711771177  1.72238662966297  0.15814993099310
 6 -2.53644910091009 -1.02057213621362 -0.23834218921892
 6  2.85794736173617  3.19634732673267  0.37999565756576
 6 -2.27797656565657 -2.37468096009601 -0.57205843184318
 6  2.08143723272327  0.78359042304230 -0.03262394239424
 6 -1.56895885588559 -0.00656276727673 -0.14206815781578
 6  0.72706953595360  1.01103391739174  0.08837016501650
 6 -0.17531740174017 -0.14138173817382 -0.15833680368037
 1  13.13425200520052 -1.03943735383538  1.72105779477948
 1  12.84068756775678 -2.76358957305731  1.59381706570657
 1 -14.44286725972597 -0.83022046394639  1.19363028402840
 1 -14.18536203120312 -0.28328620052005 -0.62924478047805
 1  12.95347635463546 -2.40322963006301 -0.73961451945195
 1 -12.70539097109711  1.41942592469247  1.81761949594960
 1  14.13735832283228  0.22446502440244 -0.53039822082208
 1  13.53571912891289 -0.49710506760676 -1.94305703670367
 1 -13.24658986798680  2.08623368346835 -1.03610635363536
 1 -12.15125109810981  2.92528754885489 -0.00643960796080
 1  10.70044273327333 -2.08899732873287  2.81506620262026
 1  9.50211853885389 -0.72845264426443  2.57712446744675
 1  11.29689343134313 -0.30834970207021  2.82625601160116
 1  10.74686094909491 -2.85727050105011 -0.87994467746775
 1  10.46613561646165 -3.60765940894089  0.77796723672367
 1  9.31946926392639 -2.49621092909291  0.24710143114311
 1 -11.67034872087209 -0.65570806470647  2.38249854685469
 1 -11.22294513351335 -2.08671121502150  1.92945672967297
 1 -12.97078797179718 -1.84414183408341  2.30898147814781
 1 -13.77808825782578 -2.67494619051905  0.02017014801480
 1 -12.18035327032703 -3.25403199209921 -0.12487958995900
 1 -12.97184504350435 -2.30343953585359 -1.30953369536954
 1  8.82262416541654 -0.40863527452745  0.24655177617762
 1 -10.24206897189719 -2.07847491139114 -0.48520232223222
 1  10.57527881988199  1.49448411841184 -2.06801886088609
 1  12.16647247624763  2.26632757565757 -1.91247685568557
 1  12.04093576357636  0.96700755565556 -3.00226291529153
 1 -10.92713711471147  3.07789335343534 -1.90688140914091
 1 -9.75476145414541  1.47163118221822 -2.08625459245925
 1 -9.73523770777078  2.51652430653065 -0.51574473047305
 1  15.00624975297530 -2.95789111621162  0.41027930793079
 1 -15.32323701670167  1.96108340844084  1.69837093309331
 1  10.15422134113411  2.36098300630063  0.04168099309931
 1 -8.57147188318832  0.68706330743074 -0.08502912891289
 1  8.83750143714371  4.17835121712171  0.07138297929793
 1  7.23860024702470  3.98177303830383 -0.26897324332433
 1  7.68706796679668  3.99670073807381  1.61321815981598
 1 -8.45325811981198 -3.29451410931093 -0.19104439343934
 1 -8.50108447944794 -2.83550355325533 -1.97318920792079
 1 -6.76624239623962 -3.13652819271927 -1.17310274427443
 1  6.99144499949995  0.36665988098810 -0.34901277627763
 1 -6.35442241824182  0.46770426552655  0.04218909390939
 1  5.32211991699170  3.18011368336834  0.39528603760376
 1 -5.10824129512951 -2.15528320632063 -0.62682883288329
 1  4.42934612761276  0.17474222022202 -0.20911297929793
 1 -4.16079748374837  0.33968334033403 -0.05063378237824
 1  3.03005863386339  3.54511640164016  1.49503274427443
 1  1.74048230923092  3.23406438843884  0.06392099409941
 1  3.54082946294629  3.70486711171117 -0.48903196119612
 1 -2.88036915191519 -3.05441773377338  0.01403373837384
 1 -2.66684539753975 -2.68389545154515 -1.51031977397740
 1 -1.16353673867387 -2.48459600960096 -0.65763430643064
 1  2.52306366936694 -0.24271755275528 -0.52173838583858
 1 -1.96419104210421  1.15623386738674  0.00200629362936
 1  0.17658795779578  2.10603603060306  0.36495850585058
 1  0.22570435543554 -1.06827699169917 -0.48826050005001

