%nproc=4
%Mem=2GB
# td=(NStates=1) CAM-B3LYP/6-31G(d,p) 

TD

0 1
 8  14.61149667466747 -2.30622355545555 -0.20774769776978
 8 -14.80971603560356  1.79895520062006  0.91578110911091
 6  11.12404475047505 -1.51107365946595  0.96735289628963
 6 -12.34651981598160 -1.08050966886689  0.62068571257126
 6  12.62574614061406 -1.92370166626663  0.97596248824882
 6 -13.73888060706071 -0.34444246414641  0.65899871187119
 6  13.28192623162316 -2.04368669076908 -0.32506605160516
 6 -13.53519281228123  1.10598926002600  0.93634488548855
 6  10.91503083008301 -0.29411703870387  0.04035074207421
 6 -11.24129049304931 -0.33686469336934 -0.17431510751075
 6  13.22788327932793 -0.73990247534753 -1.14950770477048
 6 -12.67493993199320  1.75463847094709 -0.04411376437644
 6  11.93595946494650  0.00694107700770 -0.89571221422142
 6 -11.46807740274027  0.94858148724872 -0.56458845484548
 6  10.77733877487749 -1.01969741074107  2.35918930293029
 6  10.30224084408441 -2.71272904090409  0.59016240624062
 6 -11.90752255825583 -1.34889458135814  2.03658978997900
 6 -12.55019151415141 -2.38195941784178  0.01662292429243
 6  9.68024326532653  0.42999195219522  0.09695365536554
 6 -9.99826539853986 -0.96332907480748 -0.43886517151715
 6  11.66697257725773  1.17141231513151 -1.86620861086109
 6 -10.60816910491049  1.79533901100110 -1.45651254125413
 6  9.40242414741474  1.76141238423842  0.23325996599660
 6 -8.75034643164316 -0.45695764466447 -0.49992509450945
 6  8.09423852885288  2.37994397739774  0.29012978797880
 6 -7.53744177817782 -1.13048137603760 -0.68092426142614
 6  8.06522830683068  3.79307816281628  0.60089427342734
 6 -7.62291058805881 -2.63012258915892 -1.09424810981098
 6  6.96545651665167  1.67533647464746  0.07097461246125
 6 -6.36844954195420 -0.54206246814681 -0.58043696869687
 6  5.55530624462446  2.06872111011101  0.15637260626063
 6 -5.05771431743174 -1.10480755365537 -0.70038691669167
 6  4.44374316031603  1.34793098709871 -0.00800288528853
 6 -3.92818411541154 -0.29400162416242 -0.51660447544754
 6  3.10685817681768  1.83549794079408  0.07614173017302
 6 -2.56646210221022 -0.68304838383838 -0.47331568656866
 6  2.77288885588559  3.22246993899390  0.22358001600160
 6 -2.18053682168217 -2.18127161916192 -0.62709393539354
 6  2.00967005600560  0.78255031903190  0.09799911991199
 6 -1.61889384938494  0.24414230323032 -0.23817776877688
 6  0.69781661066107  0.91790460446045  0.07150847884788
 6 -0.17921779177918  0.01780418041804 -0.24833580358036
 1  13.32106068606861 -1.22735614571457  1.50554624362436
 1  12.83715721472147 -2.89833304740474  1.49490717471747
 1 -14.50189316231623 -0.79142658455846  1.41015193619362
 1 -14.23093658865887 -0.24741261316132 -0.17914977097710
 1  12.73901490849085 -2.75963527062706 -0.96382694069407
 1 -13.07284771677168  1.11398538063806  1.99096683068307
 1  14.17419200620062 -0.02057948004800 -0.68213339433943
 1  13.46971252825283 -0.78562391949195 -2.18882161316132
 1 -13.31322653165316  2.20759581968197 -1.05434817781778
 1 -12.28268424142414  2.71977699779978  0.29580061606161
 1  10.73149583858386 -1.83002143114311  3.30117481348135
 1  9.81896022302230 -0.20441024002400  2.41899865486549
 1  11.60264400640064 -0.37501636873687  2.50717410341034
 1  10.60792705570557 -3.23730850485049 -0.35553223622362
 1  10.26072507540754 -3.56363500650065  1.31450089008901
 1  9.23958127512751 -2.43641494949495  0.30216693769377
 1 -11.76993867986799 -0.49515200910091  2.63294359135914
 1 -10.76901974097410 -1.54498704260426  1.95739952395240
 1 -12.56230712371237 -2.07081450135014  2.53962454245425
 1 -13.17728817781778 -3.02944164006401  0.73285141614161
 1 -11.68073330833083 -2.90782737163716 -0.23020012201220
 1 -13.04623248224822 -2.32251144304430 -0.88010075207521
 1  8.85970787378738 -0.44381879287929  0.19052617361736
 1 -10.05216998199820 -1.94805186908691 -0.64064786678668
 1  10.62096338833883  1.40894556455646 -1.86018807780778
 1  12.23224905390539  2.12702364526453 -1.52045765376538
 1  12.03078474847485  1.02039289418942 -2.85039772877288
 1 -11.31539594059406  2.60720628472847 -2.14441516251625
 1 -9.99384536253625  1.19931395049505 -2.36842280928093
 1 -9.92864704870487  2.61764441854185 -0.97861101710171
 1  14.62005113311331 -3.33002832993299 -0.13775549554955
 1 -15.29401409440944  1.43720102020202  1.78113920992099
 1  10.33930984998500  2.51364827282728  0.13073989898990
 1 -8.73188792479248  0.59854445554555 -0.12622324832483
 1  9.09828751575157  4.10685406740674  0.79368520952095
 1  7.40414680168017  4.41139600060006 -0.18365471147115
 1  7.62906216621662  3.89897096509651  1.59022586058606
 1 -7.86675946994700 -3.21185584348435 -0.30507579657966
 1 -8.30296466746675 -2.80356035893589 -2.05176706570657
 1 -6.64723049504950 -3.01167570747075 -1.31637707170717
 1  6.85113096809681  0.63531674667467 -0.28765664066407
 1 -6.44304128012801  0.48165566066607 -0.23475860086009
 1  5.35128283328333  3.22770844284428  0.61259776877688
 1 -4.90156062706271 -2.22829050705070 -0.94108025802580
 1  4.70792398539854  0.16650139613961 -0.11079314731473
 1 -4.01380278427843  0.80409978197820 -0.19625834483448
 1  3.15354098209821  3.71329321932193  1.38273151415142
 1  1.66736499749975  3.38403938593859  0.38947354935493
 1  3.30826620662066  3.77720434543454 -0.54142720072007
 1 -2.07544865986599 -2.62886517851785  0.50283261826183
 1 -3.11335004800480 -2.79580664266427 -1.16079482148215
 1 -1.03437382238224 -2.24801235123512 -1.35519406240624
 1  2.39223058605861 -0.35596887788779  0.01149493749375
 1 -2.07833245624562  1.13350159415942 -0.09947385438544
 1  0.32710300930093  2.06717214421442 -0.01732972297230
 1 -0.01637985298530 -1.08068823282328 -0.59010068406841

