%nproc=4
%Mem=2GB
# td=(NStates=1) CAM-B3LYP/6-31G(d,p) 

TD

0 1
 8  14.67863338833883 -2.27861079417942 -0.12972989598960
 8 -14.56242130613061  2.04793009810981  1.25850538153815
 6  11.09851219721972 -1.45461801390139  1.06438259925993
 6 -12.29097426142614 -0.96045766366637  0.74019766376638
 6  12.64536810281028 -1.97282657875788  1.12141703370337
 6 -13.65305202420242 -0.14921294119412  0.88545135713571
 6  13.32191023002300 -1.89276159825983 -0.25401894689469
 6 -13.43583287628763  1.28445710681068  1.19170042104210
 6  10.96538586558656 -0.22386001300130  0.07958466546655
 6 -11.22006837083708 -0.23603461036104 -0.04759243524352
 6  13.35996648764876 -0.45883436853685 -0.65424817881788
 6 -12.66470890889089  1.81342434953495 -0.18223757675768
 6  11.98678454745475  0.19114949784978 -0.78373101610161
 6 -11.49660025502550  1.01975860496050 -0.54756675267527
 6  10.76742778377838 -1.11129657065707  2.45453883788379
 6  10.29521014101410 -2.64246201420142  0.60630402040204
 6 -11.81910371637164 -1.29983967586759  2.19711584258426
 6 -12.74524101910191 -2.31415263716372  0.11139240124012
 6  9.58551379237924  0.36975592859286  0.17417137713771
 6 -9.98316388838884 -1.10455319721972 -0.33342462746275
 6  11.74150003000300  1.26219139303930 -1.72330432043204
 6 -10.53361164916492  1.77262673977398 -1.42311920192019
 6  9.37290119511951  1.69923616661666 -0.00159351935193
 6 -8.76571796879688 -0.61718366726673 -0.33191829382938
 6  8.03908301330133  2.28036401940194  0.23364413941394
 6 -7.58501653565357 -1.34201252915292 -0.67925409440944
 6  7.97697948194820  3.69695855085509  0.63021720572057
 6 -7.66965526252625 -2.77061663856386 -1.10751943694369
 6  6.82228219921992  1.59027796879688 -0.03660614561456
 6 -6.39695239223922 -0.67223548544854 -0.54671359635964
 6  5.56551726572657  2.19107334533453  0.14087105610561
 6 -5.10359890589059 -1.09350642354235 -1.02486936493649
 6  4.46785557155716  1.38639483348335 -0.11315340034003
 6 -3.96424772177218 -0.41262348634863 -0.61233404840484
 6  3.07292478347835  1.75493988498850  0.08952306830683
 6 -2.67199265526553 -0.79323940294029 -0.84678303330333
 6  2.71283285028503  3.10915860786079  0.44769242724272
 6 -2.38592736073607 -2.26553004500450 -1.30587181318132
 6  2.09683877287729  0.81469353335334 -0.11484216421642
 6 -1.54030599059906  0.08479636863686 -0.58881283228323
 6  0.67200402940294  0.93632644664466 -0.34720339233923
 6 -0.20197006700670 -0.09091669166917 -0.55689665966597
 1  13.38688726872687 -1.39561297139714  2.00010569956996
 1  12.67736123512351 -2.88219143324332  1.58807649164916
 1 -14.41569454245425 -0.59519696159616  1.56500742174217
 1 -14.15783927892789 -0.18038591049105 -0.01327318331833
 1  12.78012901990199 -2.45964527162716 -0.84065462346235
 1 -12.81945237723772  1.50347432953295  2.06612434643464
 1  14.00755534253425  0.08733131103110 -0.28636381738174
 1  13.85337089408941 -0.46521187828783 -1.73155588658866
 1 -13.55267047604760  1.68534359445945 -0.83417616061606
 1 -12.45115108810881  2.92344736483648 -0.18533749774978
 1  11.11139382838284 -2.04368279727973  3.01091578757876
 1  9.67722604960496 -0.77954775377538  2.61743849884989
 1  11.22403614561456 -0.18934780188019  2.54027741374138
 1  10.44916117911791 -3.26651142514251 -0.30209689268927
 1  10.39587859075908 -3.44210285328533  1.31393083308331
 1  9.14930224722472 -2.43401470947095  0.54952167316732
 1 -11.60354204020402 -0.34431692559256  2.83075337233723
 1 -10.88215105410541 -1.75464800870087  2.25207899189919
 1 -12.56642753575357 -1.89738715861586  2.81103168316832
 1 -13.46504695369537 -2.87186588248825  0.57262539353935
 1 -11.75653088808881 -2.79411600050005  0.14261715971597
 1 -13.22975083408341 -2.12714190609061 -0.93015575757576
 1  8.75972787578758 -0.24975938693869  0.62447956895690
 1 -10.13081784678468 -2.04926199009901 -0.64844864686469
 1  10.71968326032603  1.32898756875688 -2.03553561256126
 1  11.98687451645165  2.28189913281328 -1.22578818681868
 1  12.44070574057406  1.02214306920692 -2.55996868586859
 1 -10.95746014701470  2.26648221232123 -2.33957467846785
 1 -9.58073405140514  1.10226424552455 -1.98608457545755
 1 -9.89978416241624  2.38304095819582 -0.96140929692969
 1  14.53641276927693 -3.26505183228323  0.18746702670267
 1 -15.05922061506151  1.34386168626863  2.14914601060106
 1  10.24268018701870  2.53099000700070  0.10939776477648
 1 -8.60591532753275  0.44771937303730 -0.24322494849485
 1  8.89279696669667  4.24511789378938  0.81765760676068
 1  7.63831021802180  4.20589545054505 -0.45324167016702
 1  6.92404166416642  3.87663873187319  1.33184002200220
 1 -8.07351014501450 -3.43067772567257 -0.22065735473547
 1 -8.26513088408841 -2.75076507940794 -1.87836972597260
 1 -6.74130990299030 -3.24909944984498 -1.52412784678468
 1  6.91891774677468  0.53452666766677 -0.38928680368037
 1 -6.44209118511851  0.29975747084708 -0.45016014101410
 1  5.34147185218522  3.16434210621062  0.51782829182918
 1 -4.98785925692569 -2.10182786078608 -1.19689583958396
 1  4.59567276027603  0.33946869286929 -0.29625169316932
 1 -4.08186959095910  0.77675704770477 -0.53320203920392
 1  3.88108373637364  3.53160505050505  0.91018425942594
 1  1.51859012001200  2.99013999599960  1.16024062606261
 1  2.45268064806481  4.03471009600960 -0.75068812681268
 1 -2.80989210421042 -2.97396968896890 -0.61938960396040
 1 -2.77896660966097 -2.51557861986199 -2.19596833883388
 1 -1.26724710971097 -2.48565611561156 -1.33413195619562
 1  2.44327569056906 -0.27069035003500 -0.21039725172517
 1 -1.99346396939694  1.07495573957396 -0.38803271027103
 1  0.28439873887389  1.95851127812781 -0.07567555755576
 1  0.24695648064807 -1.09440960496050 -0.64003567756776

