%nproc=4
%Mem=2GB
# td=(NStates=1) CAM-B3LYP/6-31G(d,p) 

TD

0 1
 8  14.72324784978498 -2.23206613971397 -0.11238816181618
 8 -14.75869093309331  1.89466477157716  0.96426595759576
 6  11.20733307930793 -1.47133968606861  0.87815397639764
 6 -12.51071623562356 -1.01504312221222  0.54929857385739
 6  12.68848241424142 -1.87850714681468  1.02806769876988
 6 -13.79575629462946 -0.26379439933993  0.64786759875988
 6  13.32380041904191 -1.78760108220822 -0.29078262326233
 6 -13.48983827682768  1.27671633273327  0.90816206720672
 6  11.01589091609161 -0.27628525552555 -0.03527682068207
 6 -11.37370373437344 -0.26576758365837 -0.15225290129013
 6  13.35683617461746 -0.37129561466147 -0.76876963096310
 6 -12.77294973297330  1.80183319041904 -0.39051840484048
 6  11.98977484648465  0.22181256415642 -0.79836247924792
 6 -11.53124371937194  1.08629525862586 -0.63180517651765
 6  10.58986002700270 -1.25404084508451  2.26812019601960
 6  10.44897551755176 -2.60980874887489  0.20854424442444
 6 -12.04020582658266 -1.39224891679168  1.99108523952395
 6 -12.81285778077808 -2.30289151105111 -0.23860259825983
 6  9.73122836383638  0.38285723872387  0.00518447844784
 6 -10.11225679767977 -0.95140788268827 -0.26561784678468
 6  11.77550343034303  1.30527570147015 -1.73549553955396
 6 -10.46381466946695  1.79133861096110 -1.34587147714771
 6  9.49483338833883  1.82181842484248  0.02291893189319
 6 -8.83910530753075 -0.45065701460146 -0.19145424742474
 6  8.12714181918192  2.28655463846385  0.27623839883988
 6 -7.60644867886789 -1.20107843574357 -0.45813198219822
 6  8.06667845184518  3.74612346734673  0.55719990399040
 6 -7.62223052005201 -2.64298387528753 -0.79381806680668
 6  6.99848981998200  1.46451539253925  0.05458297329733
 6 -6.39204190119012 -0.57549581148115 -0.36183510851085
 6  5.59540025402540  1.96710094809481  0.14512148114811
 6 -5.10010855685569 -1.07414448734873 -0.47015389338934
 6  4.51046983298330  1.16754294829483  0.13291120612061
 6 -3.96038733573357 -0.30404262826283 -0.36772958795880
 6  3.13390088108811  1.54910930193019  0.11215533153315
 6 -2.59260471647165 -0.77066714571457 -0.50546890189019
 6  2.77181874887489  3.05245293729373  0.25097275527553
 6 -2.40375914391439 -2.22433592559256 -0.76442766876688
 6  2.16775586458646  0.69351141514151 -0.23880456045605
 6 -1.55666762676268  0.14136202520252 -0.23804775577558
 6  0.78476530553055  0.93702651665167 -0.17093576557656
 6 -0.18401827182718 -0.03758135813581 -0.48763973397340
 1  13.18586716671667 -1.06264967506751  1.65031072007201
 1  12.69718321732173 -2.64464767886789  1.51102878687869
 1 -14.49254222722272 -0.70240768266827  1.34569549054906
 1 -14.20582407740774 -0.31135900780078 -0.21565342134213
 1  12.85983699069907 -2.40980028712871 -1.06149670767077
 1 -12.98309874187419  1.28093207530753  1.86110384438444
 1  14.07380196719672  0.12966554445445 -0.16129131013101
 1  13.93260881788179 -0.35852120922092 -1.71856458745875
 1 -13.41675688468847  1.63877893799380 -1.31587433043304
 1 -12.55972194519452  2.88909392949295 -0.23624258825883
 1  10.82132482148215 -2.17909633863386  2.89298399439944
 1  9.42872119911991 -1.56354615361536  2.17136389138914
 1  11.24103784578458 -0.49103797089709  2.90536392239224
 1  10.82607887088709 -2.83243801780178 -0.87309399239924
 1  10.65172417531753 -3.68729737273727  0.89136857685769
 1  9.29810712771277 -2.43331463946395  0.06936365736574
 1 -11.89595128112811 -0.44633712761276  2.59306960396040
 1 -11.10231307030703 -1.95340788468847  2.05860964496450
 1 -12.70510140314031 -1.96590401030103  2.41001158115812
 1 -13.76336678567857 -2.98791748764877  0.22832096309631
 1 -11.90159539453946 -2.98736532543254 -0.35661276327633
 1 -13.01374923392339 -2.12645183708371 -1.27415015701570
 1  8.92815471847185 -0.33408781978198  0.43453057405741
 1 -10.35259002400240 -1.98632569646965 -0.55948975097510
 1  10.64601589358936  1.52904757475748 -2.04639669866987
 1  12.32415824482448  2.09832077497750 -1.27595320332033
 1  12.36061773177318  1.05414626952695 -2.73623631263126
 1 -11.06497089808981  2.34405997009701 -2.17366808780878
 1 -9.72095807380738  1.05970999009901 -1.74236020302030
 1 -9.80410459445945  2.44611726582658 -0.64936809280928
 1  14.87248637663766 -3.16089141624162  0.11619989999000
 1 -15.43632832583258  1.16518381848185  1.43028412441244
 1  10.30708662766277  2.51896880488049 -0.03267644264426
 1 -8.79242397839784  0.48474307540754  0.27512688668867
 1  9.05154284128413  4.35476885888589  0.60299614061406
 1  7.59507589458946  4.42981784278428 -0.38656500250025
 1  7.45902516251625  3.96296736473647  1.48926576457646
 1 -8.06573936793679 -3.06469112701270 -0.02876816581658
 1 -8.18240261126113 -2.65879588248825 -1.83710559955996
 1 -6.72905867786779 -3.07034157405741 -0.99881531553155
 1  7.25694154915492  0.34389760476048 -0.18116599159916
 1 -6.25634261026103  0.52536003110311 -0.03929905490549
 1  5.46233393839384  3.17335300730073  0.16715322432243
 1 -4.89442991399140 -2.12594027202720 -0.61642779277928
 1  4.63901709470947  0.00505525152515  0.05536346834683
 1 -4.20662206620662  0.71106047804780 -0.01304002300230
 1  3.06794242224222  3.67307919791979  1.22403564456446
 1  1.65086334733473  2.92782376437644  0.33227782978298
 1  3.12102748274827  3.60678730373037 -0.58874193219322
 1 -2.28143925892589 -2.80828312031203  0.41075341034103
 1 -3.18198691169117 -2.70931799379938 -1.60119886188619
 1 -1.34018440344034 -2.29085663566357 -0.99342788578858
 1  2.33636499949995 -0.33949723072307 -0.58909512151215
 1 -1.84841946494649  1.12627087108711 -0.10067397439744
 1  0.59571987098710  2.04167959495950  0.14815682568257
 1  0.27179896489649 -1.00875103910391 -0.85186686068607

