%nproc=4
%Mem=2GB
# td=(NStates=1) CAM-B3LYP/6-31G(d,p) 

TD

0 1
 8  14.62811833683368 -2.35044797789779  0.04127720472047
 8 -14.80001506550655  1.68227353245325  1.24807433843384
 6  11.15165751175117 -1.60746329842984  1.02941910291029
 6 -12.36634179817982 -1.17983960186019  0.48300194419442
 6  12.61111467746775 -1.85978527462746  1.21009590159016
 6 -13.68274499349935 -0.44997301720172  0.61848466046605
 6  13.33143118211821 -1.96429875197520 -0.11065461046105
 6 -13.63868316131613  1.04466312741274  1.01769302030203
 6  10.95298462546255 -0.27618524552455  0.05182188918892
 6 -11.28816518051805 -0.27280828772877 -0.20574825082508
 6  13.27745823682368 -0.69333781888189 -0.94097685168517
 6 -12.74243668166817  1.81620462756276  0.08621926892689
 6  11.94975084408441 -0.00274989208921 -0.76475911891189
 6 -11.50550114511451  1.11024765386539 -0.37747974397440
 6  10.68403944494449 -1.12496793779378  2.44000738473847
 6  10.27159777977798 -2.76076384438444  0.48679206920692
 6 -11.98269007500750 -1.59445913781378  1.93045917691769
 6 -12.65862235723572 -2.42105332723272 -0.33094183218322
 6  9.67796303730373  0.33741269426943  0.15039899989999
 6 -10.00926649864986 -0.95125786768677 -0.46113739873987
 6  11.84628050805081  1.21444661856186 -1.74036602660266
 6 -10.49090737873787  1.94726420352035 -1.13374026402640
 6  9.39934383938394  1.79019526252625  0.02776941694169
 6 -8.84094549154915 -0.44620656955696 -0.16047114911491
 6  8.05553465846585  2.30416639963996  0.23517429242924
 6 -7.55547358135814 -1.13822215011501 -0.48713488248825
 6  8.06436822082208  3.68290714571457  0.32310649464946
 6 -7.61207950495049 -2.62163174007401 -0.87801648664866
 6  6.93815378637864  1.49517845884588  0.02137965296530
 6 -6.35861855885589 -0.49004726662666 -0.35564448944894
 6  5.63847456145615  2.04620885888589  0.21323829282928
 6 -5.03928247424742 -1.05908298119812 -0.62647952595260
 6  4.48353713971397  1.37667386138614 -0.25332741774177
 6 -3.99302059905991 -0.24092631663166 -0.38671148614861
 6  3.17089458045805  1.77596198719872 -0.20715659965997
 6 -2.60208566456646 -0.59804988398840 -0.60796915191519
 6  2.91251281828183  3.27528522052205  0.01047870587059
 6 -2.33125189318932 -2.00792428442844 -0.91907313331333
 6  2.09369845884588  0.88076014001400 -0.33256393639364
 6 -1.64741670167017  0.33319120812081 -0.39564351535154
 6  0.68795562456246  1.11386420042004 -0.28971764376438
 6 -0.19327919791979  0.09804220422042 -0.44343531353135
 1  12.92703128312831 -1.02068547864786  1.86707239623962
 1  12.79918341734174 -2.77163037713771  1.81989967396740
 1 -14.42393536653665 -0.99789723162316  1.29659058005801
 1 -14.22939643464346 -0.35229310121012 -0.38705056105611
 1  12.62990399739974 -2.85359466656666 -0.61524208220822
 1 -13.11897232923292  1.02606658875888  2.05967370137014
 1  14.07776236323632  0.17485006290629 -0.67396257725773
 1  13.51750730773077 -0.81961731883188 -2.03814654565457
 1 -13.33810901990199  1.94951001110111 -0.87691043404340
 1 -12.50318629162916  2.81838685878588  0.35455649164916
 1  10.89322201120112 -2.01620004900490  3.15522021802180
 1  9.56173450045005 -0.80716051505151  2.40058681368137
 1  11.25390913291329 -0.41894076117612  2.87686107210721
 1  10.91932819581958 -3.12223699769977 -0.34584126712671
 1  10.09762876577658 -3.56490513351335  1.19010845084508
 1  9.22813013001300 -2.48906021402140  0.35478219921992
 1 -11.91666335233523 -0.76133862776278  2.61609190619062
 1 -11.04502734173417 -2.22927547144714  1.76396018001800
 1 -12.58041893489349 -2.58783620352035  2.28151873187319
 1 -13.56695714471447 -2.98229692559256 -0.31536340534053
 1 -11.88159339433943 -3.38383497239724 -0.58472557455746
 1 -12.71396925592559 -1.94020321222122 -1.36941968396840
 1  8.79827173017302 -0.21370578157816  0.43689081008101
 1 -10.11906667166717 -1.97153421732173 -0.66190999299930
 1  10.79769106110611  1.65769043904390 -1.85068712771277
 1  12.24187001600160  2.08594953785379 -1.19170477847785
 1  12.64513618361836  0.99000985588559 -2.46400908990899
 1 -11.02262666366637  2.82116768086809 -1.68808952995299
 1 -9.86855283328333  1.42978699779978 -1.77875384238424
 1 -9.73324750875087  2.37023967806781 -0.35811896789679
 1  14.66936606460646 -2.94695002210221  0.68544682468247
 1 -15.43943863686369  1.35774307440744  1.87656875287529
 1  10.21366728572857  2.49227613561356 -0.25401857685769
 1 -8.65562029802980  0.59341394249425  0.13348272227223
 1  9.07416510351035  4.14241762376238  0.10994683568357
 1  7.39237562456246  4.13475833683368 -0.41610795679568
 1  7.43684294429443  3.97057812581258  1.27084392239224
 1 -8.09376217021702 -3.15745040294029 -0.19332462146215
 1 -7.81009538053805 -2.63040304320432 -2.03718560756076
 1 -6.77231300330033 -3.10279481938194 -0.84502993699370
 1  7.11254710971097  0.57316053105311 -0.46303417841784
 1 -6.37652462846285  0.32889038413841 -0.15335046004600
 1  5.91953965896590  3.13645931793179  0.36411292029203
 1 -4.99047951895190 -1.99593727172717 -0.93484963496350
 1  4.61008420142014  0.17381212721272 -0.56129819781978
 1 -4.22501390539054  0.90643001500150 -0.26929564856486
 1  3.27232286028603  3.73804569456946  0.96404964596460
 1  1.87165542654265  3.41202218421842  0.12644724672467
 1  3.53017839783978  3.70548717371737 -0.87928098609861
 1 -2.16305742074207 -2.68095038703870  0.02271460646065
 1 -3.15385409840984 -2.42856991899190 -1.64261300330033
 1 -1.12553293829383 -2.10945849584958 -1.67530607360736
 1  2.34832619561956 -0.06132941394139 -0.32979919191919
 1 -2.05732035503550  1.37487573157316 -0.10299420642064
 1  0.21413171217122  2.21081650865087 -0.09293728372837
 1  0.21800358535854 -0.76879704370437 -0.81574324832483

