%nproc=4
%Mem=2GB
# td=(NStates=1) CAM-B3LYP/6-31G(d,p) 

TD

0 1
 8  14.74754027902790 -2.15183811691169 -0.28399532253225
 8 -14.57673273727373  2.04913021812181  0.98915844684468
 6  11.16035838183818 -1.46502905500550  0.98136429742974
 6 -12.21088625262526 -1.02718433633363  0.83168681268127
 6  12.61478504450445 -1.87634693079308  1.04775966796680
 6 -13.59374609360936 -0.19203722362236  0.79003181518152
 6  13.32589062806281 -1.84913723582358 -0.33454699969997
 6 -13.38912820582058  1.40757941904190  0.96746799779978
 6  10.86705603260326 -0.34809243624362 -0.02692598559856
 6 -11.22143850785078 -0.23908491539154 -0.20338801480148
 6  13.19086957795779 -0.51383986908691 -0.88895164916492
 6 -12.51905434343434  1.85432843994399 -0.24952430543054
 6  11.85735160416042  0.13575395829583 -0.87243988698870
 6 -11.37871846684668  0.94815144424442 -0.66450844684468
 6  10.82704374537454 -0.97647308830883  2.37286067006701
 6  10.38644926492649 -2.63271103910391  0.63235662566257
 6 -11.71270307630763 -1.16153584548455  2.20147627862786
 6 -12.59801629662966 -2.44471569346935  0.32391365336534
 6  9.55833107410741  0.31126007900790  0.10125408540854
 6 -10.03372894489449 -0.98201094299430 -0.50789207420742
 6  11.70989686968697  1.21893706760676 -1.92929491949195
 6 -10.50351863986399  1.78714819191919 -1.60660755075508
 6  9.22917682268227  1.61470771377138  0.15241188118812
 6 -8.78027942494249 -0.55674762366237 -0.41543664566457
 6  8.01068017301730  2.29103508650865  0.40680145514551
 6 -7.59688772277228 -1.37925625352535 -0.74279044804480
 6  7.89584136813681  3.73462231723172  0.77516170017002
 6 -7.77571586858686 -2.72802237913791 -1.34703338833883
 6  6.84445441644164  1.59092803380338  0.03179069406941
 6 -6.40040273727373 -0.72034029592959 -0.48450737573757
 6  5.58314902890289  2.10292453045305  0.14700166916692
 6 -5.10983952995300 -1.19977705060506 -0.74509138713871
 6  4.42142092809281  1.34472066606661 -0.23959604460446
 6 -4.07236853385339 -0.45069729372937 -0.36391920692069
 6  3.09444693569357  1.65849024002400  0.04388850485048
 6 -2.65495095109511 -0.80544062306231 -0.48212656765677
 6  2.64161572857286  3.09755744774477  0.53048070607061
 6 -2.36494526252625 -2.10060355235524 -1.07252847884789
 6  2.04221331033103  0.72904496849685 -0.34929560956096
 6 -1.57385934593459  0.04135202420242  0.02557860686069
 6  0.66242307130713  0.87282009600960  0.01578290629063
 6 -0.19991986198620 -0.11471907190719 -0.29759072907291
 1  13.07858643864387 -1.07462087218722  1.63381907090709
 1  12.64660815981598 -2.84235744984498  1.55827351135114
 1 -14.18752172517252 -0.33751119301930  1.45237615861586
 1 -14.14279777477748 -0.31503937583758 -0.32530438643864
 1  12.91053206020602 -2.55274458155816 -1.04093465146515
 1 -13.03646407840784  1.70497447954795  1.96936467046705
 1  14.15390997799780  0.14578715661566 -0.54148932993299
 1  13.47791334833483 -0.50176553365337 -2.01246397739774
 1 -13.46545175417542  1.93681874197420 -1.02717546054605
 1 -12.13180915391539  2.80610563066307 -0.17986695069507
 1  11.15662835183518 -1.68066649564957  3.05765046104611
 1  9.75256358335834 -0.78312811181118  2.68951570657066
 1  11.21553529552955  0.12286341924192  2.69673305930593
 1  10.54097036003600 -3.03407818181818 -0.28291497449745
 1  10.22404140704070 -3.62738138113811  1.35040448044805
 1  9.32956027302730 -2.29404071207121  0.44986170717072
 1 -11.70940262626263 -0.17247974187419  2.78248854585459
 1 -10.51200403940394 -1.35151769566957  2.05560934493449
 1 -12.33296418941894 -1.81080850075007  2.71070165016502
 1 -13.31971242024202 -2.81068976487649  1.05418354935494
 1 -11.66349158415842 -3.05656224512451  0.33440633863386
 1 -12.81811967096710 -2.34087327922792 -0.71092383438344
 1  8.69707161016102 -0.32647705870587  0.37847496849685
 1 -10.30942570757076 -2.03692075597560 -0.95958976097610
 1  10.63625491749175  1.50085475547555 -2.07300935993599
 1  12.30210603960396  2.01685262816282 -1.66180178817882
 1  12.13265493549355  0.84009486438644 -2.79675236423642
 1 -11.32146654765477  2.25762132623262 -2.22180290129013
 1 -9.66801277927793  1.16384040314031 -1.90020598759876
 1 -9.85369955395539  2.66223887798780 -1.39631278727873
 1  14.93568269626963 -3.00665599269927  0.05790407040704
 1 -15.27598229122912  1.55250255035504  1.49349044504450
 1  10.01342726172617  2.37804471247125  0.14177100210021
 1 -8.50039477547755  0.48230283138314  0.17036641064106
 1  8.97960564756475  4.10953433543354  1.12118795979598
 1  7.55000138713871  4.47162202320232  0.01533518751875
 1  7.19857911791179  3.90054112211221  1.64788162616262
 1 -8.35062785678568 -3.51374603250325 -0.63061835083508
 1 -8.52368673967397 -2.53121312421242 -2.04097598659866
 1 -6.86428220022002 -3.20738527842784 -1.70897633163316
 1  7.01113696869687  0.45806902190219 -0.15836371137114
 1 -6.47769474547455  0.32872036713671  0.04136901190119
 1  5.51191889688969  3.09050472247225  0.64942145114511
 1 -4.69812028302830 -2.11540921892189 -1.00596674667467
 1  4.67773096609661  0.44182892889289 -0.65636770477048
 1 -4.03721512551255  0.56379575157516 -0.05874459345935
 1  2.60370599859986  2.97920981098110  1.94374761576158
 1  1.79755801680168  3.53851483348335 -0.04185958395840
 1  3.61233661366137  3.81851847684768  0.24825176717672
 1 -3.59540065506551 -2.96827911991199 -1.04519218421842
 1 -1.91241995499550 -1.91402846484649 -2.49829857185719
 1 -1.26300668566857 -2.51976952695269 -0.26741528452845
 1  2.48552991599160 -0.20525380638064 -0.80128634063406
 1 -1.84253887688769  0.88640688468847  0.40099619261926
 1  0.12659295829583  1.70755618261826  0.42245425542554
 1  0.27541932693269 -1.10009017301730 -0.83064473847385

