%nproc=4
%Mem=2GB
# td=(NStates=1) CAM-B3LYP/6-31G(d,p) 

TD

0 1
 8  14.77878340334033 -2.18154108720872 -0.15128205120512
 8 -14.82474753875387  1.82534783988399  1.13444297529753
 6  11.20943328932893 -1.46598915101510  1.07477363836384
 6 -12.30076524052405 -1.08114973287329  0.60769441344134
 6  12.74188775477548 -1.84473376947695  1.10487537953795
 6 -13.67960467946795 -0.32672069196920  0.73469628162816
 6  13.46252429142914 -1.81736405850585 -0.21047459245925
 6 -13.54055334833483  1.19960862196220  1.06846809780978
 6  11.02652197919792 -0.24702232923292  0.10713742074207
 6 -11.33332969696970 -0.17489849674968 -0.15460313631363
 6  13.39185967696770 -0.49413789888989 -0.94265701970197
 6 -12.82161459945995  1.81940494759476 -0.12100145314531
 6  11.94983085208521  0.08879926282628 -0.83938658165817
 6 -11.50427102210221  1.11330795989599 -0.55365736173617
 6  10.86369741074107 -1.14585002600260  2.49381276527653
 6  10.44359497949795 -2.73557132513251  0.60730412041204
 6 -11.83875568156816 -1.27631732363236  2.01166729772977
 6 -12.59706620162016 -2.39424064596460 -0.12771150915092
 6  9.66026126712671  0.25010396339634  0.12033599359936
 6 -10.05764133613361 -0.98479122102210 -0.48280956595660
 6  11.68591447144714  1.20505567946795 -1.88684067406741
 6 -10.68809709770977  1.85789526662666 -1.45622251225123
 6  9.34749865486549  1.60291653465347 -0.01455481548155
 6 -8.82325372237224 -0.51025297419742 -0.29148425042504
 6  7.99946905190519  2.23829981298130  0.13134390939094
 6 -7.66861489548955 -1.31499982788279 -0.48921509050905
 6  7.96209799379938  3.71510036503650  0.42029621362136
 6 -7.80392868986899 -2.65962553945395 -1.16004468946895
 6  6.88207817881788  1.54225316631663  0.04644215921592
 6 -6.40367306430643 -0.63906216811681 -0.32291121612161
 6  5.50937165116512  2.00575481348135  0.07794476347635
 6 -5.10620916691669 -1.06165323822382 -0.60564744274427
 6  4.46704549054905  1.21213740774077  0.00877879287929
 6 -3.94519581658166 -0.33738596259626 -0.45282809780978
 6  3.15102259325933  1.73044743574357  0.20764488048805
 6 -2.60627608360836 -0.68184826382638 -0.74186254125413
 6  2.84048561556156  3.18976666866687  0.44030168816882
 6 -2.35054382238224 -2.05373886588659 -1.04570579657966
 6  2.01035012401240  0.81568363236324 -0.09958063806381
 6 -1.55218717871787  0.14920280928093 -0.49965391639164
 6  0.73269009800980  0.99367218121812 -0.09402807480748
 6 -0.22365223522352  0.06785918591859 -0.43409437943794
 1  13.17123570357036 -1.21516492659266  1.71282697169717
 1  12.81438493749375 -2.76675989008901  1.51203888788879
 1 -14.36947992099210 -0.81710915281528  1.57223814481448
 1 -14.25842933793379 -0.22615048694869 -0.38744060006001
 1  13.02733374037404 -2.45475478257826 -0.81452201020102
 1 -12.93342377437744  1.34034801690169  1.78077581158116
 1  14.04227881488149  0.29140171807181 -0.43005818681868
 1  13.75213077007701 -0.86338169526953 -2.00611334233423
 1 -13.64867007600760  1.79384444454445 -0.94974771777178
 1 -12.42102807580758  2.84784980508051  0.05477651365136
 1  11.19600228922892 -1.92661109010901  2.95943063906391
 1  9.92772109910991 -1.25335513451345  2.93550030503050
 1  11.22353609560956 -0.24901376847685  2.70930431643164
 1  10.91013727672767 -3.22583735773577 -0.36003268626863
 1  10.54617362026203 -3.49641828482848  1.31282072207221
 1  9.33789110611061 -2.66662797079708  0.50482720372037
 1 -11.86115780178018 -0.35454794869487  2.36855715271527
 1 -10.70026286528653 -1.70021256515652  2.03582736673667
 1 -12.61136202920292 -1.95952337223722  2.45811639163916
 1 -13.49332978197820 -2.90770946684669  0.49555768676868
 1 -11.65001023602360 -2.84038062696270  0.01686458445845
 1 -12.76718457745774 -2.08453764566457 -1.10056279827983
 1  8.88737064006401 -0.29921433243324  0.50936805780578
 1 -10.18037280228023 -2.19714677857786 -0.73031683368337
 1  10.49083037503750  1.16173084308431 -2.30577263626363
 1  12.03002883188319  2.27871881478148 -1.56201180918092
 1  12.43890556055606  0.84303515841584 -2.78214090309031
 1 -11.01540594159416  2.47224278837884 -2.05574629562956
 1 -9.91437741574157  1.13661768086809 -1.96817278427843
 1 -9.86635081908191  2.56363901800180 -0.72843599959996
 1  14.93516264426443 -3.12875820292029  0.29409768976898
 1 -15.29062375537554  1.56009330943094  1.99745084108411
 1  10.12975889488949  2.23017992599260 -0.21675485048505
 1 -8.54882961896190  0.40130473157316  0.14987436143614
 1  8.92852053905390  4.32423580558056  0.39094493549355
 1  7.23286967396740  4.18686354735474 -0.31082742874287
 1  7.53861312131213  3.96360742874287  1.34420125812581
 1 -8.41739453345335 -3.41607626552655 -0.47349263826383
 1 -8.16174054505450 -2.69281928482848 -2.17747963696370
 1 -6.79511528352835 -3.03657819771977 -1.47587302130213
 1  7.00943679867987  0.40384359935994  0.01489361436144
 1 -6.52854983098310  0.43101059615962  0.04504937993799
 1  5.50411811681168  3.20396606860686  0.12104861386139
 1 -5.05378584958496 -2.06248392639264 -1.10238638863886
 1  4.55179837283728  0.23244799079908 -0.02942501050105
 1 -4.11435283928393  0.71222059405941 -0.26066478547855
 1  3.59167479547955  3.50801269126913  1.44928816981698
 1  1.94695295629563  3.59234021602160  0.49343394539454
 1  3.31476685668567  3.90028665366537 -0.31983504150415
 1 -2.26781789678968 -2.90122241424142  0.20526286128613
 1 -3.20215892889289 -2.41153821582158 -1.78815755775577
 1 -1.21355174017402 -2.29619716971697 -1.60494903790379
 1  2.30425178817882 -0.16025930693069 -0.29161537353735
 1 -1.89293391639164  1.16152439643964 -0.35195910291029
 1  0.25214551355136  2.02815824282428  0.09793180318032
 1  0.12459424442444 -0.98301846584658 -0.83263493749375

