%nproc=4
%Mem=2GB
# td=(NStates=1) CAM-B3LYP/6-31G(d,p) 

TD

0 1
 8  14.65294081908191 -2.43949688278828  0.02434551155116
 8 -14.74959002300230  1.86814211931193  0.90969050005000
 6  10.98671101710171 -1.58278083018302  0.92461862286229
 6 -12.28122328632863 -1.05850746864686  0.69672331633163
 6  12.51765533153315 -1.90276957305731  0.99254414641464
 6 -13.62329904890489 -0.34595261516152  0.72176498849885
 6  13.32239027802780 -1.93567588968897 -0.19483302830283
 6 -13.51097039003900  1.11792045314531  0.98538978997900
 6  10.86320564756476 -0.27456508350835 -0.00406369936994
 6 -11.29795615961596 -0.18064907180718 -0.06562423842384
 6  13.27808829982998 -0.49715820092009 -0.91640439443944
 6 -12.80991342934293  1.72596560366037 -0.11411076407641
 6  11.89050491949195  0.08524890779078 -0.78686132913291
 6 -11.51857245224522  1.02417904700470 -0.55663765976598
 6  10.62640368136814 -1.29618505950595  2.35437882188219
 6  10.22573319331933 -2.68332610061006  0.39661305130513
 6 -11.92879468546855 -1.52242193409341  2.13660979197920
 6 -12.42016851185118 -2.40970219211921 -0.10521925992599
 6  9.67445268626863  0.39327828082808  0.16708066806681
 6 -10.06351192319232 -0.93739648154815 -0.39590087508751
 6  11.71953783378338  1.21029620352035 -1.77855984598460
 6 -10.57301558955896  1.87523700080008 -1.51592848284828
 6  9.39612351735174  1.75112135513551  0.10621726172617
 6 -8.74737613461346 -0.47844979387939 -0.21840694269427
 6  8.12852195719572  2.30835681868187  0.25164593959396
 6 -7.53136117011701 -1.23000132803280 -0.41936810581058
 6  8.02104388838884  3.78572742774277  0.73643782778278
 6 -7.69381767876788 -2.63503308020802 -0.75812449744974
 6  6.90138010901090  1.68264720572057 -0.01839432443244
 6 -6.36575927292729 -0.51511977387739 -0.38261718671867
 6  5.57125783978398  2.15607984598460  0.14598156715672
 6 -4.99579812581258 -1.03554062696270 -0.62596947494749
 6  4.47657644364436  1.43960015401540 -0.10171225622562
 6 -3.89260055705571 -0.30835305930593 -0.47143995899590
 6  3.05048253925393  1.86703109410941 -0.07687357135714
 6 -2.53419887588759 -0.78336841584158 -0.65761411641164
 6  2.72038360536054  3.16593428542854  0.34334199219922
 6 -2.36094486248625 -2.14301779377938 -0.96198742474247
 6  2.22132122112211  0.95483754775478 -0.49757043704370
 6 -1.50695265526553  0.13155104410441 -0.38483243424342
 6  0.80916774577458  1.01398421242124 -0.25623429542954
 6 -0.04594446444644 -0.07762536253625 -0.59160013001300
 1  12.82653123312331 -1.06880029012901  1.66814250325033
 1  12.71297479647965 -2.86655987008701  1.57091477547755
 1 -14.15590856385639 -0.77603504540454  1.53406432743274
 1 -14.08419191419142 -0.48918679057906 -0.34582643864386
 1  12.88509951695170 -2.85518482558256 -1.00790134813481
 1 -13.03108354035404  1.40501448354835  1.88048578257826
 1  13.95184977197720  0.13921649954996 -0.29761494249425
 1  13.56807236423642 -0.64159951705171 -1.80845357635764
 1 -13.48891410041004  1.60097515761576 -0.99450219321932
 1 -12.58162413541354  2.77016203630363  0.20636167216722
 1  10.77401009000900 -2.09467789678968  3.10202489848985
 1  9.39458778577858 -1.21971177017702  2.61798855385539
 1  10.94141788378838 -0.20369923702370  2.69021240724072
 1  10.53508977197720 -2.92396717071707 -0.65976265926593
 1  10.46145514841484 -3.84961360436044  0.98893833383338
 1  9.15191250825083 -2.36311761976198  0.50635735673567
 1 -11.86905859185918 -0.50001249514951  2.66767706470647
 1 -10.92762560156016 -2.00762330623062  2.47919170317032
 1 -12.67346823982398 -2.32303972387239  2.45140572057206
 1 -13.53878432743274 -2.80413910981098  0.23596172717272
 1 -11.53349858485849 -3.15316190509051  0.19096199419942
 1 -12.44897275627563 -2.11860105200520 -1.37741048304830
 1  8.71059296229623 -0.14967937893789  0.62282940394039
 1 -10.00558532353235 -1.95693275717572 -0.69281308330833
 1  10.63471476347635  1.70529519951995 -1.91916397539754
 1  12.22659848884889  2.18079902280228 -1.47228283628363
 1  11.87255892589259  0.96267712261226 -2.75635832483248
 1 -11.14464886588659  2.49807537163716 -2.15023574457446
 1 -9.80875685368537  1.13313733283328 -1.92732869986999
 1 -10.07797198119812  2.49359201330133 -0.87052020802080
 1  14.68964809280928 -3.33886921402140  0.59164744474447
 1 -15.25523021602160  1.51989929002900  1.62960405640564
 1  10.24881080008001  2.40669757775778 -0.00749392439244
 1 -8.81165590159016  0.76186078717872  0.26676605060506
 1  8.97518520552055  4.28768215021502  0.56397223822382
 1  7.18968535553555  4.29770463146315  0.09504315831583
 1  7.69772903290329  3.63188425642564  1.82260909890989
 1 -8.20987378137814 -3.19163382128213  0.07416212721272
 1 -8.33928829982998 -2.63778378127813 -1.60285217421742
 1 -6.72716848884889 -3.00847538743874 -1.05102053605361
 1  7.06410226522652  0.68451166616662 -0.48463633863386
 1 -6.53380035603560  0.56889438453845 -0.08962408740874
 1  5.57680538553855  3.06980265226523  0.82967947694769
 1 -5.00308077907791 -2.15683336133613 -0.97782393239324
 1  4.88559175217522  0.48116286228623 -0.46375844384438
 1 -3.83565496949695  0.74410378237824  0.01672295329533
 1  2.85795142314231  3.37906979697970  1.58301154215422
 1  1.53381164216422  3.52684366636664 -0.28289368736874
 1  3.70530591059106  3.78474509950995 -0.04074713271327
 1 -2.74329544454445 -2.98559085108511 -0.29391705670567
 1 -2.79973868686869 -2.28239530153015 -1.95154389638964
 1 -1.27070745574558 -2.64863241324132 -0.75845438843884
 1  2.73231459445945  0.12481920092009 -0.83769998199820
 1 -1.80581520452045  1.08270651465146  0.30893698669867
 1  0.39579987898790  1.92858828582858  0.07717972797280
 1  0.04456624162416 -1.11355151915191 -1.08168984298430

