%nproc=4
%Mem=2GB
# td=(NStates=1) CAM-B3LYP/6-31G(d,p) 

TD

0 1
 8  14.93517904290429 -1.96524945804580 -0.05447237023702
 8 -14.64765982998300  2.00817612271227  1.10264979597960
 6  11.25030737673767 -1.49443199529953  0.92944910591059
 6 -12.44399956395639 -0.94112573047305  0.48388203220322
 6  12.73405697169717 -1.80383968006801  1.02536742874287
 6 -13.72840955995600 -0.21834985488549  0.53771658365837
 6  13.49043708270827 -1.66805912801280 -0.32322586758676
 6 -13.53538283128313  1.34408306940694  0.92660391139114
 6  11.06857618461846 -0.24071169816982  0.01601830883088
 6 -11.32929929392939 -0.15182618951895 -0.21319899589959
 6  13.35012550355035 -0.38654713981398 -0.81167392139214
 6 -12.66486892489249  1.92321532863286 -0.19646899989999
 6  11.98475434443444  0.25917630053005 -0.85573821682168
 6 -11.50301089608961  1.11764839393939 -0.51948394439444
 6  10.75014605560556 -1.22021746274627  2.37728111211121
 6  10.56349696969697 -2.68066583458346  0.21127451745174
 6 -11.97245905190519 -1.34357404930493  1.95215134613461
 6 -12.80041653665367 -2.31107232913291 -0.33572231023102
 6  9.64627986898690  0.30137909090909  0.08254221422142
 6 -10.18200377237724 -0.90255299719972 -0.57324860986099
 6  11.85284116411641  1.35721089498950 -1.82303429342934
 6 -10.51498978697870  1.83845332243224 -1.55402229222922
 6  9.36186009100910  1.59719596259626 -0.01276463646365
 6 -8.86561795879588 -0.53774572347235 -0.41632673467347
 6  8.00153925892589  2.17760374337434  0.04400517551755
 6 -7.68373640764076 -1.32993132103210 -0.36224239323932
 6  7.92720450445045  3.69634848984898  0.41349553355336
 6 -7.77120541754175 -2.63498307520752 -0.80916960196020
 6  6.84037400840084  1.41554049504950  0.10184769976998
 6 -6.45622831983198 -0.65154341624162 -0.20520944594459
 6  5.54583529752975  1.95792003000300  0.08162513151315
 6 -5.10438898489849 -1.20740781368137 -0.32816969496950
 6  4.42384117011701  1.12840903490349  0.02410032503250
 6 -3.94235553255326 -0.40506273027303 -0.27569038403840
 6  3.09028651965197  1.58466285728573  0.13439755575558
 6 -2.65597105310531 -0.83774385338534 -0.39837819281928
 6  2.80189175617562  3.01276896889689  0.46411406940694
 6 -2.35885465346535 -2.18743223522352 -0.85189641564156
 6  2.14085317431743  0.69344140814081 -0.20032071207121
 6 -1.62268422842284  0.10602849184918 -0.21748569956996
 6  0.76644347334733  0.85733854785479 -0.24676334833483
 6 -0.20948081808181 -0.14059165916592 -0.31282225222522
 1  13.35427400740074 -1.17149055915592  1.77116280528053
 1  12.79909340834083 -2.66583979807981  1.48865654965497
 1 -14.46029900290029 -0.65500294219422  1.24656557755776
 1 -14.29695319031903 -0.31867973987399 -0.41262311831183
 1  12.92613362036204 -2.28065737283728 -1.03405396339634
 1 -12.85539597159716  1.15077906000600  1.92530026402640
 1  14.18065265226523  0.28323090099010 -0.27492267326733
 1  13.78224378137814 -0.38401375847585 -1.85105783678368
 1 -13.18927413641364  2.21033609370937 -1.11337408040804
 1 -12.47363333633363  3.04847986808681  0.03895493149315
 1  11.05193788278828 -1.96845527452745  3.03996869286929
 1  9.67646597359736 -1.06375617461746  2.55964271927193
 1  11.23030677267727 -0.25072393949395  2.75804919091909
 1  10.89252551555156 -2.74885965996600 -1.01965864886489
 1  10.72538154105411 -3.74315295829583  0.68654809480948
 1  9.56421373837384 -2.62507381538154  0.21966868786879
 1 -11.90532221822182 -0.38526102000200  2.32628292529253
 1 -10.90847368636864 -1.88339088298830  2.14962874687469
 1 -12.81889278227823 -2.01841926182618  2.55146572657266
 1 -13.66537698669867 -2.75388408430843  0.12979111011101
 1 -11.98176341134113 -3.10038662756276 -0.05279238123812
 1 -13.11450930993099 -2.09265845774577 -1.38588133013301
 1  8.93838574157416 -0.39323373437344  0.53360048104810
 1 -10.30286505150515 -2.03223028692869 -0.71107490949095
 1  10.86761805380538  1.53193786378638 -2.13227528652865
 1  12.12892872187219  2.32751369426943 -1.39159476747675
 1  12.51287295729573  1.21041189608961 -2.70140282928293
 1 -11.04161856285628  2.40266583068307 -2.31787250825082
 1 -9.90717669566957  1.01631565066507 -1.97643361036104
 1 -10.05872005600560  2.70636329042904 -0.97880103610361
 1  14.73936306430643 -3.07368269536954  0.02116039603960
 1 -15.26729142214221  1.69931723182318  1.85918701470147
 1  9.95937185618562  2.30041694969497 -0.16570974597460
 1 -8.60165490149015  0.39151375247525 -0.00647127312731
 1  8.81256894389439  3.98967234923492  0.41835767676768
 1  7.16991337833783  4.16874173517352 -0.22189853585359
 1  7.51981124112411  3.60612168016802  1.43137997599760
 1 -8.53754654865487 -3.38013267116712 -0.16996228522852
 1 -8.33407777877788 -2.80782078497850 -1.64379626862686
 1 -6.83890966296630 -3.27368190809081 -0.98815424942494
 1  6.90312616761676  0.38270148514851  0.25438756375638
 1 -6.63127010301030  0.56820431553155 -0.05971109610961
 1  5.51206891189119  3.20485615761576  0.12599910891089
 1 -5.18153862486249 -2.27614529252925 -0.21154730473047
 1  4.64368756175618  0.05015976197620 -0.14633670167017
 1 -4.17622902690269  0.65163453545355 -0.04734345334533
 1  3.00316594459446  3.25532742274227  1.48375161616162
 1  1.90355861686169  3.39849083108311  0.48881348334834
 1  3.32503788378838  3.51534815981598 -0.25256831483148
 1 -3.00486160116012 -2.85500779277928 -0.40125779077908
 1 -2.43015172817282 -2.40674773677368 -1.88654739673967
 1 -1.18476886188619 -2.39694724472447 -0.74739328232823
 1  2.43421478447845 -0.39803308430843 -0.22630884288429
 1 -1.78212283528353  1.01589983398340 -0.13993790079008
 1  0.40486078507851  1.88015344234423  0.06702871287129
 1  0.01498328332833 -1.24598476247625 -0.40550222422242

