%nproc=4
%Mem=2GB
# td=(NStates=1) CAM-B3LYP/6-31G(d,p) 

TD

0 1
 8  14.70973649864987 -2.33071600470047 -0.09533645664566
 8 -14.76748181218122  1.66963226832683  1.17155668666867
 6  11.18585093109311 -1.44567711981198  1.05979214021402
 6 -12.43794895889589 -1.08079969786979  0.59585322932293
 6  12.68633219921992 -1.95485478157816  1.19136402840284
 6 -13.68610532953295 -0.35728374827483  0.58731154315432
 6  13.39843788278828 -1.91171349344934 -0.16851039603960
 6 -13.55248454145415  1.12510117121712  1.06664791579158
 6  10.92158148514851 -0.30935856285629  0.06564327132713
 6 -11.28754511851185 -0.25611661856186 -0.16497417341734
 6  13.20559105010501 -0.60828931403140 -0.76543929792979
 6 -12.75871830983098  1.76400940804080 -0.02702205520552
 6  11.89944581358136  0.07530791369137 -0.82429507250725
 6 -11.47185778077808  1.05447207630763 -0.51795379137914
 6  10.59296033703370 -1.13586902790279  2.44307769176918
 6  10.27542816281628 -2.70520828882888  0.54172756275628
 6 -12.03749555555556 -1.39048874077408  2.06029216021602
 6 -12.60373686868687 -2.38354957685769 -0.18072681068107
 6  9.65003024402440  0.46125507850785  0.13010697069707
 6 -10.06572214421442 -0.95461820372037 -0.35186647164716
 6  11.79125500550055  1.15744091799180 -1.83859584958496
 6 -10.53515180318032  1.89889936703670 -1.32649953995400
 6  9.39550345534554  1.65448169116912 -0.02463582358236
 6 -8.77878927592759 -0.49074102300230 -0.24783988598860
 6  8.10602970797080  2.27537352035203  0.05372614761476
 6 -7.49945797979798 -1.21727005490549 -0.56720288928893
 6  7.95294707870787  3.73286214121412  0.44363854785479
 6 -7.61315961296130 -2.68982855975598 -1.02105079007901
 6  6.98139811081108  1.61382032303230 -0.16648913391339
 6 -6.43600629762976 -0.53176143804380 -0.46009493449345
 6  5.67930864486449  1.99770400840084  0.13112008100810
 6 -5.03836238223822 -0.98853592649265 -0.83394027202720
 6  4.52737152315231  1.31272746674667 -0.23540562556256
 6 -3.87951924892489 -0.28441066506651 -0.44163697869787
 6  3.18106559755976  1.73911830283028  0.06035015101510
 6 -2.59983543954395 -0.71522160116012 -0.59342769776978
 6  2.89181074807481  3.19902759475948  0.52573023102310
 6 -2.25453422142214 -2.11026451845185 -0.84058528452845
 6  2.07502659165917  0.86057812181218 -0.35654633463346
 6 -1.60157211721172  0.19333722272227 -0.25750970197020
 6  0.72461929092909  1.07616043004300 -0.17314598659866
 6 -0.21706157615762  0.16332873287329 -0.41543251325133
 1  13.17460604060406 -1.29562297239724  1.74895058405841
 1  12.81357485648565 -3.07148036213621  1.53272095609561
 1 -14.52961593459346 -0.69765720762076  1.27527844884488
 1 -14.13167666266627 -0.26734460636064 -0.46569842584258
 1  12.79930093709371 -2.67197650475047 -0.89014957295730
 1 -12.94389482148215  1.19164314641464  1.94282201620162
 1  13.72816740374037  0.16329890779078 -0.18671385238524
 1  13.45829138613861 -0.80621597869787 -1.99095182618262
 1 -13.45324053305330  1.77664272437244 -0.91427417041704
 1 -12.35604157715771  2.80177519761976  0.18950998699870
 1  10.69396208520852 -2.05263369236924  3.04280897689769
 1  9.70564889188919 -0.61727152615261  2.52585934093409
 1  11.30688443044304 -0.37295616271627  2.73078646464646
 1  10.41809807280728 -2.91577635163516 -0.50342702570257
 1  10.46803580648065 -3.59767841084108  1.12375181518152
 1  9.14686200320032 -2.42313362136214  0.89252597359736
 1 -11.92715440144014 -0.55406790069007  2.70605090209021
 1 -11.13561640064006 -1.99627217111711  2.13737752175218
 1 -12.89555044804480 -2.13980140004000  2.67593817381738
 1 -13.51286173517352 -2.93245194109411  0.24942307330733
 1 -11.73949918491849 -3.01207779667967 -0.27981508350835
 1 -12.86764462346235 -2.42908210011001 -1.25579832183218
 1  8.86718862186219 -0.22235664666467  0.46941406240624
 1 -10.12894765976598 -1.90022708660866 -0.43800760276028
 1  10.65333662566257  1.40099476947695 -2.05648770777078
 1  12.01172700170017  2.22411335423542 -1.39869547754775
 1  12.38249991999200  1.01701255615561 -2.68035072407241
 1 -11.02054645564556  2.34376994109411 -2.20923164416442
 1 -9.81251722972297  1.28552257135714 -1.98059402640264
 1 -10.17290147414741  2.62674532863286 -0.73682683868387
 1  14.66938606660666 -3.33001832893289  0.18026630663066
 1 -15.21936662966296  1.37723502360236  2.11893298929893
 1  10.17031295029503  2.31828873687369 -0.09371254625463
 1 -8.34669940594059  0.49499410051005 -0.06724735073507
 1  9.03420110711071  4.25378876087609  0.23826966796680
 1  7.29891627862786  4.19260412141214 -0.19524587058706
 1  7.76778603860386  3.93715478347835  1.50922776077608
 1 -8.09845263926393 -3.25717037493749 -0.18476376537654
 1 -8.42785715671567 -2.78511851475147 -1.79199108810881
 1 -6.69593536553655 -3.14216875677568 -1.55662109610961
 1  7.01368722372237  0.65079829482948 -0.64615249024903
 1 -6.52967994399440  0.41018851395140 -0.36051117611761
 1  5.51491919691969  3.14625029702970  0.41773828282828
 1 -5.26813728472847 -1.98254593259326 -1.31620777077708
 1  4.61832502550255  0.46403114911491 -0.82271433943394
 1 -4.23061446544654  0.85517488948895 -0.07508622762276
 1  3.11706733473347  3.51182307230723  1.59608284928493
 1  1.77593585458546  3.45797677967797  0.16854145614562
 1  3.30474585458546  3.83284990999100 -0.24863792179218
 1 -2.81860297529753 -2.83243553555355 -0.14854251925193
 1 -2.47757647064706 -2.20847790979098 -1.89500824282428
 1 -1.21925231023102 -2.07233478347835 -0.95189373237324
 1  2.48383974697470 -0.10300358135814 -0.53708992099210
 1 -1.92281690469047  1.25931417541754 -0.03763767076708
 1  0.41857215621562  2.04544997199720  0.09096110611061
 1  0.12064384938494 -0.81925208920892 -0.72657433143314

