%nproc=4
%Mem=2GB
# td=(NStates=1) CAM-B3LYP/6-31G(d,p) 

TD

0 1
 8  14.68218374337434 -2.36597953105311 -0.05136205920592
 8 -14.76204126812681  1.80170547564756  1.00931046204620
 6  11.17899024502450 -1.48841139323932  0.97975413641364
 6 -12.37472263626363 -1.05703732163216  0.67039068306831
 6  12.62287585358536 -1.92780207630763  1.14188908090809
 6 -13.65773249224923 -0.29439745964596  0.63389620162016
 6  13.30112815181518 -2.05443776587659 -0.18249179417942
 6 -13.51924121712171  1.06394505560556  0.95071632263226
 6  10.97395672267227 -0.23710133713371  0.02494920192019
 6 -11.19167553155316 -0.26076708360836 -0.09081675767577
 6  13.26474696569657 -0.59248773387339 -0.82042479647965
 6 -12.64042648064807  1.81592459955996 -0.08033738673867
 6  11.97037290629063  0.14899528242824 -0.71721436443644
 6 -11.45441603660366  1.03162979207921 -0.45682767876788
 6  10.51329237023702 -1.30570601160116  2.41116450045005
 6  10.29173979397940 -2.68885665366537  0.33721711171117
 6 -11.94436624262426 -1.28838853075308  2.06697282828283
 6 -12.60468696369637 -2.49453067496750 -0.04527326532653
 6  9.63301854285428  0.26468542154215  0.14882884288429
 6 -10.05559113111311 -1.10911365326533 -0.48036932193219
 6  11.67101298129813  1.27158233213321 -1.68789077907791
 6 -10.46157444544454  1.85366484358436 -1.30519740974097
 6  9.41022492749275  1.65047129012901  0.08638527852785
 6 -8.79513091009101 -0.60636258515852 -0.28989409140914
 6  8.09141824682468  2.25924190719072  0.12262303730373
 6 -7.62263029702970 -1.28701702960296 -0.48716488548855
 6  8.15192697669767  3.72085094009401  0.50361454545455
 6 -7.70955925292529 -2.69927950485049 -1.02000068506851
 6  6.85088505950595  1.64083302430243 -0.06076856185619
 6 -6.36824952195219 -0.54132239413941 -0.38487741274127
 6  5.60619133313331  2.08223246124612  0.06109307830783
 6 -5.07163570957096 -1.05710278317832 -0.44125100310031
 6  4.41401018701870  1.41181737573757 -0.21331341634163
 6 -3.96074737173717 -0.28115033903390 -0.41764457945795
 6  3.13638112911291  1.97966235723572 -0.01332721672167
 6 -2.63033848984898 -0.69646972597260 -0.62545090009001
 6  2.93277484448445  3.39506719871987  0.41814947294729
 6 -2.41074984298430 -2.14126761876188 -1.00058128412841
 6  2.13019210821082  0.95367743174317 -0.39577025702570
 6 -1.56528848884888  0.23465135413541 -0.34917886888689
 6  0.79641647064706  1.16973978797880 -0.21937060906091
 6 -0.19888975897590  0.04986738673867 -0.36096706670667
 1  13.13601218121812 -1.00231364146415  1.51202689168917
 1  12.79380287928793 -2.79621283538354  1.71336902090209
 1 -14.37122009500950 -0.92429987188719  1.26408732973297
 1 -13.97595109010901 -0.53184105600560 -0.50296215221522
 1  12.76891789878988 -2.79745905300530 -0.76319687768777
 1 -12.93908434043404  1.31863584568457  2.00569830383038
 1  14.15876046304630 -0.09787720982098 -0.38986416741674
 1  13.52463802080208 -0.80082543964396 -1.89928265926593
 1 -13.28354356335634  1.77017207730773 -0.90758350135013
 1 -12.35597157015702  2.77473249334933  0.25660669666967
 1  10.75033772277228 -2.01184961396140  3.24798949494950
 1  9.62683101010101 -1.08316811581158  2.19392614761476
 1  10.97929167116712 -0.46542540964096  2.67346073207321
 1  10.79912617561756 -2.97342211621162 -0.59749643264326
 1  10.05661466436644 -3.44550319331933  1.16865630563056
 1  8.97901521852185 -2.29657096509651  0.01489821082108
 1 -11.65192687868787 -0.23253574747475  2.50875117211721
 1 -10.84082692169217 -1.68578112201220  2.10781456545655
 1 -12.58230912391239 -1.94531195109511  2.80781136113611
 1 -13.41979242824282 -3.18189688558856  0.24258238923892
 1 -11.68933416841684 -3.38674526342634  0.16020891889189
 1 -12.78310616961696 -2.28187737963796 -1.21245398739874
 1  8.73322522552255 -0.30730514151415  0.40968808980898
 1 -10.32705747074708 -2.16232329622962 -1.05575937793779
 1  10.60922221422142  1.41638630863086 -1.99736179517952
 1  11.99480530953095  2.23076401930193 -1.18344395239524
 1  12.28799046904691  1.17731858675868 -2.66586927592759
 1 -11.10273467446745  2.42361792589259 -1.95366608760876
 1 -9.98964494249425  1.09029304840484 -2.15199116611661
 1 -9.81529571357136  2.34184683878388 -0.80904406040604
 1  14.75598472647265 -3.35970129722972  0.08430671067107
 1 -15.52990768376837  1.21283858395840  1.44350544654465
 1  10.21410732973297  2.23867077507751  0.05800262526253
 1 -8.62400713671367  0.45090969206921 -0.19952057805781
 1  9.23027071407141  4.14794817681768  0.68599444044404
 1  7.62258864586459  4.32028688968897 -0.27197354335433
 1  7.81661092109211  3.97859892789279  1.68592543054305
 1 -8.14375716971697 -3.43700835873587 -0.30403569256926
 1 -8.37004137513751 -2.62236223912391 -2.00521241024102
 1 -6.65804157615762 -2.92048658855886 -1.59379481348135
 1  6.96955281028103  0.70948416341634 -0.46806468146815
 1 -6.64502147814782  0.51451894699470 -0.07456258125813
 1  5.54073177817782  3.22697836983698  0.32885939493949
 1 -4.89166963796380 -1.96178385638564 -0.82657880788079
 1  4.68170136313631  0.41556630263026 -0.68839090709071
 1 -4.03792519651965  0.61914128612861  0.09250053105311
 1  3.58085371337134  3.70702259225923  1.33032627362736
 1  1.94644290529053  3.50462144414441  0.90483508550855
 1  2.98865424542454  3.94931155615562 -0.44495755375538
 1 -2.81883299829983 -2.88828112011201 -0.35740340534053
 1 -3.23401211421142 -2.44838190019002 -1.75288403040304
 1 -1.54682506750675 -2.52005955595560 -1.16780532353235
 1  2.38339970297030 -0.04017729872987 -0.63838005000500
 1 -1.92233685668567  1.44222246624662 -0.20251415841584
 1  0.16689698869887  2.04545997299730 -0.07373536353635
 1  0.49995178017802 -0.80875103910391 -0.68292996699670

