%nproc=4
%Mem=2GB
# td=(NStates=1) CAM-B3LYP/6-31G(d,p) 

TD

0 1
 8  14.84473999899990 -2.05790872397240  0.13724680168017
 8 -14.70650571457146  1.95253055815582  1.19090862186219
 6  11.10708305430543 -1.58123067516752  0.89589575057506
 6 -12.28761392539254 -1.04092571047105  0.68886253025303
 6  12.62747631363136 -1.78517781388139  1.20559545154515
 6 -13.63668038703870 -0.20214823472347  0.78669148114811
 6  13.44496253525353 -1.81826414851485 -0.05970951595160
 6 -13.50679997299730  1.21124978607861  1.05277652865287
 6  11.00269959695970 -0.30831845884588  0.14323103010301
 6 -11.36961332533253 -0.20875188208821 -0.07628530453045
 6  13.32759325032503 -0.50409889498950 -0.75959871387139
 6 -12.71418385638564  1.76611961906191 -0.10872022502250
 6  12.02703857285729  0.14324470737074 -0.75111775477548
 6 -11.51541213621362  1.00935756485649 -0.50177217321732
 6  10.45608664966497 -1.36895233623362  2.33967735173517
 6  10.42318293829383 -2.84189195719572  0.29432282228223
 6 -11.70262206820682 -1.37235692759276  2.03313944494449
 6 -12.67751424642464 -2.40585180708071  0.10831209320932
 6  9.68420366136614  0.28189714271427  0.06401036103610
 6 -9.99779535153515 -0.96375911781178 -0.35666695169517
 6  11.88233411341134  1.26476165006501 -1.66184817481748
 6 -10.64123241124112  1.86929640674067 -1.53745063506351
 6  9.36185009000900  1.66135237823782  0.14396103610361
 6 -8.72432382938294 -0.50166211511151 -0.31797689968997
 6  8.07292639763976  2.25368135113511  0.12754352935294
 6 -7.53406144014401 -1.30081840974097 -0.56636280528053
 6  7.89903168716872  3.67719657465747  0.61058524252425
 6 -7.76794509150915 -2.64844442134213 -0.95885457045705
 6  6.85074504550455  1.55210415141514 -0.13681616661666
 6 -6.35752844984498 -0.62877113901390 -0.44005293029303
 6  5.55892660666067  2.10345458345835  0.04698166716672
 6 -5.15678422442244 -1.11937901080108 -0.56207308530853
 6  4.42269105510551  1.31219741374137 -0.27445953095310
 6 -3.99174047104710 -0.31925414941494 -0.35577839283928
 6  3.05330282128213  1.75440983198320 -0.01767765176518
 6 -2.55922137813781 -0.71109118811881 -0.70305866086609
 6  2.77426899389939  3.11240893289329  0.35407306530653
 6 -2.37522629062906 -2.11278477047705 -1.29646087208721
 6  2.07199628862886  0.85883794779478 -0.36167684768477
 6 -1.63584554455446  0.17824571357136 -0.39535348634864
 6  0.70279710871087  0.98631144514451 -0.31370004200420
 6 -0.24139400940094  0.01155355535554 -0.70806177617762
 1  13.32129070907091 -1.09831324142414  1.94841053005301
 1  12.69241274027403 -2.65907912201220  1.68427611161116
 1 -14.17500047304731 -0.80396783868387  1.58938985998600
 1 -14.34052754775477 -0.21749962186219 -0.02253410941094
 1  13.01864287128713 -2.60116942404240 -0.68781933993399
 1 -12.93200363236324  1.49627360946095  2.10512824682468
 1  13.97863245024502  0.23528610651065 -0.08704388538854
 1  13.72591814881488 -0.50001535863586 -1.76844957595760
 1 -13.50850605960596  1.76288134823482 -0.90292303530353
 1 -12.46946291929193  2.91589660976098 -0.09950891489149
 1  10.78901159015902 -2.30711914091409  2.99234393039304
 1  9.58007633463346 -0.95137493649365  2.39558631363136
 1  11.02140588258826 -0.42677154425443  2.80973435943594
 1  10.78732499549955 -3.12798757275728 -0.56136281928193
 1  10.44477348024802 -3.71164980798080  0.67805724572457
 1  9.27445476247625 -2.67146845484548  0.19544626562656
 1 -11.48552023802380 -0.38407090099010  2.56834713171317
 1 -10.68232107110711 -1.91408395229523  1.94257804180418
 1 -12.46855774877488 -1.99169658955896  2.73321390139014
 1 -13.47836828582858 -2.93980267616762  0.75874400540054
 1 -11.76454168916892 -2.90340692959296  0.22029492749275
 1 -13.09026688568857 -2.46223541544154 -0.92528527052705
 1  8.82832473547355 -0.24410882188219  0.38812593359336
 1 -10.23415818081808 -1.89332639653965 -0.64640844284428
 1  10.79320061206121  1.52550722072207 -1.83913597259726
 1  12.35278110711071  2.20921186408641 -1.38894450245025
 1  12.37928959895990  1.01880273517352 -2.74209689868987
 1 -11.24768916991699  2.72624818891889 -1.95283600460046
 1 -9.97448342634263  1.08883290239024 -1.91167713471347
 1 -9.98946313031303  2.52308496259626 -0.91992514851485
 1  15.09441856985699 -2.87233256035604  0.55353363336334
 1 -15.03790848384838  1.56472377247725  2.05525662166217
 1  10.22518843784378  2.23808071607161  0.34935176017602
 1 -8.83097783378338  0.61447604870487 -0.12302292829283
 1  9.13851153815381  4.23990737273727  0.45873171417142
 1  7.37591397839784  4.21798665966597 -0.28090443644364
 1  7.29668892889289  3.77979904790479  1.44178101610161
 1 -8.44699749374938 -3.27523218111811 -0.27908319731973
 1 -8.10996536753675 -2.77270727362736 -2.14921681068107
 1 -6.88329410141014 -3.37207174707471 -1.20329576357636
 1  7.07248310331033  0.47017023202320 -0.33112098709871
 1 -6.40898787478748  0.37241473657366 -0.16640176517652
 1  5.16218392339234  2.95436110811081  0.53240974997500
 1 -4.70084055505551 -2.16350402840284 -0.89755590559056
 1  4.48287148014801  0.22448719471947 -0.40307237523752
 1 -4.23496490049005  0.58212758475848  0.00067134813481
 1  2.99727535553555  3.21061295129513  1.46020926192619
 1  1.70017827882788  3.27624860686069  0.44195879787979
 1  3.23052843284328  3.83595022002200 -0.18151120912091
 1 -3.18334944994499 -2.64152644464446 -0.81913957895790
 1 -2.65268398139814 -2.23628069006901 -2.47330607260726
 1 -1.42590297529753 -2.54070162016202 -0.97860640364036
 1  2.48990035303530 -0.15813909490949 -0.70094630663066
 1 -1.75898052105210  1.09929817381738  0.22923901690169
 1  0.29615991499150  1.99110453745375 -0.16253424342434
 1  0.04525631063106 -0.84439460346035 -1.44108578257826

