%nproc=4
%Mem=2GB
# td=(NStates=1) CAM-B3LYP/6-31G(d,p) 

TD

0 1
 8  14.77833335833584 -2.19144207730773 -0.34151107410741
 8 -14.57525258925893  1.93441874697470  1.27398692969297
 6  11.33117546354635 -1.30223277537754  1.24102026302630
 6 -12.42499766376638 -0.98978059595960  0.55715935993599
 6  12.79853341934193 -1.61713100920092  1.17100199219922
 6 -13.72446916591659 -0.25750377027703  0.70036284828483
 6  13.28142618161816 -1.90601292339234 -0.34218776377638
 6 -13.38044733773377  1.17598625972597  0.97466871787179
 6  11.00920024702470 -0.28742636963696  0.10609731673167
 6 -11.30813717771777 -0.22268327522752 -0.18328600460046
 6  13.17223771477148 -0.61503998909891 -1.03758651265127
 6 -12.70325276327633  1.84248725582558 -0.16424577757776
 6  11.88053392239224  0.02326270917092 -0.93891653465347
 6 -11.48996959195919  1.10113674277428 -0.60674267026703
 6  10.99166020702070 -0.85528096909691  2.57336072007201
 6  10.59628024802480 -2.52966073407341  0.72636602660266
 6 -11.97192899889989 -1.56440613251325  1.96911304230423
 6 -12.79387588258826 -2.34692591449145 -0.07723646164616
 6  9.69726496749675  0.29842879587959  0.13421738173817
 6 -10.15057062906291 -1.04869761166117 -0.41524280928093
 6  11.59662554255426  0.97832300620062 -2.11109309930993
 6 -10.59183747174717  1.65550502760276 -1.66177306730673
 6  9.31251515651565  1.60950719371937 -0.07015037503750
 6 -8.91202259925993 -0.44995694459446 -0.42123722572257
 6  8.09106821182118  2.24678066106611  0.06323709870987
 6 -7.63907194119412 -1.07137546544654 -0.66780294929493
 6  8.08787057105711  3.75277413241324  0.36967115111511
 6 -7.83782207920792 -2.51156073297330 -1.10403908890889
 6  6.92752272327233  1.52495143614361  0.02511002600260
 6 -6.43852654965497 -0.52953121502150 -0.41306023102310
 6  5.54717543154315  2.02775701370137  0.33436040504050
 6 -5.15694424042404 -1.02536960986099 -0.67045392339234
 6  4.44142292829283  1.28395458945895  0.10737865286529
 6 -3.99819111611161 -0.22813503750375 -0.46470928592859
 6  3.14881237223722  1.62310670167017  0.23369748574857
 6 -2.67938339433943 -0.73965404440444 -0.64867322232223
 6  2.87168873587359  3.10898859085909  0.70744840284028
 6 -2.38147691569157 -2.18699219121912 -1.25105633163316
 6  2.12629171817182  0.64358642264226  0.02363168316832
 6 -1.61919387938794  0.08795668466847 -0.26619057005701
 6  0.70829765876588  0.84717753175318  0.11988331633163
 6 -0.23365323532353 -0.10242784278428 -0.21167213721372
 1  13.47310589058906 -0.74779818991899  1.46005169416942
 1  13.10214371337134 -2.47763097719772  2.02227991199120
 1 -14.19784275727573 -0.77019446134613  1.43929485048505
 1 -14.44133762876288 -0.28562643454345 -0.11368322432243
 1  12.79287029402940 -2.67014632173217 -0.88608916691669
 1 -12.63456388838884  1.28170215231523  1.73430116411641
 1  14.05259984698470  0.13575615351535 -0.69771495249525
 1  13.39304486148615 -0.88742409950995 -2.11349408040804
 1 -13.41254646364636  1.91680674077408 -1.01003374637464
 1 -12.53646961996200  2.84228924902490  0.16652768876888
 1  11.51583427242724 -1.54457288628863  3.05558025402540
 1  9.89026735373537 -0.66880667966797  2.84887164216422
 1  11.44165790779078  0.21853298619862  2.48592197819782
 1  10.89476573957396 -2.95860063406341 -0.26049273227323
 1  10.67746674957496 -3.49533817681768  1.29948938893889
 1  9.42116943394339 -2.47841914991499  0.72421914291429
 1 -11.75949763576358 -0.51379387328733  2.33434373137314
 1 -11.01800463946395 -2.00361290519052  1.97480126412641
 1 -12.60898179117912 -2.26904432433243  2.59994057405741
 1 -13.58487893689369 -2.89703839973997  0.42104023502350
 1 -12.02928816381638 -3.15404199309931 -0.08151525352535
 1 -12.89987784678468 -2.38755794769477 -1.20928367036704
 1  9.15126702970297 -0.65412982398240  0.45535265626563
 1 -10.39631439643964 -2.03979104300430 -0.34571837383738
 1  10.45386667866787  1.22402707270727 -2.32455451445145
 1  11.99520534953495  2.11301224412441 -1.94302991099110
 1  12.03141481148115  0.56204705960596 -2.98272096109611
 1 -11.20358475947595  2.33329889398940 -2.37127784878488
 1 -9.95696167416742  0.94768878797880 -2.05778174517452
 1 -9.85986017001700  2.51853450755076 -1.27257041304130
 1  14.91975110311031 -3.03989931703170  0.17420570057006
 1 -15.18088278127813  1.11467876797680  1.83821491749175
 1  10.27746366536654  2.23751065906591 -0.16268944394439
 1 -8.77480221622162  0.55766036713671 -0.18437906390639
 1  9.23984167116712  4.01876525852585  0.45433127412741
 1  7.35057144414441  4.29605446644664 -0.53698004400440
 1  7.59000826082608  3.92523359135914  1.43864070207021
 1 -8.45910870487049 -3.03529818771877 -0.46613190219022
 1 -8.56195056605661 -2.34720472337234 -1.99912180118012
 1 -6.89311508350835 -3.19924446434643 -1.35221065506551
 1  6.70661651665167  0.48217143214321 -0.26394426942694
 1 -6.54749172517252  0.47831532663266  0.09955483048305
 1  5.61732943794379  3.01037670967097  0.69312582158216
 1 -5.04966543754375 -2.10834851285128 -1.30310646064606
 1  4.76645983898390  0.26786153215322 -0.15260732873287
 1 -4.01553295729573  0.79900927292729 -0.10477919691969
 1  3.41351697969797  3.36439832983298  1.54572781378138
 1  1.82481074207421  3.12717369936994  0.96420102210221
 1  3.01153653365337  3.74613123812381 -0.21991504950495
 1 -2.70444155915592 -2.88214050605060 -0.58737640264026
 1 -2.94983369636964 -2.19039610161016 -2.25684442644264
 1 -1.31470185518552 -2.30569811981198 -1.37016555955596
 1  2.55001636463646 -0.30733401440144 -0.24449066106611
 1 -1.81961658465847  0.91553979797980  0.30942703570357
 1  0.38424872387239  1.77343277027703  0.45918792879288
 1 -0.08232644764476 -1.00788095209521 -0.53430510451045

