%nproc=4
%Mem=2GB
# td=(NStates=1) CAM-B3LYP/6-31G(d,p) 

TD

0 1
 8  14.48950447544755 -2.50089302240224 -0.37808473147315
 8 -14.78660372437244  1.95877118221822  0.95552508350835
 6  11.08369071507151 -1.55870842294229  0.94777093809381
 6 -12.29504466846685 -1.05958757665767  0.53940758475848
 6  12.45892945894589 -1.99202849894990  0.95502039403940
 6 -13.69024574357436 -0.33752177207721  0.53017582958296
 6  13.14799283828383 -2.11647396949695 -0.38588213321332
 6 -13.47428672167217  1.18637729882988  0.76334758575858
 6  10.95015434243424 -0.30110773777378 -0.02375566856686
 6 -11.25041140514051 -0.34473548044804 -0.27465514151415
 6  13.18776926792679 -0.75091357645765 -1.11988474247425
 6 -12.64917735573557  1.84081708880888 -0.49007836083608
 6  11.95127099609961  0.08951933483348 -0.89883252625263
 6 -11.39733032803280  0.94863149224923 -0.65837783378338
 6  10.65258629962996 -1.06478191919192  2.30241362536254
 6  10.16086670667067 -2.60950871887189  0.42112550255026
 6 -11.80314212021202 -1.16167585948595  1.92447857885789
 6 -12.52989948494849 -2.46367758965897 -0.14135287328733
 6  9.67191243224322  0.46559551255126  0.06138009800980
 6 -9.98974454645465 -1.12183492539254 -0.42590387538754
 6  11.93164904490449  1.41163633753375 -1.70545253525353
 6 -10.47724601260126  1.76757623472347 -1.53477036703670
 6  9.36414031903190  1.72797904090409 -0.06610997099710
 6 -8.77143854085408 -0.56275822472247 -0.28291339333933
 6  8.04499360436044  2.41178716171617  0.16098687368737
 6 -7.57808584258426 -1.37291561946195 -0.42101827082708
 6  8.16049783378338  3.83377223222322  0.47547173117312
 6 -7.58235653265326 -2.67899747664766 -1.04267295229523
 6  6.93438340934093  1.66152509350935 -0.03647613261326
 6 -6.37907060406041 -0.64369263116312 -0.14278320332033
 6  5.58368908290829  2.24612885088509  0.24628159715972
 6 -5.12045059105911 -1.15677275017502 -0.30260713871387
 6  4.46683546954695  1.51108730273027 -0.01829391439144
 6 -3.89009030603060 -0.46429865386539 -0.11180399539954
 6  3.11258874987499  1.84897928892889  0.21107522352235
 6 -2.61293674967497 -0.79058913791379 -0.37335569056906
 6  2.76769833683368  3.14684237623762  0.75514317231723
 6 -2.28447721572157 -2.19488298029803 -0.75328655465547
 6  2.12923201220122  0.96605866986699 -0.13393407340734
 6 -1.54382634263426  0.13428131713171 -0.04010796179618
 6  0.62840966996700  1.14266708070807  0.10410173817382
 6 -0.19277914791479  0.01849424942494 -0.22764373437344
 1  13.06880546054605 -1.25249865996600  1.29924561356136
 1  12.56156965596560 -2.81019423352335  1.58419610361036
 1 -14.22267524052405 -0.69181662356236  1.32653357435744
 1 -14.13457695269527 -0.32909078097810 -0.44364622062206
 1  12.52379338633864 -2.70643995109511 -0.97440799879988
 1 -12.93328376037604  1.41936591869187  1.59418715271527
 1  13.98335292229223 -0.19115653775377 -0.66386156715672
 1  13.66951250825082 -0.79155451255126 -2.11111384238424
 1 -13.45452066106611  1.72954801490149 -1.39897264026403
 1 -12.33994996799680  2.76586160626063 -0.15404436843684
 1  10.63105579457946 -1.99856828582858  3.04594929092909
 1  9.64154248124813 -0.54495429442944  2.10822757775778
 1  11.30747448944894 -0.26332519961996  2.58220160616062
 1  10.28412467546755 -3.18582335633563 -0.58331501450145
 1  10.32587159005901 -3.37953659665967  1.12515195519552
 1  9.14645196219622 -2.44815612361236  0.53976069706971
 1 -11.47808949494950 -0.18649114301430  2.37606790379038
 1 -10.77253009200920 -1.71736428032803  1.92130591459146
 1 -12.66497739073907 -1.73673109300930  2.64137471747175
 1 -13.50958140714071 -2.89311800770077  0.24855298629863
 1 -11.71264649964997 -3.09818640754075  0.01524442244224
 1 -12.74918277727773 -2.39309850175018 -1.19949269126913
 1  8.74066596959696 -0.32244665566557  0.35997311831183
 1 -10.09481424642464 -2.06405346924692 -0.60116391839184
 1  10.90907219921992  1.84882955295530 -2.23577563656366
 1  12.44078990799080  2.08147909080908 -1.08934454245425
 1  12.60253192319232  1.32164301920192 -2.70306299529953
 1 -11.00868526952695  2.36845240934093 -2.32899362036204
 1 -9.82154813281328  1.03569758885889 -2.05851181818182
 1 -9.85108929292929  2.35337799189919 -1.06777993399340
 1  14.49181830983098 -3.36560188728873  0.17294557455746
 1 -15.19761445444544  1.42166946704670  1.64105520152015
 1  9.90776669566957  2.52437934593459 -0.24826800180018
 1 -8.61720645664566  0.57385198629863 -0.08761938793879
 1  9.11968965596560  4.31978536053605  0.40362620362036
 1  7.46564295129513  4.50776563756376 -0.25292163816382
 1  7.73969322932293  4.10410147814781  1.47874471247125
 1 -8.34197699169917 -3.34085874377438 -0.32716800580058
 1 -7.83416778777878 -2.74562456535654 -2.31209309830983
 1 -6.60733650565057 -3.30254479437944 -0.74587002100210
 1  7.13788964396440  0.76593980898090 -0.51543941894189
 1 -6.51711868786879  0.37714520962096  0.24000887588759
 1  5.39670737573757  3.29401507350735  0.67531404040404
 1 -4.98136860786079 -2.14267194519452 -0.66528267826783
 1  4.59380257325733  0.46110085608561 -0.21250331833183
 1 -3.98054945894589  0.58436780878088  0.01874315531553
 1  2.77583321132113  3.25492738273828  1.97122036303630
 1  1.86288454945495  3.57776875887589  0.71501610361036
 1  3.63282866286629  3.95536216121612  0.38399534153415
 1 -3.08815993099310 -3.03952624462446 -0.19186685168517
 1 -2.48321703470347 -2.26656371837184 -2.04235297729773
 1 -1.29511989698970 -2.41391894189419 -0.49427797079708
 1  2.49798116111611  0.13330004900490 -0.71849806180618
 1 -1.86503112611261  1.05098334233423  0.66233232623262
 1  0.14921522052205  2.06128155515552  0.55936794679468
 1  0.21014279927993 -0.73487365136514 -0.79975164916492

