%nproc=4
%Mem=2GB
# td=(NStates=1) CAM-B3LYP/6-31G(d,p) 

TD

0 1
 8  14.70891641664167 -2.12107504060406 -0.38869579257926
 8 -14.73848891289129  1.96279158425843  0.73399293029303
 6  11.22852519851985 -1.44157670977098  1.04159032003200
 6 -12.36929209320932 -1.03753537143714  0.63916756075608
 6  12.75001856785678 -1.80941023712371  0.98849374137414
 6 -13.74927164616462 -0.28351637153715  0.48041085308531
 6  13.39808784778478 -1.81886420852085 -0.39706325132513
 6 -13.49206849984999  1.17360602170217  0.84513576457646
 6  10.93114244124413 -0.27336496349635  0.00671737873787
 6 -11.33920028402840 -0.30038104500450 -0.23842151815182
 6  13.26079657065707 -0.42589107420742 -1.00101285528553
 6 -12.65586802480248  1.83812681978198 -0.30829018201820
 6  11.93663953295330  0.14403478637864 -0.89500214321432
 6 -11.48965956095610  1.03066969606961 -0.64335633163316
 6  10.73776481748175 -1.41230667166717  2.39527291129113
 6  10.38853947394739 -2.66003377137714  0.27830122012201
 6 -11.83973577957796 -1.14924461636164  2.13956008700870
 6 -12.54566106110611 -2.53778500040004  0.10600186218622
 6  9.67505274627463  0.35774472747275  0.14564852485249
 6 -9.99509508150815 -0.92370511241124 -0.43025431043104
 6  11.69077495749575  1.33141831573157 -1.79080107010701
 6 -10.54001228922892  1.71125060216022 -1.60142703270327
 6  9.34607851285129  1.74821106410641 -0.03882724272427
 6 -8.78855025202520 -0.39625157405741 -0.39088419041904
 6  8.06527563256326  2.32050803380338  0.10705148014801
 6 -7.62763079707971 -1.11663999189919 -0.60228639763976
 6  7.89871165516552  3.81123997899790  0.27253143714371
 6 -7.63378167516752 -2.55292486938694 -0.98265695069507
 6  6.86898686968697  1.53135207620762  0.13271078607861
 6 -6.45610830783078 -0.55460372227223 -0.38840776577658
 6  5.52753346734673  2.00520475847585  0.19580654965497
 6 -5.08617716371637 -1.07079415231523 -0.45500237823782
 6  4.49709849584958  1.12789898389839  0.00311822682268
 6 -3.97676897389739 -0.28284050805081 -0.30345316031603
 6  3.17301479247925  1.56162055305531  0.10287440344034
 6 -2.61352680868087 -0.75576565556556 -0.33552190719072
 6  2.88839040604060  2.93054074607461  0.62797045504550
 6 -2.31545031303130 -2.16232972497250 -0.93299452545255
 6  2.06843593259326  0.62704476847685  0.10393971397140
 6 -1.60988294829483  0.09310719971997 -0.01400535153515
 6  0.65645247424742  0.90633344734473  0.13286461446145
 6 -0.24687455745575 -0.02371997199720 -0.12803377337734
 1  13.16387496749675 -1.02308571867187  1.59313500250025
 1  12.97962146114611 -2.76122933703370  1.67714539853985
 1 -14.56045901890189 -0.79255669756976  1.00767168816882
 1 -14.00724421942194 -0.24901277317732 -0.50428228422842
 1  12.75209621662166 -2.49140844794479 -1.05450600860086
 1 -12.88861929392939  1.00322430453045  1.81852958695870
 1  14.04541912891289  0.17385996389639 -0.57174235523552
 1  13.34048960596060 -0.70454581168117 -1.96633936493649
 1 -13.54962017101710  1.94226928702870 -1.07737048004800
 1 -12.38783475647565  2.86722174227423  0.06617765376538
 1  10.94471716071607 -2.14024245324532  3.13759845584558
 1  9.73120144714471 -1.09335913491349  2.51145790079008
 1  11.19276301830183 -0.54802366946695  2.98941232723272
 1  10.51208747174718 -3.06937171117112 -0.69056573957396
 1  10.43281228412841 -3.55515415841584  0.98596803680368
 1  9.32294961196120 -2.25958726672667  0.40916763776378
 1 -11.81515320132013 -0.27893038693869  2.46153645064506
 1 -10.92311515051505 -1.68388093199320  1.99326311031103
 1 -12.41123201620162 -1.86654407430743  2.81195177517752
 1 -13.45463591259126 -2.81392008790879  0.62550068106811
 1 -11.69716495149515 -3.24784137303730  0.28937183518352
 1 -12.71238909790979 -2.47292648454846 -0.83730647264726
 1  9.08932083508351 -0.27977238823882  0.46066318731873
 1 -10.11776654165417 -1.91964902880288 -0.72707650965097
 1  10.52950424242424  1.43637830783078 -2.08601066006601
 1  12.18404423342334  2.20101104400440 -1.21772738073807
 1  12.41818348834883  1.21516237113711 -2.68896158515852
 1 -11.18954335533553  2.55411097519752 -2.14908562956296
 1 -10.03265924392439  1.02380639973997 -2.15639160616062
 1 -9.69626381038104  2.48862151625163 -1.11874503050305
 1  14.76411553955396 -2.98235356245625  0.03584186418642
 1 -15.51939663266326  1.72568986908691  1.25645674167417
 1  10.13234915391539  2.59041594959496 -0.28238141314131
 1 -8.67043177917792  0.66519112021202 -0.06388701470147
 1  8.78268595559556  4.23309669166917  0.22137797879788
 1  7.26096248324833  4.16931179217922 -0.46785313131313
 1  7.65376463646365  4.00493156115612  1.30661749974997
 1 -8.20186298029803 -3.09725438333833 -0.15871116011601
 1 -8.32686705770577 -2.63121312421242 -1.82097398639864
 1 -6.53945971797180 -2.90239477937794 -1.06615204920492
 1  6.98830468546855  0.38821203620362  0.05653777877788
 1 -6.46597357335734  0.54148164326433 -0.09136426142614
 1  5.48429613461346  3.13453912591259  0.26560306930693
 1 -4.94008447944795 -2.10253793179318 -0.66966311631163
 1  4.63104629762976 -0.07877313131313 -0.29058112611261
 1 -4.12452385638564  0.74876424842484 -0.04328304730473
 1  2.76084171217122  2.75960785078508  1.82519576057606
 1  1.84109237023702  3.35442642464246  0.27722232423242
 1  3.89360474047405  3.73780040504050  0.46989393139314
 1 -2.76491760676068 -2.93035532753275 -0.29231689668967
 1 -2.54762347534754 -2.20897795979598 -1.99131787378738
 1 -1.20455084008401 -2.31625917591759 -0.84366290929093
 1  2.07689905290529 -0.61052433343334  0.07224101210121
 1 -1.87422204520452  1.00480872487249  0.71129722272227
 1  0.28055835483548  1.88471389838984  0.59176118611861
 1  0.25324710971097 -1.02179234323432 -0.59842151615162

