%nproc=4
%Mem=2GB
# td=(NStates=1) CAM-B3LYP/6-31G(d,p) 

TD

0 1
 8  14.73558908390839 -2.30181311441144 -0.02095901890189
 8 -14.79424448844884  1.76919222432243  1.13199273027303
 6  11.13310565656566 -1.46031858395840  1.02624878587859
 6 -12.47701286528653 -1.17865948384839  0.65733937793779
 6  12.64043760976097 -1.88330762686269  1.22871776377638
 6 -13.59260597959796 -0.32625064496450  0.97230004200420
 6  13.34542258125813 -1.99896221832183 -0.20151369636964
 6 -13.51935122812281  1.22346100720072  1.16363761476148
 6  10.96454578157816 -0.28085571257126  0.14289099609961
 6 -11.33833019701970 -0.24466547344734 -0.08319599559956
 6  13.21740223122312 -0.58679716481648 -0.75306806080608
 6 -12.95391782978298  1.74971797889789 -0.19421877487749
 6  11.98404427342734  0.04094447734773 -0.79295193819382
 6 -11.60119071407141  1.00137676677668 -0.51663365936594
 6  10.58931997299730 -1.12714815581558  2.42380576457646
 6  10.39350997099710 -2.70609837783778  0.44043743374337
 6 -11.80750255625562 -1.44648434033403  2.10882701370137
 6 -12.73606010101010 -2.44654587648765 -0.08353709170917
 6  9.71254649564956  0.27499645264526  0.11622558255826
 6 -10.10283585558556 -0.90429317121712 -0.35078636363636
 6  11.82395827582758  1.24162933683368 -1.73698568856886
 6 -10.76238452645264  1.73861333843384 -1.37468435843584
 6  9.45657956295630  1.68315455845585  0.26915355535554
 6 -8.86873827082708 -0.45947789668967 -0.34497959996000
 6  8.18250735573557  2.25615159815982  0.14815559055906
 6 -7.54455248924892 -1.17661598949895 -0.68290445944594
 6  8.09365114911491  3.78876773177318  0.63826801080108
 6 -7.65251354835484 -2.51747132403240 -1.07147583258326
 6  6.87820779177918  1.48424736573657 -0.04854733973397
 6 -6.35448814581458 -0.53229149104910 -0.50885981098110
 6  5.58297901190119  2.22813705170517 -0.07799083008301
 6 -5.09636818281828 -1.01410848374838 -0.61659853785379
 6  4.44794358035804  1.34717091109111 -0.32529461446145
 6 -3.89330062706271 -0.25479770377038 -0.53026584158416
 6  3.11816930793079  1.81945633663366 -0.17913379737974
 6 -2.59280473647365 -0.66851693069307 -0.65576393139314
 6  2.88768033503350  3.13904159615962  0.37104476247625
 6 -2.18864763276328 -2.19667315931593 -1.07363858985899
 6  2.13266235523552  0.81046311031103 -0.31289196919692
 6 -1.53941590159016  0.29997788678868 -0.47855180618062
 6  0.76552338133813  0.94464727872787 -0.13831250325033
 6 -0.11975184518452  0.02362476247625 -0.65693666366637
 1  13.39679825982598 -1.24276768686869  1.72748843784379
 1  12.53904740374037 -2.94208742284229  1.79970765476548
 1 -14.13546651965197 -0.88259570147015  1.78095901690169
 1 -14.27178067306731 -0.43083095499550  0.07479562356236
 1  12.97178818581858 -2.97466677377738 -0.69894045204520
 1 -12.91903233523352  1.30688467056706  1.98753648764876
 1  14.08857344434444 -0.02932035413541 -0.19541472247225
 1  13.79111466846685 -0.46075143224322 -1.71784451545154
 1 -13.65306051505151  1.58768382848285 -1.03294603760376
 1 -12.66082205520552  2.78342336243624  0.06529756575658
 1  10.67068975797580 -1.89619804880488  3.07178187418742
 1  9.57379570657066 -0.90152995199520  2.52440919591959
 1  11.34911865386539 -0.37816668376838  2.85081846784678
 1  10.60079634263426 -2.98179295329533 -0.55330201320132
 1  10.68810781368137 -3.47426606960696  1.00751019101910
 1  9.24045136213621 -2.66565787378738  0.49011573257326
 1 -11.83433511951195 -0.51113360726073  2.78828912591259
 1 -10.88496133513351 -1.88382092599260  2.22162594659466
 1 -12.66873776677668 -1.93327074697470  2.78658923892389
 1 -13.59703015201520 -2.95098379427943  0.40158828982898
 1 -11.91340657565757 -3.04784137303730  0.20631352935294
 1 -12.77193505250525 -2.43131232313231 -1.20109285128513
 1  8.85697760076008 -0.27677208820882  0.17308442944294
 1 -10.21356612161216 -2.06918398229823 -0.46636043804380
 1  10.68079937193719  1.22863753375338 -2.06381844084408
 1  12.15276110511051  2.19686062896290 -1.34907051505150
 1  12.46015768576857  0.96927778267827 -2.59776246524652
 1 -11.35236963796380  2.53532909700970 -1.97778849984998
 1 -10.09359533753375  1.33866788588859 -2.05185115211521
 1 -10.17788197219722  2.48297095119512 -0.85078823482348
 1  14.75066419441944 -3.25911123822382  0.20611889188919
 1 -15.09046373937394  1.75489278937894  2.14325542154215
 1  10.34967088608861  2.53754066206621  0.47668449344934
 1 -8.74323905990599  0.48991359245925 -0.14944557055706
 1  8.96865455245525  4.52659604160416  0.50663650465047
 1  7.58693508050805  4.20697555855585 -0.32718906490649
 1  7.63954321432143  4.10734180218022  1.66193303130313
 1 -8.14852764676468 -3.29142380028003 -0.35458074707471
 1 -8.29344371537154 -2.64780478337834 -2.02889477847785
 1 -6.67008278027803 -2.96411095099510 -1.27918335233523
 1  7.05069092409241  0.44190740574057 -0.37308518351835
 1 -6.34525150115012  0.53519101420142 -0.35163028802880
 1  5.53348105310531  3.14339001100110  0.16622313131313
 1 -5.02372284328433 -2.08064574257426 -0.76489263926393
 1  4.66360955395540  0.28394314031403 -0.54780684868487
 1 -4.09045044904490  0.63815318731873 -0.08441716071607
 1  2.86464209220922  3.09013090309031  1.68523176417642
 1  1.74562282328233  3.42063304530453  0.30928553055306
 1  3.77690307030703  3.90555718071807 -0.27887094509451
 1 -2.67613872887289 -2.92873516551655 -0.50701836683668
 1 -2.67954666766677 -2.23849091109111 -2.09492823482348
 1 -1.15754613961396 -2.07489503950395 -1.12506104910491
 1  2.49939130213021 -0.00600388138814 -0.84644085608561
 1 -1.75766038903890  1.43336158015802 -0.24482838983898
 1  0.45888618761876  1.74718014501450  0.17496950695069
 1  0.21200298529853 -0.93347351135113 -1.08630030403040

