%nproc=4
%Mem=2GB
# td=(NStates=1) CAM-B3LYP/6-31G(d,p) 

TD

0 1
 8  14.81240676567657 -2.05601853495350 -0.33274019701970
 8 -14.65262032603260  2.06272157725773  1.21527105810581
 6  11.30172251825183 -1.36947950005001  1.03841000200020
 6 -12.48246341034103 -1.05517713561356  0.52654629862986
 6  12.85124869086909 -1.65973526962696  1.09625451745175
 6 -13.81142786178618 -0.08877689758976  0.68997180918092
 6  13.48327636663666 -1.74142646474647 -0.34320786578658
 6 -13.47030632363236  1.31191985308531  1.05907715871587
 6  11.02200152715272 -0.29029665666567 -0.02339563256326
 6 -11.39441580558056 -0.23583459035904 -0.26975465146515
 6  13.41484197519752 -0.34404288938894 -0.96471922592259
 6 -12.67727016501650  1.90654366146615 -0.22464181718172
 6  11.96722259125913  0.21816219911991 -0.79648229122912
 6 -11.46726732173217  1.05067169626963 -0.59292128812881
 6  10.88840988198820 -0.94464990599060  2.48017140114011
 6  10.59861048104811 -2.68474624262426  0.51500489048905
 6 -12.02716452245224 -1.58003769566957  1.84884101510151
 6 -13.00706720172017 -2.22222344424442 -0.43463220122012
 6  9.65854109510951  0.24834378737874  0.04673863386339
 6 -10.07821339333933 -0.97251999389939 -0.42150343534353
 6  11.80730661066107  1.22193736763676 -1.95668765876588
 6 -10.59957824582458  1.71385086218622 -1.58143503350335
 6  9.34067797279728  1.60134637763776 -0.03904726472647
 6 -8.87964936193619 -0.42719466836684 -0.33745884788479
 6  8.02076118111811  2.18074405740574  0.14195497049705
 6 -7.67391542554255 -1.19750807870787 -0.57825399439944
 6  8.01325310931093  3.74526338133813  0.32351653565357
 6 -7.72581087808781 -2.64572414931493 -1.04866355135514
 6  6.87588755975598  1.45878481948195 -0.03228571357136
 6 -6.44635733273327 -0.60863912581258 -0.42205113011301
 6  5.58348906290629  1.88283252125213  0.15872284128413
 6 -5.11570011601160 -1.11108818171817 -0.59640651865187
 6  4.48567735373537  1.03888008200820  0.19029694469447
 6 -4.00066136313631 -0.33239546354635 -0.44208702370237
 6  3.14394188518852  1.53226761776178  0.23528764476448
 6 -2.64863031903190 -0.79930000900090 -0.42011036603660
 6  2.80625219221922  2.98362605460546  0.49945760376038
 6 -2.44805357335734 -2.23216670867087 -0.59984121012101
 6  2.09131822082208  0.62597466146615 -0.06628730873087
 6 -1.62713467346735  0.10417830683068 -0.14835878687869
 6  0.71234806380638  0.78161097509751  0.03278460646065
 6 -0.20628049804980 -0.11194879487949 -0.21857282728273
 1  13.40163874387439 -0.99364277437744  1.78006369536954
 1  13.03604710371037 -2.68612182628263  1.51718940294029
 1 -14.55502847584759 -0.45374281618162  1.33832475347535
 1 -14.18038153315332 -0.06036390829083 -0.38463031903190
 1  13.00495150215021 -2.45116442354235 -0.99267982598260
 1 -13.06240667266727  1.48566254835483  2.02541027502750
 1  14.12544713171317  0.22762534043404 -0.37410259125913
 1  13.49371492849285 -0.42812816991699 -2.09190192119212
 1 -13.26643185218522  2.15522058215822 -1.06002874587459
 1 -12.31287726072607  2.98921394149415  0.08566960296030
 1  11.15630831983198 -1.81380980998100  3.19082377837784
 1  9.72709103610361 -0.94607440644064  2.59112586758676
 1  11.43347708970897 -0.02595146224622  2.69490287628763
 1  10.74522078507851 -2.88620339433943 -0.49037572057206
 1  10.76941594449445 -3.69852849584958  1.11186062606261
 1  9.54582189918992 -2.33177448544854  0.55119184018402
 1 -11.63300498649865 -0.72096459035904  2.38424872187219
 1 -11.05564840384038 -2.45723826772677  1.63396718071807
 1 -12.81263215621562 -2.25169258915892  2.35882646264626
 1 -13.90204065306531 -2.54461315721572  0.25982411341134
 1 -12.35302053705371 -3.13781036993699 -0.43877097909791
 1 -13.33547140614061 -1.71164035593559 -1.48950169216922
 1  8.98818072107211 -0.48169258025803  0.48741586258626
 1 -10.04552931793179 -2.05760282418242 -0.64915871787179
 1  10.72417370937094  1.50692536253625 -2.18465052405241
 1  12.33087891689169  2.33353429632963 -1.66902251025102
 1  12.29382105210521  0.77134798969897 -2.85642833183318
 1 -11.15700010101010  2.52016758085809 -2.19604032503250
 1 -9.90804678267827  1.07854187328733 -2.23183915091509
 1 -9.76843102710271  2.33761641574158 -1.13154631063106
 1  14.75124425242524 -2.81617694479448  0.10587886788679
 1 -15.26910160316032  1.49059635973597  1.73876497249725
 1  10.01844776377638  2.36621352935294 -0.29704287928793
 1 -8.57814255025503  0.58827342844284  0.12269164316432
 1  9.07036472347235  4.22028541054105  0.06526236723672
 1  7.38437482448245  4.21315617661766 -0.20259660566057
 1  7.68898815881588  4.02221328932893  1.40946778477848
 1 -8.43020581458146 -3.14379903780378 -0.24271956095610
 1 -8.25192956395639 -2.73413341624162 -2.12720460946095
 1 -6.90773654565457 -3.17428196809681 -1.13815924992499
 1  6.93629948494849  0.45022823782378 -0.37503537853785
 1 -6.35451242724273  0.47772526762676 -0.12828795379538
 1  5.56427413241324  2.91750742274227  0.23493000200020
 1 -5.03542401340134 -2.13088076607661 -0.74683083308331
 1  4.60785397839784 -0.08275352935294  0.04105203720372
 1 -4.14768617261726  0.48255762776278  0.24716599759976
 1  3.62235786378638  3.18294018401840  1.15669891089109
 1  1.81989025002500  3.24068505050505  0.71023562556256
 1  2.86690207020702  3.62815944094410 -0.47108016601660
 1 -3.03054416941694 -2.75977826982698  0.13138547354736
 1 -2.73971268426843 -2.65849291129113 -1.48812755475547
 1 -1.37422780778078 -2.49223677367737 -0.31750029302930
 1  2.45348671167117 -0.22978625962596 -0.30871708370837
 1 -1.66194081708171  1.16355459945995  0.12494858785879
 1  0.56001630063006  1.82096752375238  0.29839184918492
 1  0.00685247024702 -1.01572173617362 -0.51598327232723

