%nproc=4
%Mem=2GB
# td=(NStates=1) CAM-B3LYP/6-31G(d,p) 

TD

0 1
 8  14.40084560956096 -2.58582151525153 -0.43071999499950
 8 -14.79971503550355  1.69573487858786  1.01629116011601
 6  11.15476782278228 -1.46125867796780  1.03258941994199
 6 -12.26276144014401 -1.16191780968097  0.59145278927893
 6  12.53048661466146 -1.98445774187419  1.09442433443344
 6 -13.59502622162216 -0.38783680358036  0.73074588658866
 6  13.09758779777978 -2.01640396249625 -0.34975852085209
 6 -13.52094138713871  1.06941560266027  0.96984823582358
 6  10.87337666466647 -0.39475710271027  0.06363307030703
 6 -11.21391775577558 -0.26965797269727 -0.10819849584959
 6  13.11488197919792 -0.67731621672167 -1.00118287228723
 6 -12.80973341134113  1.79058206530653 -0.27368672167217
 6  11.78302417141714  0.06464684758476 -0.90725336833683
 6 -11.59288988398840  1.00898752785279 -0.61022301830183
 6  10.83000404140414 -0.95410085108511  2.52488587258726
 6  10.07531815181518 -2.65332310031003  0.67841123112311
 6 -11.75562736873687 -1.39995968786879  1.93401953295330
 6 -12.54062055705571 -2.53038426032603 -0.23246198419842
 6  9.60408564956496  0.28026697969797  0.25161912191219
 6 -9.92450802280228 -0.98177091899190 -0.41684296929693
 6  11.59836571657166  1.04724989888989 -1.98028001800180
 6 -10.69438772677268  1.78280775787579 -1.47254414441444
 6  9.33627753275328  1.67527377037704  0.08822546254625
 6 -8.74011540854085 -0.48700064896490 -0.39155425742574
 6  8.16627573257326  2.38592457545755  0.26284705970597
 6 -7.51004903890389 -1.25533386128613 -0.61224739373937
 6  8.12794457845785  3.89923877887789  0.52206639063906
 6 -7.57969626662666 -2.63213279017902 -0.89317800280028
 6  6.96208617961796  1.71512045304530  0.09219673467347
 6 -6.28089078607861 -0.60665892779278 -0.39413833883388
 6  5.66396711071107  2.17531176917692  0.23054002300230
 6 -5.04441298729873 -1.17589466236624 -0.53573045104510
 6  4.48770755675568  1.36803299729973  0.05771368636864
 6 -3.93330462746275 -0.24967719171917 -0.44092690769077
 6  3.14833232423242  1.83525791679168  0.16110022602260
 6 -2.49602505850585 -0.65051513051305 -0.51923027802780
 6  2.97789935693569  3.28333602560256  0.52842050005000
 6 -2.12257102510251 -2.06764025602560 -0.86077730373037
 6  2.09096818581858  0.95440750475048 -0.17742842284228
 6 -1.56186814681468  0.37304519351935 -0.33653760476048
 6  0.78828565756576  1.24054686868687 -0.17162583458346
 6 -0.19707957795780  0.22257465746575 -0.35488645864586
 1  13.32107068706871 -1.25309871997200  1.63432912191219
 1  12.46989048804881 -3.10530374447445  1.32966065006501
 1 -14.00176314931493 -0.92975041694169  1.84258517951795
 1 -14.42508600360036 -0.47056492839284  0.12072021602160
 1  12.48996000300030 -2.69504881198120 -0.90388094609461
 1 -13.05233566556656  1.37758174027403  1.76996473047305
 1  14.06310089708971  0.04021659955996 -0.62368754975498
 1  13.15880143714372 -0.70131548864887 -2.11235396639664
 1 -13.53071828082808  1.74564962506251 -1.08798154115412
 1 -12.49933590659066  2.73751877197720 -0.03104206820682
 1  10.89795248424842 -1.92506093509351  2.94439913591359
 1  9.87734606160616 -0.48853865286529  2.45697245224522
 1  11.60532427442744 -0.15208407550755  2.94938832483248
 1  9.98501476447645 -2.89786456045605 -0.47415409840984
 1  10.41567056995700 -3.50155879887989  1.48852829282928
 1  9.11677899489949 -2.22296360436044  0.72144886588659
 1 -11.65909759575958 -0.42739523342334  2.60116041304130
 1 -10.93997683668367 -2.03114565846585  1.95639942394239
 1 -12.40903179617962 -1.81043846374638  2.50029060906091
 1 -13.25563601260126 -2.99655835173517  0.17886601760176
 1 -11.67598283328333 -3.17087367626763  0.03728662666267
 1 -12.78565642464246 -2.34296348824883 -1.35873861586159
 1  8.86361826482648 -0.40180459145915  0.52152927392739
 1 -9.94794955995600 -2.17239430333033 -0.57132093409341
 1  10.59063035503550  1.33904857485749 -2.19618167716772
 1  12.22032786178618  2.05362630553055 -1.69608521652165
 1  11.84506617661766  0.70805166006601 -2.97963065206521
 1 -11.42185658665866  2.40000556465647 -2.14165488648865
 1 -9.88611458945894  1.24659867896790 -1.89165513251325
 1 -10.10807499149915  2.50727338143814 -0.86700985698570
 1  14.25313444144414 -3.50591591869187 -0.12314403440344
 1 -15.03286797979798  1.50218751885188  1.96709780578058
 1  10.34392031103110  2.07700460846085  0.16171299629963
 1 -8.75868060406041  0.51448604970497  0.04817419141914
 1  9.20216790379038  4.18443182518252  0.12978881988199
 1  7.49746613361336  4.53348820982098 -0.24910125612561
 1  7.77097635763576  3.95342641064106  1.68453529152915
 1 -8.15759855385538 -3.09716437433743 -0.14281957095710
 1 -8.28910328132813 -2.63096309920992 -1.77167905690569
 1 -6.65559133113311 -2.99711425132513 -1.31125655965597
 1  7.00182603760376  0.57749096409641  0.01963408840884
 1 -6.39210618661866  0.67542503760376 -0.36457158215822
 1  5.37546525152515  3.22284795679568  0.38133464246425
 1 -4.87563803480348 -2.20347802580258 -0.91797794779478
 1  4.59914310731073  0.36533127912791 -0.32798486648665
 1 -4.09460086408641  0.63744311631163 -0.15655437443744
 1  3.36751237923792  3.72924481448145  1.48369161016102
 1  2.07239550055005  3.38101908390839  0.24859946194619
 1  3.52251763176318  3.82586921192119 -0.27887094509451
 1 -2.34412552755275 -2.82956524852485  0.10863319831983
 1 -2.64537325032503 -2.39235629762976 -1.78462720472047
 1 -1.08747913291329 -2.40597814781478 -1.11828037103710
 1  2.54573593659366  0.04474119311931 -0.47738395039504
 1 -1.72126674967497  1.37971621562156 -0.10327423442344
 1  0.16225652465247  2.22672809980998  0.16903891389139
 1  0.11419320432043 -0.89149931393139 -0.62057373137314

