%nproc=4
%Mem=2GB
# td=(NStates=1) CAM-B3LYP/6-31G(d,p) 

TD

0 1
 8  14.69965549054906 -2.39890282338234 -0.27568449144915
 8 -14.78490355435543  1.85448075317532  0.66931646264626
 6  11.20565291129113 -1.54034658675868  0.86701286228623
 6 -12.42346751075107 -1.06438805670567  0.53441708570857
 6  12.68220178617862 -2.05647494359436  0.90587547954796
 6 -13.75407212621262 -0.33600162006201  0.52626543854385
 6  13.27544558355836 -1.97549987208721 -0.41286483148315
 6 -13.60193948694869  1.15157381848185  0.71121237223722
 6  11.01682100910091 -0.21935956295630 -0.02610590359036
 6 -11.32646901090109 -0.29030003690369 -0.19376705270527
 6  13.37921841284128 -0.56350483558356 -1.09871262526253
 6 -12.74189662766276  1.76511951905190 -0.42037139013901
 6  11.93502937193719  0.14663504640464 -0.94516715971597
 6 -11.45983657865787  1.04953158225823 -0.62911490749075
 6  10.70760180118012 -1.19360480148015  2.31665504950495
 6  10.28454907490749 -2.67353512151215  0.30496388638864
 6 -11.97061886788679 -1.26984667656766  2.09669580058006
 6 -12.79565606060606 -2.51484270617062 -0.09447818581858
 6  9.68451369236924  0.40374932793279 -0.01550759075908
 6 -10.07267283928393 -0.99761250315032 -0.35864714971497
 6  11.81591747174718  1.31940711461146 -1.87744973497350
 6 -10.59297758575858  1.60797027412741 -1.70053694369437
 6  9.43554745974598  1.76921316431643  0.00031667166717
 6 -8.79855125212521 -0.52064401330133 -0.30484558655866
 6  8.09901900690069  2.26385236823682  0.01010178517852
 6 -7.53003103710371 -1.24492282018202 -0.36513268226823
 6  8.05630741474147  3.72987184218422  0.43130731473147
 6 -7.59312760976098 -2.67308688558856 -0.82630131513151
 6  6.86269624062406  1.57123606460646 -0.03321580658066
 6 -6.33340603760376 -0.62150041194119 -0.22720164516452
 6  5.66275698969897  2.05104934293429  0.27294426342634
 6 -5.05868441444144 -1.01890896379638 -0.42933981198120
 6  4.44393317931793  1.33670986498650  0.10199811481148
 6 -3.91783308030803 -0.27757998199820 -0.22417523252325
 6  3.13104059505951  1.75065945694569  0.36641075707571
 6 -2.55991144714471 -0.62853293229323 -0.28994734973497
 6  2.88617018401840  3.10386807880788  0.76561421942194
 6 -2.28027679567957 -1.93357684968497 -0.86950817681768
 6  2.10514960396040  0.82290435443544  0.17461678167817
 6 -1.58567052705271  0.29797768676868 -0.09519347034703
 6  0.72661949094909  1.11500431443144  0.16918824682468
 6 -0.15608547854785  0.07301970197020 -0.06267723772377
 1  13.41691027102710 -1.31395480558056  1.42476816581658
 1  12.84906840584059 -2.79459267336734  1.56905458945895
 1 -14.64015698869887 -0.64105154705471  1.19353027402740
 1 -14.23333682868287 -0.43712158405841 -0.51327318331833
 1  12.91892289928993 -2.70599990709071 -1.08804936293629
 1 -13.19799023102310  1.49730371247125  1.72322005600560
 1  13.99983457045705  0.01751432933293 -0.59693487448745
 1  13.52682823982398 -0.81722707980798 -2.09480221122112
 1 -13.34533974297430  1.84837989808981 -1.31251399439944
 1 -12.40244621762176  2.80287530763076 -0.20807977197720
 1  10.69749243824383 -2.13156158515852  2.88650334633463
 1  9.51379970697070 -1.00824062306231  2.32747950295030
 1  11.14300804280428 -0.48781764886489  3.02033541954195
 1  10.46721298429843 -2.96388116211621 -0.79628631163116
 1  10.41097009990999 -3.56126476947695  1.13429286928693
 1  9.19337665466547 -2.35580688868887  0.30728744974497
 1 -11.89096078207821 -0.31392388628863  2.51796209320932
 1 -10.90556339533953 -1.77211975587559  1.92251603560356
 1 -12.74344523752375 -1.86229364926493  2.63686426642664
 1 -13.45780622962296 -2.99350804670467  0.56977510851085
 1 -11.87551278627863 -3.15888247714771 -0.21508861086109
 1 -13.30318817781778 -2.53633282518252 -1.18252099409941
 1  9.03645554855486 -0.22853726472647  0.41889901090109
 1 -10.06284104910491 -2.12412947684768 -0.54733853585359
 1  10.68560985298530  1.28280295029503 -2.30402246124613
 1  12.00955678467847  2.25134607750775 -1.42491809980998
 1  12.29072074207421  1.31155201010101 -2.57515020402040
 1 -11.10311471247125  1.79370493459346 -2.68825954695470
 1 -9.97649362736274  0.86928094719472 -2.02398836583658
 1 -9.92016620062006  2.48990164426443 -1.31825498149815
 1  14.66978610661066 -3.13157848494849  0.12059033903390
 1 -15.41253594659466  1.62218951905191  1.26785788178818
 1  10.13719963896390  2.70603751175118 -0.01651482648265
 1 -8.89785452145214  0.59761436253625 -0.01160178617862
 1  9.00777846484648  4.08102148414841  0.29730557155716
 1  7.30996738373837  4.34103896489649 -0.42279862586259
 1  7.76098535853585  3.88918998699870  1.49816665466547
 1 -7.96334912891289 -3.35083974187419 -0.00808609760976
 1 -8.08688305930593 -2.85898590149015 -1.71459334833483
 1 -6.47457322932293 -3.05717025692569 -1.13721915591559
 1  6.93395925092509  0.52923613861386 -0.38965684068407
 1 -6.44808178417842  0.25194268936894  0.22169704470447
 1  5.61848955395540  3.03931960396040  0.63627013601360
 1 -4.93052352335233 -1.98339601760176 -0.91039718971897
 1  4.59879307230723  0.33147789378938 -0.04364643264326
 1 -4.10544194819482  0.90705007700770 -0.14551327032703
 1  3.46542217021702  3.44762665266527  1.65605884688469
 1  1.92098035903590  3.37077805980598  0.96108071007101
 1  3.33787916791679  3.77642426742674 -0.19228228622862
 1 -3.01653276827683 -2.76005829782978 -0.36277394239424
 1 -2.59806851985199 -2.05288235023502 -1.85343408540854
 1 -1.26475686068607 -2.36657420742074 -0.61723026602660
 1  2.35327669066907 -0.25140842184218 -0.15617182918292
 1 -2.03113773677368  1.32143038703870  0.32556864986499
 1  0.20720101910191  2.02441786878688  0.30955296529653
 1  0.21788357335734 -0.80700086408641 -0.37039871387139

