%nproc=4
%Mem=2GB
# td=(NStates=1) CAM-B3LYP/6-31G(d,p) 

TD

0 1
 8  14.68458398339834 -2.19768270137014 -0.18218514151415
 8 -14.81197626162616  1.82555786088609  1.22330186118612
 6  11.13250559655966 -1.50126267836784  1.09990615161516
 6 -12.33581874587459 -0.99574119201920  0.80312395639564
 6  12.60294386038604 -1.92256155225523  1.03707859985999
 6 -13.75591231023102 -0.35274329422942  0.91331414341434
 6  13.27108514751475 -1.89263158525853 -0.27442098709871
 6 -13.51372066506651  1.22099076017602  1.03244449544954
 6  10.92020134713471 -0.28108573557356  0.12748945594559
 6 -11.29953631763176 -0.16584759165917 -0.10747842384238
 6  13.25856634763476 -0.44890337543754 -0.84949770377038
 6 -12.80208264626463  1.80603361046105 -0.20809016201620
 6  11.97234310331033  0.14224460736074 -0.76086872987299
 6 -11.54495509050905  1.03968059715972 -0.59935193119312
 6  10.75518655965597 -1.13563900490049  2.42899628362836
 6  10.35971659165917 -2.69163693169317  0.62752614261426
 6 -11.66789859585958 -1.27912760466047  2.15272140314031
 6 -12.60095659065906 -2.37354857675768  0.27901916391639
 6  9.65158039903990  0.28709766276628  0.16424038403840
 6 -10.03199877187719 -0.92935567746775 -0.45945723072307
 6  11.69145502550255  1.30277545144514 -1.76628861886189
 6 -10.66183447144714  1.81630110721072 -1.62183907390739
 6  9.35693959895990  1.63217946094609  0.15444208420842
 6 -8.81075247224723 -0.50029197809781 -0.47617271927193
 6  8.09191829682968  2.30078606160616  0.21403217821782
 6 -7.56284431843184 -1.21356968486849 -0.76837300630063
 6  7.95659744374437  3.69657851285129  0.65515969997000
 6 -7.72413071007101 -2.64744432133213 -1.12172085708571
 6  6.91607157815782  1.56089503050305 -0.00552303730373
 6 -6.38507120412041 -0.65515377727773 -0.48205713071307
 6  5.61699241324132  1.99108334633463  0.20487745674567
 6 -5.05467401340134 -1.09043611651165 -0.71950882888289
 6  4.47770655665567  1.25533172717272 -0.19976206120612
 6 -3.92902419941994 -0.34947717171717 -0.39354216921692
 6  3.19432692369237  1.70711510251025 -0.08080396439644
 6 -2.58526398239824 -0.78273835283528 -0.64066242124212
 6  2.88277984498450  3.21463915591559  0.31282894089409
 6 -2.25611437943794 -2.17328082008201 -1.25474670067007
 6  2.18392748174817  0.77965002900290 -0.29222990299030
 6 -1.63928588858886  0.19062695169517 -0.32237618861886
 6  0.72242907190719  1.01021383538354 -0.22863153515352
 6 -0.22764263426343  0.03222562256226 -0.44834580458046
 1  13.36465504550455 -1.24113752385239  1.65747143614361
 1  12.85344884388439 -2.90872408650865  1.53980166416642
 1 -14.19544251725173 -0.63828127002700  1.78335925692569
 1 -14.41491498649865 -0.60267813971397  0.05433357735774
 1  12.72115312231223 -2.75666497359736 -0.82939349734973
 1 -12.87328776077608  1.27062104420442  1.88059579357936
 1  14.09687427442744  0.04459703760376 -0.16696187718772
 1  13.78983454045404 -0.39171452855286 -1.83841657265727
 1 -13.59079428842884  1.82169722982298 -0.97740048304830
 1 -12.59557553055305  2.96871189128913 -0.05244420842084
 1  10.72628531753175 -2.01966039503950  3.27546224222422
 1  9.68183651065107 -1.01282108110811  2.45714246924693
 1  11.25531927392739 -0.06570543764376  2.92279566556656
 1  10.61330759375938 -3.16195096909691 -0.32356903990399
 1  10.60826982988299 -3.58765740874087  1.36248568856886
 1  9.29963728072807 -2.36479778777878  0.53151987298730
 1 -11.32019370537054 -0.43335582948295  2.61283158015802
 1 -10.89218205720572 -1.93849639353935  2.03494727872787
 1 -12.13281417441744 -2.02187960786079  2.89078965896590
 1 -13.48473892289229 -2.81755045094509  0.73753188418842
 1 -11.98566380138014 -3.19742633153315  0.32429532753275
 1 -12.66196405540554 -2.27434662656266 -0.77228997099710
 1  8.81660356335634 -0.25810022102210  0.35148226922692
 1 -10.18474323932393 -1.99373643754375 -0.56177997999800
 1  10.65145643764376  1.29456412641264 -2.07322938193819
 1  11.90450627962796  2.26689763266327 -1.36461206920692
 1  12.28117978797880  1.10061091599160 -2.68176086508651
 1 -11.31927632863286  2.32464802890289 -2.46359708070807
 1 -10.10696667466747  1.12048606770677 -2.01877784478448
 1 -10.13133731773177  2.65578823292329 -1.22876603260326
 1  15.02411153915392 -3.07965329242924  0.44637291729173
 1 -15.00467516051605  1.43771107120712  1.98611970797080
 1  10.41963788278828  2.24406131413141  0.34034085908591
 1 -8.68750348634864  0.57560216131613 -0.11941256725673
 1  9.02567025402540  4.26288967096710  0.37323316431643
 1  7.04442082908291  4.12418727972797  0.20215386938694
 1  7.81019027902790  3.90847191519152  1.84390122812281
 1 -8.20999379337934 -3.26744140204020 -0.30045533453345
 1 -8.26868123912391 -2.85837584048405 -2.00156204520452
 1 -6.93816958895890 -3.06574111401140 -1.30244567856786
 1  7.12563841884188  0.43366658165817 -0.21917979297930
 1 -6.38064504050405  0.55631312641264 -0.37594271927193
 1  5.45280298529853  2.94637030903090  0.68669517851785
 1 -4.94186465746575 -2.15659333733373 -1.20213636363636
 1  4.63350654365437  0.27373211921192 -0.84243631163116
 1 -4.13421482548255  0.65102447444745 -0.13543226222622
 1  3.08542417041704  3.31647353735374  1.28712195319532
 1  1.95019328032803  3.61620260226023 -0.08137353535353
 1  3.78250363036304  3.81571819681968 -0.14609766776678
 1 -2.58411952695270 -2.85182747474747 -0.70448811381138
 1 -2.90762947594759 -2.23047010901090 -2.12055079707971
 1 -1.24158454345435 -2.33940149014901 -1.66043458645865
 1  2.27028839183918 -0.38859214021402 -0.68584479647965
 1 -2.16000062306231  1.11747999199920 -0.15701960896090
 1  0.24464476347635  2.01701712871287 -0.00649863986399
 1  0.00777256225622 -0.93998416241624 -0.91004267826783

