%nproc=4
%Mem=2GB
# td=(NStates=1) CAM-B3LYP/6-31G(d,p) 

TD

0 1
 8  14.76120164516452 -2.33155608870887 -0.06377330033003
 8 -14.81915697969797  1.80754605970597  1.19383891489149
 6  11.30506285228523 -1.45969852195220  1.06252241324132
 6 -12.37326249024902 -1.10863248114811  0.63435707970797
 6  12.77365093109311 -1.77569686578658  1.15339023102310
 6 -13.57447416641664 -0.38971699159916  0.77126993899390
 6  13.45965400440044 -1.96470879297930 -0.23393693869387
 6 -13.53670296329633  1.12028068916892  0.97603885488549
 6  10.98087741474147 -0.29994762176218  0.00033674067407
 6 -11.32626899089909 -0.29913091999200 -0.18924660066007
 6  13.37001749274927 -0.58791727682768 -1.00070282428243
 6 -12.83749618761876  1.80941394849485 -0.01737109010901
 6  11.95905177417742  0.08881926482648 -0.82058470147015
 6 -11.64517511251125  0.99990661976198 -0.51215321132113
 6  10.72050309130913 -1.03673911491149  2.50137352135214
 6  10.45977659765977 -2.65461322932293  0.59460285028503
 6 -11.74825663166317 -1.37524721662166  2.06568269926993
 6 -12.54213070807081 -2.53135435733573  0.02484374637464
 6  9.70995623662366  0.30244919791979  0.15895985598560
 6 -10.13000857285729 -1.01264400630063 -0.44412569756976
 6  11.80692657265727  1.19614478837884 -1.91832382238224
 6 -10.65478376637664  1.86283576067607 -1.44890178017802
 6  9.40049395439544  1.68321456445645  0.09310595059506
 6 -8.86941833883388 -0.50140208910891 -0.36898200020002
 6  8.07465657065707  2.11343732673267  0.28050882588259
 6 -7.62689072307231 -1.12920124802480 -0.68452462146215
 6  7.98004978897890  3.67405626062606  0.45869005300530
 6 -7.72562085908591 -2.55290486738674 -1.07799648464846
 6  6.87247721872187  1.44424336533653  0.16220373537354
 6 -6.50703340034003 -0.44081234313431 -0.51123004800480
 6  5.61117183118312  1.92636687468747  0.18483545254525
 6 -5.15136368236824 -0.82961003390339 -0.71113799179918
 6  4.42145093109311  1.19551574557456 -0.11737382238224
 6 -4.01368266526653 -0.22968519251925 -0.54195701070107
 6  3.07975546654665  1.67674206520652 -0.04724060806081
 6 -2.61226668266827 -0.71499157815782 -0.58847720272027
 6  3.00808237523752  3.11458915091509  0.44612227022702
 6 -2.27236600460046 -2.11799529152915 -1.04783600960096
 6  2.05650473947395  0.79902196619662 -0.26391707170717
 6 -1.67724968496850  0.31227911691169 -0.32800675167517
 6  0.65365219421942  1.11034384838484 -0.23595226722672
 6 -0.28505837583758  0.15894829482948 -0.49431040104010
 1  13.44639321932193 -1.03838724882488  1.77554324332433
 1  12.94013751275128 -2.79456267036704  1.74229191319132
 1 -14.21363433643364 -1.03480092199220  1.49096001700170
 1 -14.13243673867387 -0.49493736563656 -0.27308916491649
 1  12.87955896289629 -2.78717802490249 -0.79646020402040
 1 -13.10889132113211  1.33465744784478  1.93344107810781
 1  13.93052763976398  0.07440001790179 -0.40766594759476
 1  13.56682223922392 -0.52202755985598 -2.14942767376738
 1 -13.35087029602960  2.25278033813381 -0.98413115611561
 1 -12.36736270927093  2.81848686878688  0.39506054205421
 1  11.07122981198120 -1.51989041804180  3.35087978397840
 1  9.72716104310431 -1.13338313731373  2.42002875787579
 1  11.06450019201920  0.11991312421242  2.81517490349035
 1  10.57417368036804 -3.08025279927993 -0.54592127512751
 1  10.66573557645764 -3.46903554655466  1.27894733473347
 1  9.44781209820982 -2.49130043804380  0.65427214821482
 1 -11.50798248424842 -0.54777727162716  2.66858715571557
 1 -10.85637847684769 -1.77336988088809  1.92976676067607
 1 -12.63157405040504 -2.09079649954996  2.36743732373237
 1 -13.22496294529453 -2.97433612951295  0.80629876087609
 1 -11.72075731073107 -3.41321791069107  0.00744364236424
 1 -13.04476233523352 -2.41390058195820 -0.99137187918792
 1  8.89869177217722 -0.35693010401040  0.40028714971497
 1 -10.18389315431543 -2.06721378527853 -0.68422222422242
 1  10.68262955495550  1.42666733673367 -2.13136519551955
 1  12.32578840784078  2.23355429832983 -1.65023063106311
 1  12.11582325232523  0.91800265516552 -2.91933462246225
 1 -11.29842424342434  2.56808237233723 -2.03395411641164
 1 -10.19077505550555  1.13542756185619 -2.30363633063306
 1 -9.90746493049305  2.42890554465447 -0.89471262726273
 1  14.63190231823182 -2.98732405950595  0.89532781278128
 1 -15.15743043604360  1.63985128522852  2.23917501350135
 1  10.22575849484948  2.64171107910791  0.06351317631763
 1 -8.67638237423742  0.53076767786779  0.04860423442344
 1  8.92070975797580  4.31065444744474  0.55896173717372
 1  7.62613900090009  4.16405126612661 -0.58285463146315
 1  7.25816507650765  4.09732080008001  1.28669550755076
 1 -8.61022381638164 -3.23889854775478 -0.52065735473547
 1 -8.02964733573357 -2.48679868276828 -2.13057494649465
 1 -6.75957172917292 -3.06363090299030 -0.97866330033003
 1  6.79027488248825  0.22966618161816  0.01857398239824
 1 -6.52342931893189  0.66375387048705 -0.34923004800480
 1  5.47303500850085  3.03232890489049  0.25614212321232
 1 -5.25511598259826 -1.90346802480248 -0.88311446144614
 1  4.82155534853485  0.19778452445245 -0.59275134313431
 1 -3.93896530053005  0.86678605060506 -0.31374009300930
 1  3.00530615861586  3.36322821282128  1.56369961096110
 1  2.00265852685269  3.63546452845285  0.15228983098310
 1  3.93530891089109  3.75682230723072 -0.05633869186919
 1 -2.56825794079408 -2.85926821882188 -0.33328099309931
 1 -2.95378409140914 -2.32553961596160 -1.93543228522852
 1 -1.20307069206921 -2.32291984198420 -1.18681722472247
 1  2.40732209520952 -0.33190647164716 -0.56205241724172
 1 -1.87356197919792  1.33369161316132  0.01904799779978
 1  0.22162246124613  2.30376580358036  0.19878188818882
 1  0.17036882188219 -0.76239640364036 -0.76933860786079

