%nproc=4
%Mem=2GB
# td=(NStates=1) CAM-B3LYP/6-31G(d,p) 

TD

0 1
 8  14.69008453345335 -2.22988592169217 -0.32855977897790
 8 -14.58906397039704  2.13434873997400  1.05996552755276
 6  11.10533287928793 -1.43989654175418  0.93941010201020
 6 -12.28529369336934 -1.01125274317432  0.64049769376938
 6  12.63892745874587 -1.78555785188519  1.00351524352435
 6 -13.64599131813181 -0.17194521442144  0.74383719571957
 6  13.26001404040404 -1.90125244734473 -0.38405195019502
 6 -13.42245153815382  1.38650731183118  0.90975222622262
 6  10.89207853485349 -0.18062568956896 -0.03648694169417
 6 -11.23613997799780 -0.20993200010001 -0.22832050805080
 6  13.18191868286829 -0.60455894099410 -1.09633238723872
 6 -12.57964040204020  1.83653666076608 -0.30636998999900
 6  11.88431430043004  0.10943132603260 -0.97750039303930
 6 -11.48680927592759  1.00099672877288 -0.71329332533253
 6  10.87906894789479 -1.06280172117212  2.48021140514051
 6  10.23592421242124 -2.62541030903090  0.46756014601460
 6 -11.69155096109611 -1.12725241714171  2.20227635863586
 6 -12.64689118411841 -2.41712293419342  0.07453871587159
 6  9.71443668466847  0.43237219021902  0.20110407040704
 6 -10.00924649664966 -1.00796353825383 -0.36588787378738
 6  11.69740562056206  1.36862203610361 -1.87970996099610
 6 -10.59830811881188  1.74310378747875 -1.65374226422642
 6  9.30590449544955  1.72508875187519  0.11614825482548
 6 -8.74650604760476 -0.53043499239924 -0.34339944194419
 6  8.02158126312631  2.31782776577658  0.36579735473547
 6 -7.55032306630663 -1.31545987388739 -0.67343351235124
 6  7.88736052005201  3.76196505150515  0.75629981398140
 6 -7.72588088508851 -2.75496507340734 -1.07801648664867
 6  6.85579555055506  1.57856679767977  0.32163967896790
 6 -6.34853755075508 -0.67004526642664 -0.52453137813781
 6  5.44642535653565  2.09350358835884  0.35854282328233
 6 -5.06699524552455 -1.16229330223022 -0.61574845284528
 6  4.41377016301630  1.32312850685069  0.06919483448345
 6 -3.89040033703370 -0.56759898389839 -0.44825764076408
 6  3.01739923092309  1.72840723172317  0.13116723272327
 6 -2.50658611461146 -0.87505758475848 -0.52151050605060
 6  2.75317688468847  3.09458715071507  0.46934459245925
 6 -2.36918568656866 -2.39916340834083 -0.88480970697070
 6  2.07106619561956  0.66041810581058 -0.06014669466947
 6 -1.60218217821782  0.07337522652265 -0.40680463146315
 6  0.69299612861286  0.90734354835484 -0.15845451745175
 6 -0.23732360236024 -0.13931153115312 -0.52472344234423
 1  13.13604218421842 -1.06231964206421  1.69103479247925
 1  12.70357385638564 -3.01553476757676  1.59990767476748
 1 -14.07693066606661 -0.46696413831383  1.65106602760276
 1 -14.29075257025703 -0.37581545344534 -0.10384224022402
 1  12.76791779877988 -2.57721702880288 -0.80600115811581
 1 -12.80717114911491  1.59654363646365  1.82796053005301
 1  13.94594918191819 -0.00703812591259 -0.71089627062706
 1  13.42157771477148 -0.68032338943894 -2.01405413641364
 1 -13.17779298829883  2.22733779387939 -1.06379912291229
 1 -12.10841681468147  2.73226824692469 -0.06404536853685
 1  11.33951664066407 -1.82131056005601  3.09954465046505
 1  9.68523685068507 -0.97944774377438  2.77881463646365
 1  11.40162390439044 -0.13495236233623  2.65499888588859
 1  10.41306756975698 -2.88802357635763 -0.62862954595459
 1  10.28908791169117 -3.63313195619562  0.99223866386639
 1  9.13988130513051 -2.50523183118312  0.42059878087809
 1 -11.49814150015001 -0.26746924082408  2.65494579157916
 1 -10.70789362836284 -1.76676922082208  2.08207199119912
 1 -12.31394228722872 -1.83616103600360  2.73131371137114
 1 -13.46320676967697 -2.85219391529153  0.47403553455346
 1 -11.82644787978798 -3.19216580548055  0.40608350635063
 1 -12.59561742074207 -2.32383157505751 -0.82201494349435
 1  8.88599050205021 -0.18735314631463  0.82244936593659
 1 -9.98500326532653 -2.03896095999600 -0.25136893889389
 1  10.50505179717972  1.57395206520652 -2.12580463946395
 1  12.29202503150315  2.19846078897890 -1.37467307530753
 1  12.13684535453545  1.12710356525653 -2.81828451745174
 1 -11.12281668266827  2.36697226132613 -2.38493921492149
 1 -10.07706368436844  1.02796681578158 -2.33944991199120
 1 -9.81074525852585  2.44836749084908 -1.16839999599960
 1  14.80156928492849 -3.14314964206421 -0.02711443144314
 1 -14.93298799179918  1.68819611971197  1.97933902990299
 1  10.27164308330833  2.30178708670867 -0.03619679467947
 1 -8.55287002300230  0.39264386548655 -0.02299292529253
 1  8.78608629562956  4.15275865786579  0.91569741074107
 1  7.49267565456546  4.33477833883388  0.02662631663166
 1  7.42621188118812  4.10503157115712  1.68900573857386
 1 -7.97036983098310 -3.38382304020402 -0.18036332533253
 1 -8.34600897189719 -2.88655865876588 -1.91417330633063
 1 -6.51171694369437 -3.13044758465847 -1.50279571357136
 1  6.82055791079108  0.51888510351035 -0.20183805880588
 1 -6.42639961596160  0.32336983208321 -0.35408053305331
 1  5.46221392639264  3.14388006000600  0.70864737373737
 1 -5.05280575157516 -2.37930560856086 -0.74027017701770
 1  4.52761595459546  0.22008675467547  0.01017894989499
 1 -4.19184058805881  0.51459083108311 -0.45539425842584
 1  2.84328995699570  3.06389827982798  1.63939718071807
 1  1.66562482348235  3.22667364936494  0.23964856685669
 1  3.50246562656266  3.80325695069507 -0.04192725072507
 1 -2.80692180718072 -2.98624091609161  0.00996333133313
 1 -2.64161287428743 -2.68959602160216 -1.91663040504050
 1 -1.40552093709371 -2.53171072107211 -0.86988553155316
 1  2.42927429042904 -0.38386166716672 -0.37318353035304
 1 -1.96409103210321  1.13424166816682 -0.15083899089909
 1  0.34060435943594  1.96950237723772 -0.10279826982698
 1  0.12574435943594 -1.09138930293029 -0.65897757175718

