%nproc=4
%Mem=2GB
# td=(NStates=1) CAM-B3LYP/6-31G(d,p) 

TD

0 1
 8  14.75661118611861 -2.06130906400640 -0.19718664166417
 8 -14.73381844584458  1.93333863896390  0.92273180418042
 6  11.11607395339534 -1.48781133323332  0.87698385938594
 6 -12.32025718971897 -1.00277189508951  0.66621026502650
 6  12.63960752675268 -1.77555685178518  1.08246313831383
 6 -13.70944766376638 -0.17978599849985  0.67958077007701
 6  13.31312935193519 -1.85116743884388 -0.34398794379438
 6 -13.48374766776678  1.27919658075808  0.89642089308931
 6  10.84477380438044 -0.30257788478848 -0.03510680368037
 6 -11.20684704870487 -0.19727073397340 -0.18000567656766
 6  13.16952744374437 -0.50660914601460 -0.91545429942994
 6 -12.71660409840984  1.80041304840484 -0.31055040804080
 6  11.90455632463246  0.08093847674767 -0.89430207320732
 6 -11.45397599259926  1.07742437153715 -0.58452044804480
 6  10.55737677867787 -1.13287872887289  2.31452483648365
 6  10.30774139413941 -2.68198596659666  0.41559494949495
 6 -11.73400520652065 -1.19928962086209  2.10119625062506
 6 -12.67033352835283 -2.37148837073707  0.03195445744574
 6  9.54284952595259  0.34144309730973  0.03435739573957
 6 -10.05722129412941 -0.94857759965997 -0.45871715671567
 6  11.77298317831783  1.20104527842784 -1.83174516451645
 6 -10.39655794379438  1.79373885098510 -1.47892478247825
 6  9.30365427042704  1.68058430143014  0.18206484648465
 6 -8.77383878087809 -0.57054900380038 -0.26843194519452
 6  8.02317142214221  2.33932991599160  0.15749652465247
 6 -7.59613764776478 -1.29954828272827 -0.58451462046205
 6  8.00370215421542  3.75883473847385  0.58552273627363
 6 -7.55905420242024 -2.82057163406341 -1.04743342834283
 6  6.86143611461146  1.56975591659166 -0.00628311331133
 6 -6.40676337333733 -0.64790305220522 -0.34212313731373
 6  5.56613732773277  2.03903814181418  0.20522749174917
 6 -5.05651419741974 -1.14705177807781 -0.58016489448945
 6  4.43945273127313  1.27719391339134 -0.02957504250425
 6 -3.97596889388939 -0.37649987398740 -0.25640845584558
 6  3.09357684868487  1.61537592859286  0.17071118711871
 6 -2.60102555855586 -0.80044012301230 -0.57391574657466
 6  2.86659822682268  3.08124581658166  0.58552621062106
 6 -2.33261202920292 -2.19038253025303 -1.06290751675168
 6  2.14620370937094  0.70908297229723 -0.05434611461146
 6 -1.58965092509251  0.13226111511151 -0.31697564856486
 6  0.73433026202620  0.96519933393339 -0.07448612061206
 6 -0.18238810881088 -0.15092269226923 -0.22330330033003
 1  13.09553813381338 -1.09498290839084  1.69087477647765
 1  12.64473797279728 -2.81197441154115  1.55328301230123
 1 -14.27484045704571 -0.45652309420942  1.54158507950795
 1 -14.24818831383138 -0.27024489638964 -0.31491334733473
 1  12.71177218421842 -2.71601090819082 -0.83998455645565
 1 -12.92008244024402  1.50386436853685  1.69500723472347
 1  13.93122770977098  0.09684226212621 -0.56713189418942
 1  13.60235579257926 -0.37761311841184 -2.00653338433843
 1 -13.17302251125112  1.74286934703470 -1.25960870387039
 1 -12.51664763776378  2.80637565766577 -0.02850181418142
 1  10.54517720672067 -1.91798022702270  2.96398109410941
 1  9.58678700570057 -0.77831763076308  2.29743649864986
 1  11.22683642564256 -0.35788465556556  2.73143652965297
 1  10.59803606660666 -3.08110288428843 -0.48992567556756
 1  10.61003000590059 -3.52133077607761  1.10439987998800
 1  9.31768908590859 -2.54317562556256  0.46408312931293
 1 -11.58812049804980 -0.29488198209821  2.69406970397040
 1 -10.84660749974998 -1.75750829472947  1.99538332233223
 1 -12.31366225922592 -1.74802222212221  2.81102168216822
 1 -13.59306975597560 -2.70064876077608  0.56584471547155
 1 -11.74550978597860 -3.03915050395039  0.15429832783278
 1 -12.76698455745574 -2.27268646054606 -0.98966170817082
 1  8.63030493349335 -0.38669308030803  0.32076919791979
 1 -10.30041480648065 -1.75552261616162 -0.95080888288829
 1  10.77149844184418  1.46078074807481 -1.83904596359636
 1  12.27483331233123  2.24500544344434 -1.64895050305030
 1  12.25150682068207  0.96250710561056 -2.86941963096310
 1 -10.75371977297730  2.42788835293529 -2.29515023602360
 1 -9.67779375737574  1.14409842894289 -1.86498246524652
 1 -9.80035421942194  2.48683133723372 -1.05082823882388
 1  14.89843897189719 -2.87656298339834  0.30205848584859
 1 -15.31033572657266  1.75727302740274  1.69428052405241
 1  10.14462038103811  2.27774468246825  0.09823664866487
 1 -8.69917465346535  0.41902650375037  0.13224259825983
 1  8.93872155915592  4.47766114811481  0.52138797979798
 1  7.60572695969597  4.59386424742474 -0.07067341334133
 1  7.82017127712771  3.94520558855886  1.67624446244624
 1 -8.13727652165216 -3.34708936683668 -0.34229951895190
 1 -8.24738910991099 -2.97202720562056 -2.00704259325933
 1 -6.52372814481448 -3.26269080898090 -1.00280571457146
 1  7.12839869486949  0.69255247024702 -0.46543441844184
 1 -6.52081905790579  0.42026952205220 -0.24330945594559
 1  5.55251295629563  2.94288996099610  0.67940444944494
 1 -5.15080555155516 -2.22124980298030 -0.96741289128913
 1  4.55127832083208  0.07857260326033 -0.52294436243624
 1 -4.02253365736574  0.43917328932893  0.07646892789279
 1  2.97186281428143  3.20732262226223  1.63719696069607
 1  1.84221248224823  3.52815379737974  0.21031563356336
 1  3.66680206020602  3.63580020502050  0.09777671967197
 1 -2.93641475647565 -2.91500379237924 -0.57326499149915
 1 -2.65527424042404 -2.08704576657666 -2.06985572757276
 1 -1.24520490549055 -2.61305885588559 -0.98702724572457
 1  2.51753311631163 -0.31987526852685 -0.37171338333833
 1 -1.96147077007701  1.23093133713371  0.01424751775178
 1  0.71532183118312  2.01085651265127  0.30189219921992
 1  0.14703648864886 -1.30654081808181 -0.07472914691469

