%nproc=4
%Mem=2GB
# td=(NStates=1) CAM-B3LYP/6-31G(d,p) 

TD

0 1
 8  14.60620614561456 -2.39675260836084 -0.24367129012901
 8 -14.65715077907791  1.77885319041904  1.13525305630563
 6  11.18282062806280 -1.48904145624562  1.05587174817482
 6 -12.32707787178718 -1.06115773367337  0.70245388938894
 6  12.71581514751475 -1.82153144924492  1.07733262526253
 6 -13.65170188918892 -0.33962198209821  0.79923273527353
 6  13.30834887388739 -1.99139146124612 -0.35491903690369
 6 -13.44412370537054  1.22033069416942  1.00722197319732
 6  10.95883521052105 -0.29612723972397  0.17901460846085
 6 -11.30864722872287 -0.30346135303530 -0.11588926492649
 6  13.18790928192819 -0.67702618771877 -1.00052280628063
 6 -12.77960039803980  1.71951495859586 -0.27981733473347
 6  11.91753762276228  0.03620400330033 -0.80305294829483
 6 -11.54420501550155  0.94880150925093 -0.65626762276228
 6  10.83321436243624 -1.11008644964496  2.45059844384438
 6  10.32908352835284 -2.68341610961096  0.51257464746475
 6 -11.63243504950495 -1.18297798969897  2.09039517051705
 6 -12.66064255925592 -2.45494671657166  0.18229949194920
 6  9.64129937093709  0.36300525352535  0.28038199819982
 6 -10.07421299329933 -1.04969771167117 -0.33693497849785
 6  11.64553043304331  1.13295846974697 -1.82708469846985
 6 -10.57819610761076  1.63236271337134 -1.61897878787879
 6  9.36133003800380  1.68701494449445  0.12308894889489
 6 -8.75441683868387 -0.42747469636964 -0.37035213721372
 6  8.09584868986899  2.32701868486849  0.23655443044304
 6 -7.47870590459046 -1.18415674357436 -0.68108427742774
 6  8.04174595859586  3.72872172717272  0.54689887388739
 6 -7.74060235723572 -2.59549912681268 -1.22347103210321
 6  6.82909288028803  1.60830977197720 -0.00404288928893
 6 -6.32635533253325 -0.48747700960096 -0.46621554655466
 6  5.62513322732273  2.14771900990099  0.14835180418042
 6 -5.06442498849885 -1.11428850175018 -0.62653953195320
 6  4.49079786578658  1.36453264726473  0.10134804980498
 6 -4.05223652065207 -0.23885610961096 -0.50751356635664
 6  3.05657314831483  1.82669706070607  0.12920703670367
 6 -2.64446990299030 -0.70292037103710 -0.71116947194719
 6  2.70470203720372  3.18752644464446  0.48785644364436
 6 -2.31357012501250 -2.10981447344734 -1.16626785278528
 6  2.12703179217922  0.84284634863486 -0.18312899289929
 6 -1.66826878687869  0.24765265426543 -0.32967691869187
 6  0.72915974497450  1.08620143414341 -0.03480215221522
 6 -0.23964383438344  0.02628502850285 -0.46043701370137
 1  13.22379095909591 -0.82627603770377  1.61522721172117
 1  12.98572207120712 -2.80724393849385  1.47552523652365
 1 -14.10125309830983 -0.89195663756376  1.86895781678168
 1 -14.33694718971897 -0.70916878877888 -0.00736259225923
 1  12.55620662766277 -2.63136244334433 -1.04385494349435
 1 -12.84044447644764  1.36969095119512  1.82273000700070
 1  14.17769235623562 -0.17413483558356 -0.52757793879388
 1  13.64966052305231 -0.73527888498850 -2.10788351935193
 1 -13.44291950095009  1.83905896599660 -1.15499824282428
 1 -12.31473744674467  2.73313833393339  0.05964700070007
 1  11.12531522052205 -1.79431786078608  3.49447414341434
 1  9.78477680468047 -0.90797059605961  2.70474722972297
 1  11.38604234623462 -0.18098696579658  2.75798918491849
 1  10.66894315731573 -2.89674444844484 -0.39921660466047
 1  10.10509951285128 -3.58234687768777  1.07196663666367
 1  9.31653897089709 -2.47708901690169  0.13237995899590
 1 -11.62968465446545 -0.27125961986199  2.35646594359436
 1 -10.72815565456546 -1.65250779467947  2.10250403440344
 1 -12.32166305930593 -1.54739215911591  2.73280386038604
 1 -13.39333978297830 -2.81495019091909  0.85987411841184
 1 -11.91763699869987 -3.04773136203620  0.29504240224022
 1 -13.26469432843284 -2.44698389028903 -0.84058680068007
 1  8.90755265826583 -0.24848925992599  0.73457057805781
 1 -9.97321208620862 -2.16285334923492 -0.59433323532353
 1  10.60037132913291  0.97807247724772 -2.37645970497050
 1  11.58859468846885  2.06060700360036 -1.23648925692569
 1  12.51352302230223  1.18734958985899 -2.69924261326133
 1 -11.23699810081008  2.14247981208121 -2.30808152915291
 1 -9.84468044604460  0.96119013811381 -2.18273424042404
 1 -9.92793697769777  2.27604025812581 -1.09773292929293
 1  14.60433956195619 -3.29613494059406  0.28060634063406
 1 -15.32247694069407  1.56408370847085  1.85737683368337
 1  10.05469138813882  2.49093600160016 -0.09094226922692
 1 -8.45539027502750  0.57443204430443 -0.27211783778378
 1  9.14390207720772  4.18016139813981  0.53265910691069
 1  7.40682706970697  4.35910077107711 -0.20066641264126
 1  7.77222648264827  3.98490955895590  1.65880271827183
 1 -7.67822061606161 -3.42208686658666 -0.25924121312131
 1 -8.60682505350535 -2.78031803470347 -1.87373926292629
 1 -6.71524729672967 -2.89003354325433 -1.91917735173517
 1  6.95327118211821  0.57415063006301 -0.17654552955296
 1 -6.37530450645064  0.64312180728073  0.00468534353435
 1  5.38402610761076  3.30110578257826  0.36945345434543
 1 -5.12566303730373 -1.98582626062606 -1.01548769876988
 1  4.73279647264726  0.25461020702070 -0.12032410041004
 1 -4.12369377337734  0.75490486248625 -0.34957367636764
 1  2.56145177317732  3.46045793579358  1.65212845384538
 1  1.72822108310831  3.61348233023302 -0.09833523152315
 1  3.62485786578658  3.84418104310431 -0.01316437443744
 1 -2.78940005500550 -2.92046433843384 -0.69184684968497
 1 -2.60503921692169 -2.27598466046605 -2.27525626762676
 1 -1.12998338333833 -2.31190874087409 -1.26003454645464
 1  2.36729809280928 -0.09328260926093 -0.43404961696170
 1 -1.94827945094509  1.12734097809781  0.04345043804380
 1  0.32278257725773  1.87271269826983  0.59855186518652
 1  0.19007079207921 -0.91374153815382 -0.94502617661766

