%nproc=4
%Mem=2GB
# td=(NStates=1) CAM-B3LYP/6-31G(d,p) 

TD

0 1
 8  14.62722824782478 -2.38752168526853 -0.26508343134313
 8 -14.77623268726873  1.83619892499250  0.86106563756376
 6  11.08791113711371 -1.50259281138114  0.91305746674667
 6 -12.36135129912991 -1.05764738263826  0.55322896689669
 6  12.48998256425643 -2.08617791389139  1.03663855585559
 6 -13.68703542254225 -0.25264328422842  0.62553536553655
 6  13.29014705370537 -1.99062138423842 -0.32235578057806
 6 -13.50606989999000  1.14843350445045  0.86167741874187
 6  10.89214854185419 -0.32714034103410 -0.07635092809281
 6 -11.31279764376438 -0.33021402830283 -0.26804448044804
 6  13.20812130313031 -0.53724220932093 -0.89983273727373
 6 -12.72529496749675  1.73955696279628 -0.37215656865687
 6  11.86405227422742  0.09572995589559 -0.92438508150815
 6 -11.39430002500250  0.97402403150315 -0.68373036903690
 6  10.61445248624863 -1.13568900990099  2.37287067106711
 6  10.31455207520752 -2.68737650565056  0.24011740174017
 6 -11.90028183418342 -1.24476416831683  1.95051118211821
 6 -12.60635713071307 -2.41958318021802 -0.10855959395940
 6  9.57956319731973  0.35836478947895  0.13024698469847
 6 -10.07590316231623 -1.08865160706071 -0.41242252725273
 6  11.80586646664666  1.19540471437144 -1.98979096909691
 6 -10.52164045204520  1.77138661576158 -1.57938482848285
 6  9.33786769176918  1.75561180418042  0.01233787378738
 6 -8.77721911891189 -0.52099404830483 -0.23055815781578
 6  8.08985809080908  2.37035301830183  0.20953172817282
 6 -7.52032006600660 -1.22983131103110 -0.44704087308731
 6  7.97824960896090  3.88007686268627  0.58683286728673
 6 -7.58503680068007 -2.58307788468847 -0.87760644564456
 6  6.90616058705871  1.60497943894389  0.10128764376438
 6 -6.33100579757976 -0.58069633153315 -0.23046197119712
 6  5.62391310531053  2.10698493649365  0.22684965396540
 6 -5.05091363736374 -1.04470154305431 -0.45353223122312
 6  4.55872465846585  1.38211440544054  0.02202011701170
 6 -3.84520581758176 -0.34954717871787 -0.19362217721772
 6  3.12802029302930  1.89109350035004  0.10993510951095
 6 -2.56235169116912 -0.71169124812481 -0.40917927292729
 6  2.74307587458746  3.19535722772277  0.54326198419842
 6 -2.26049481748175 -2.20480397239724 -0.78301952795280
 6  2.20517960696070  0.95813787778778 -0.01313199319932
 6 -1.51668362836284  0.17688557755776 -0.22480643164316
 6  0.75849267826783  1.06978979297930  0.02333366136614
 6 -0.13636350635063 -0.03483108310831 -0.26891786178618
 1  13.02514109410941 -1.64408781888189  1.72647833683368
 1  12.38750224922492 -3.09385259935994  1.30321800580058
 1 -14.25658863186319 -0.95408285018502  1.45381630263026
 1 -14.41476497149715 -0.42081995389539 -0.22261411741174
 1  12.88148915591559 -2.44982428952895 -1.27022758075808
 1 -13.18926935893589  1.28994297639764  1.90708844284428
 1  13.84852943994400  0.25333791169117 -0.45498067906791
 1  13.62687824482448 -0.58456381348135 -1.93172590359036
 1 -13.34241945094509  1.60912597269727 -1.21077382038204
 1 -12.45178115111511  2.75720074017402 -0.08549751375137
 1  10.88445113411341 -2.08159658865887  2.92583727972797
 1  9.43954228122812 -1.16465626462646  2.49984673967397
 1  11.09814355635564 -0.15083395049505  2.52889627562756
 1  10.67132339533953 -2.84339911391139 -0.76814349734973
 1  10.53260226312631 -3.65961460446045  0.84748418841884
 1  9.11777909490949 -2.49311061906191  0.41903862486249
 1 -11.56709839583958 -0.28834132803280  2.48008830583058
 1 -10.89574241324132 -1.85925846974697  2.05957974197420
 1 -12.59043993699370 -1.80071749164917  2.52954353435343
 1 -13.49509995899590 -2.85920461636164  0.32234036503650
 1 -11.69543477847785 -3.09490607950795 -0.04681178317832
 1 -12.86427428642864 -2.41028021992199 -1.13945668766877
 1  8.80743264626463 -0.47432184318432  0.41878899989999
 1 -9.90335510051005 -2.13338040194019 -0.39912371437144
 1  10.66261755375537  1.49021369136914 -2.16048810781078
 1  12.32885871487149  2.26360730363036 -1.73763937193719
 1  12.02319398939894  0.85355621052105 -3.10513320232023
 1 -11.12078647964796  2.23173873797380 -2.42838355935594
 1 -9.88514449244924  1.22398641774177 -2.05035100210021
 1 -10.25690987498750  2.66576923102310 -0.87975113111311
 1  14.43526265426543 -3.24811013811381  0.16223450345035
 1 -15.23907860086009  1.20872817291729  1.31007210321032
 1  10.11750766976698  2.56987389538954  0.07914473947395
 1 -8.57185192119212  0.63466806790679 -0.07169779577958
 1  8.95237292429243  4.37956133813381  0.41361720272027
 1  7.38764515151515  4.27397225822582 -0.29874622062206
 1  7.80637989798980  4.18466953495350  1.50658749674968
 1 -8.18237103110311 -3.08419307720772 -0.16720200920092
 1 -8.32637700870087 -2.70217021992199 -1.71492338133813
 1 -6.70281605360536 -3.16145068496850 -1.23715914991499
 1  6.95125098009801  0.53517673267327 -0.42554042904290
 1 -6.33099007500750  0.40569806490649  0.16842171717172
 1  5.43450115511551  3.06957262926293  0.70851736073607
 1 -5.14368483948395 -2.11981965996600 -0.72645879587959
 1  4.83037623062306  0.41391613761376 -0.22335440344034
 1 -3.97205860986099  0.73941331333133  0.03445472647265
 1  2.99487511551155  3.13858574857486  1.56897013801380
 1  1.72197045804580  3.49250023202320  0.46008061006101
 1  3.49601498149815  3.79612623762376 -0.01986504450445
 1 -2.87871898689869 -2.93490578257826 -0.16399406440644
 1 -2.53336204920492 -2.16489355135514 -1.71404014601460
 1 -1.18381876687669 -2.47442499249925 -0.73081162416242
 1  2.44228559155916  0.04475119411941 -0.27067327932793
 1 -1.88854347734773  1.07155539953995  0.19657575057506
 1  0.23760405940594  1.96253168016802  0.24545655565557
 1  0.39491127612761 -0.94433459745975 -0.67408908290829

