%nproc=4
%Mem=2GB
# td=(NStates=1) CAM-B3LYP/6-31G(d,p) 

TD

0 1
 8  14.65084060906091 -2.22265519861986  0.01254433143314
 8 -14.66401146514651  1.72225753085309  1.16113564456446
 6  11.08164051005100 -1.46044859695970  1.04535069606961
 6 -12.32312747674767 -1.05876749464947  0.69902354635464
 6  12.54304787078708 -1.83721301740174  1.11810670267027
 6 -13.60644736373637 -0.26967498739874  0.92427523952395
 6  13.25702374137414 -1.89124144624462 -0.26050959595960
 6 -13.47929722272227  1.20426908800880  1.06947819881988
 6  10.92810213721372 -0.28939656665667  0.08625533253325
 6 -11.30276664066407 -0.22468347524752 -0.14574225022502
 6  13.19473996499650 -0.50626911201120 -0.82030478447845
 6 -12.91392383038304  1.76514952205221 -0.26514586758676
 6  11.80686655565557  0.04515489838984 -0.83335597859786
 6 -11.59709030403040  1.08055468456846 -0.54538653465347
 6  10.61139218021802 -1.26071151215122  2.48952233623362
 6  10.19494011401140 -2.72259002700270  0.49632302230223
 6 -11.74877668366837 -1.33839353125313  2.06614274527453
 6 -12.61174766976698 -2.45989721162116  0.09873113511351
 6  9.56322156315631  0.41547050005001  0.18137209720972
 6 -10.03173874587459 -0.87182992489249 -0.47299858485849
 6  11.68553443344334  1.12097727162716 -1.85842783278328
 6 -10.62088037603760  1.80096957405741 -1.43057994799480
 6  9.36916082108211  1.74342058505851  0.11239787978798
 6 -8.72678407540754 -0.43126507540754 -0.33027812981298
 6  8.09362846784678  2.36086206920692  0.20521129612961
 6 -7.54070210421042 -1.18878720662066 -0.64485065406541
 6  7.96731851585159  3.85399425442544  0.52219640364036
 6 -7.57418571557156 -2.84228380528053 -1.01585027002700
 6  6.96759673067307  1.53112205320532 -0.11407389238924
 6 -6.36046874387439 -0.54430269216922 -0.50473939893989
 6  5.63553426742674  1.97946218421842  0.06742371137114
 6 -5.01930047604761 -1.02953002590259 -0.77252413041304
 6  4.50546933293329  1.21869806380638 -0.26030811581158
 6 -3.87635893289329 -0.21314353835384 -0.53776659165917
 6  3.21626911791179  1.64412880388039  0.02360647664766
 6 -2.60074553055306 -0.63096317531753 -0.66005436043604
 6  2.98639020602060  3.05636332833283  0.58603626162616
 6 -2.31548031603160 -2.01011450345035 -1.09574080008001
 6  2.17858694769477  0.78356042004200 -0.25078575857586
 6 -1.57366932693269  0.31634952395240 -0.37462141314131
 6  0.71612844184418  0.91936475047505 -0.15288396039604
 6 -0.18930880088009  0.09215161516152 -0.49895086508651
 1  13.11160974097410 -1.14146755685569  1.56842253125313
 1  12.69167266626663 -2.83910712481248  1.40681836583658
 1 -14.20707368036804 -0.78249569146915  1.66417733873387
 1 -13.98949244424442 -0.49996786868687 -0.03854571057106
 1  12.79410041704170 -2.61128043514351 -0.84587514551455
 1 -12.86859729172917  1.16781076317632  2.02105983998400
 1  13.84889947694769  0.07542011991199 -0.10582576357636
 1  13.62917847484749 -0.47630298739874 -1.80472320332033
 1 -13.60016522552255  1.54107916801680 -1.06654939793979
 1 -12.50060603360336  2.89461448154815 -0.12423138713871
 1  10.84127681668167 -2.27210563956396  3.02461715771577
 1  9.64672299929993 -1.25887568656866  2.26319307430743
 1  11.18847258925893 -0.43297216431643  3.05538892489249
 1  10.60664692769277 -3.09102387638764 -0.51733841684168
 1  10.39133813671367 -3.67942658565857  1.06161560156016
 1  9.12942025902590 -2.27748905690569  0.46082280328033
 1 -11.63367505350535 -0.56655914981498  2.85742603960396
 1 -10.80188302730273 -1.79579212311231  2.06475025902590
 1 -12.45805669866987 -2.08016543644364  2.47352793279328
 1 -13.29378982798280 -2.74766346224623  0.87555568656866
 1 -11.85337057205721 -3.22333892279228  0.12995589358936
 1 -12.96258411741174 -2.44750394229423 -0.95026776877688
 1  8.77158906190619 -0.25332974397440  0.42125924692469
 1 -10.02669743474348 -1.79494655855586 -0.82371617361736
 1  10.60335162716272  1.71460613061306 -1.86378843784378
 1  12.36458228722872  2.01080202310231 -1.53329893789379
 1  12.04451612161216  0.72007286218622 -2.84765745474547
 1 -11.21926632763276  2.50989655375538 -2.06986770777078
 1 -10.23590956895690  1.09284330343034 -2.22234820182018
 1 -9.84905908990899  2.40196285038504 -0.87897105310531
 1  14.60588971697170 -2.92541786888689  0.82315059505951
 1 -15.05098979197920  1.31463876397640  1.98732982898290
 1  10.43171909090909  2.37637454545455  0.19784660966097
 1 -8.64714945094509  0.54170877197720 -0.16055668166817
 1  8.95901358835884  4.27779116111611  0.33009885088509
 1  7.25129151615162  4.50448530953095 -0.17107345334533
 1  7.53940320032003  4.00129119711971  1.57122396039604
 1 -7.95635842984298 -3.48133279117912 -0.06180146914691
 1 -8.33958832983298 -2.95905590849085 -1.99058094709471
 1 -6.51237700970097 -3.13265780568057 -1.32500793479348
 1  6.99663551855186  0.41856507150715 -0.41038891389139
 1 -6.48132510851085  0.53907140224022 -0.29042416741674
 1  5.47779548454846  3.08718439043904  0.27225373437344
 1 -4.92985345634563 -2.07892557055706 -0.96544269426943
 1  4.70183337633763  0.16484123012301 -0.70736280428043
 1 -4.00822222622262  0.88922829482948 -0.15944466346635
 1  3.83183881188119  3.32463435343534  1.31897513851385
 1  1.90263852485249  3.19367034903490  1.09505410741074
 1  3.12986836683668  3.88778540354035 -0.42940599859986
 1 -2.98961007600760 -2.71330362236224 -0.66928459345935
 1 -2.60483919691969 -2.11774883688369 -2.16253499549955
 1 -1.37896828182818 -2.12722027202720 -0.89303784678468
 1  2.57741910491049 -0.13689697069707 -0.73506971897190
 1 -2.07441206420642  1.23129137313731 -0.06924083108311
 1  0.30839113811381  1.81192661966197  0.22424443444344
 1 -0.02682089708971 -0.94127429142914 -0.88448012201220

