%nproc=4
%Mem=2GB
# td=(NStates=1) CAM-B3LYP/6-31G(d,p) 

TD

0 1
 8  14.71293681868187 -2.17970090319032 -0.02374929792979
 8 -14.64241930593059  2.10943624872487  1.22894242524252
 6  11.14788713471347 -1.43969652175218  1.02994915591559
 6 -12.46080124412441 -1.06306792469247  0.79915355935594
 6  12.68462202820282 -1.83527282338234  1.15274016601660
 6 -13.74402112111211 -0.14247226712671  0.88834164616462
 6  13.27675571457146 -1.90569289138914 -0.19431297629763
 6 -13.49396868986899  1.30532919401940  1.04471572257226
 6  11.00998032503250 -0.16924455145515  0.16683339033903
 6 -11.29325568956896 -0.27446845374537 -0.09465714171417
 6  13.27544803580358 -0.50168865396540 -0.83269602360236
 6 -12.68462090009001  1.84292729982998 -0.12545189818982
 6  11.95191106010601  0.11917230013001 -0.74250689368937
 6 -11.40311090609061  0.96006263536354 -0.44179617561756
 6  10.71676271727173 -1.08674411541154  2.40736412041204
 6  10.39331995199520 -2.64409217721772  0.60124351435144
 6 -11.82120392639264 -1.27407709960996  2.15952208320832
 6 -12.80730722572257 -2.38366958885889  0.05058632063206
 6  9.73070831183118  0.45102405540554  0.27577153715372
 6 -10.10615618761876 -1.14667740964096 -0.38474975997600
 6  11.78640452045205  1.23528870277028 -1.86866885688569
 6 -10.50400868886889  1.77816729382938 -1.39705659565957
 6  9.41652555755576  1.81038728172817  0.08794543454345
 6 -8.77863926092609 -0.60966291519152 -0.31865696769677
 6  8.03342244724472  2.30998698169817  0.19357013201320
 6 -7.52089012301230 -1.19443777167717 -0.66028219721972
 6  7.88606039003900  3.69227808280828  0.55267945194519
 6 -7.55313361036104 -2.65773535043504 -1.17859654465447
 6  6.90001997299730  1.49016795779578 -0.00191267626763
 6 -6.38445114211421 -0.51859012091209 -0.52348127312731
 6  5.59032974697470  2.02950718871887  0.13920088908891
 6 -5.09788833483348 -1.09437651055106 -0.84566144414441
 6  4.45132391839184  1.24307050105010 -0.10222230723072
 6 -3.93655495249525 -0.36187841184118 -0.63732654765477
 6  3.06196368736874  1.67979237023702  0.03847796379638
 6 -2.64919037503750 -0.80648072707271 -0.90465882088209
 6  2.78677024402440  2.98681637363736  0.57838549654966
 6 -2.38251701970197 -2.27061055305531 -1.23585481148115
 6  2.03902299129913  0.81928399239924 -0.39376005600560
 6 -1.59157111711171 -0.00986309730973 -0.49802375337534
 6  0.69445627462746  0.91473428742874 -0.25209388138814
 6 -0.14595446544654 -0.11223882388239 -0.63125409540954
 1  13.33467204720472 -1.21141455155516  1.85125081408141
 1  12.81071457045705 -2.73536675077508  1.50778846284628
 1 -14.39847282028203 -0.63860130203020  1.64226514751475
 1 -14.21123461846185 -0.47192506440644 -0.02630448644864
 1  12.53297430443044 -2.58172747984798 -0.86647720572057
 1 -12.69565999799980  1.40421440354035  1.93281101510151
 1  14.03718830583058  0.07862043994399 -0.12737791879188
 1  13.52937849484949 -0.76188154525453 -1.92517524852485
 1 -13.38731394039404  2.17733279337934 -0.93275601860186
 1 -12.29148512151215  2.93344836493649  0.13250428642864
 1  10.86157884688469 -1.90134856385639  3.07977267326733
 1  9.53818214521452 -0.96018581758176  2.51725848084808
 1  11.26874061606161 -0.17843671077108  2.70530391639164
 1  10.46373263626363 -3.02184695869587 -0.34741142414241
 1  10.20959996289629 -3.49973861686169  1.16456589658966
 1  9.30564788178818 -2.30446175417542  0.57802452345235
 1 -11.49977166316632 -0.45168766266627  2.73399369636964
 1 -11.01534437343734 -2.12883542744274  2.08317210121012
 1 -12.58797969096910 -1.79441686158616  2.65291587158716
 1 -13.56327677667767 -2.78641733763376  0.59282741374137
 1 -11.96720195519552 -3.08745533443344  0.15973887188719
 1 -12.98304616361636 -2.26817600950095 -0.91883462546255
 1  8.87522942594259 -0.19072348334834  0.72028914991499
 1 -10.24511927692769 -2.11201826572657 -0.54789859185919
 1  10.82534382638264  1.27933260326033 -2.00865292429243
 1  12.31511734073407  2.20325126802680 -1.69409501750175
 1  12.20952262226223  0.73796465136514 -2.83729641864186
 1 -11.04857925892589  2.31206677077708 -2.18071879287929
 1 -9.33295927392739  1.28807282638264 -1.84712067906791
 1 -10.18859304330433  2.54402705680568 -0.57769092509251
 1  14.70242937093709 -3.10048537563756  0.14069234923492
 1 -14.99808450145014  1.78527582768277  2.05983707970797
 1  10.21377729672967  2.39921682968297  0.00710753575358
 1 -8.74197893389339  0.48321292239224 -0.06364699069907
 1  8.78987667466747  4.37023040504050  0.93581942294229
 1  7.43906029302930  4.34134899589959 -0.26854320032003
 1  6.96909616961696  3.71412248024803  1.31873871187119
 1 -7.91297409140914 -3.42625728362836 -0.39488477747775
 1 -8.26772114311431 -2.94037404030403 -1.97509939893989
 1 -6.46235200720072 -2.90231477137714 -1.54556999099910
 1  6.99314516951695  0.52722593759376 -0.53092096709671
 1 -6.41505848184818  0.33735123022302 -0.06772189718972
 1  5.42681038603860  3.11084675667567  0.31674818381838
 1 -4.96829730073007 -2.10702838083808 -1.17061321132113
 1  4.63647684068407  0.23216796279628 -0.24374644264426
 1 -4.08349975397540  0.71854122612261  0.11313259425943
 1  3.32305793379338  3.05962785278528  1.49119236023602
 1  1.73491175217522  3.14129511151115  0.80372497449745
 1  3.11072645264526  4.01555818081808 -0.07591064906491
 1 -2.46455757075708 -3.14217650965097 -0.35398306330633
 1 -3.25636434943494 -2.78196525852585 -1.95181392339234
 1 -1.24738512351235 -2.51993954395439 -1.91314985798580
 1  2.40708207120712 -0.08869215021502 -0.96708292029203
 1 -1.88207283028303  1.06196444044404 -0.30834474147415
 1  0.24786508550855  1.95454088108811 -0.06417440744074
 1  0.32653443844384 -1.09349951395139 -1.14699637363736

