%nproc=4
%Mem=2GB
# td=(NStates=1) CAM-B3LYP/6-31G(d,p) 

TD

0 1
 8  14.67097262226223 -2.27771070417042 -0.34239116211621
 8 -14.74591965596560  1.86577188228823  1.12337186818682
 6  11.31999434543454 -1.39970252235224  1.07697385838584
 6 -12.32162732673267 -1.06491810971097  0.61900554455446
 6  12.80506407240724 -1.65184448054805  0.98734362636264
 6 -13.72288900790079 -0.27352537243724  0.70317312931293
 6  13.28954699369937 -1.96286860896090 -0.33489703470347
 6 -13.50873016601660  1.27919658075808  0.93474472547255
 6  11.02392171917192 -0.24843247024702  0.06051275827583
 6 -11.28166453045305 -0.25588659555956 -0.21524920092009
 6  13.18146863786379 -0.57874635973597 -1.16538929292929
 6 -12.75484792279228  1.84529753685369 -0.16328568156816
 6  11.89898576757676  0.09542992589259 -0.95282792579258
 6 -11.63669426442644  1.02172880198020 -0.58473046904690
 6  10.91971301230123 -0.89491493249325  2.50058344234423
 6  10.41257187718772 -2.73603137113711  0.77196058605861
 6 -11.85544735073507 -1.37006669856986  2.01102723372337
 6 -12.51176767176718 -2.44059528142814 -0.00243898189819
 6  9.67338257925793  0.33098205120512  0.17362132213221
 6 -10.05110068206821 -0.97562030393039 -0.55122640764076
 6  11.56742262226223  1.17757293119312 -1.92264425442544
 6 -10.58492678067807  1.82204168126813 -1.48661555155516
 6  9.28148205320532  1.64250049304931  0.00877751775177
 6 -8.82218361536154 -0.43552550145014 -0.41070617261726
 6  8.07393649864986  2.26212219521952  0.25285606060606
 6 -7.58698673267327 -1.12974130203020 -0.61910807980798
 6  7.98642042604260  3.74772362736274  0.44707889188919
 6 -7.58250654765477 -2.58298787568757 -0.98190687568757
 6  6.87450742174217  1.56667560856086  0.22144965996600
 6 -6.37348004500450 -0.45037329922992 -0.52106103110311
 6  5.61129184318432  1.94656889488949  0.30131710071007
 6 -5.09810835683568 -1.01357843074307 -0.72407928592859
 6  4.47174596059606  1.19107530153015  0.18993690869087
 6 -3.94162545954595 -0.29597182118212 -0.56831964696470
 6  3.13404089508951  1.63772816381638  0.29023313931393
 6 -2.60462591859186 -0.78191827082708 -0.64728308330833
 6  2.75073664066407  3.05333302530253  0.50138779677968
 6 -2.34349311731173 -2.26078957095710 -0.95748697469747
 6  2.09667875687569  0.73715577957796 -0.04948562856286
 6 -1.60788274827483  0.16870475947595 -0.41688563956396
 6  0.67664449344934  0.95135794979498 -0.21199987198720
 6 -0.20893076307631 -0.06667426742674 -0.47285825582558
 1  13.39550813081308 -0.79867327742774  1.27631332033203
 1  13.11926542554255 -2.53937715181518  1.89664734873487
 1 -14.52537551055106 -0.94446188808881  1.39940086108611
 1 -14.27359085408541 -0.32906077797780 -0.39776163216322
 1  12.66035704270427 -2.83087239433943 -0.88306886488649
 1 -12.95335576757676  1.31997597969797  1.95506324032403
 1  14.03448803580358  0.10326290419042 -0.79587476847685
 1  13.32842839983998 -0.79907526462646 -2.24796752775278
 1 -13.36594180318032  2.04615967606761 -0.89619236223622
 1 -12.30056602960296  2.74226924702470  0.14676571257126
 1  11.15223791279128 -1.76058448744874  3.16615131113111
 1  9.92575090209021 -0.60487028602860  2.66476323132313
 1  11.52103584558456  0.01382251515152  2.90240362636264
 1  10.67912417541754 -3.28488326232623 -0.09984666766677
 1  10.40839984288429 -3.38593723672367  1.73495293529353
 1  9.39001631863186 -2.43731503950395  0.76069279027903
 1 -11.31517320332033 -0.38101059495950  2.58050834783478
 1 -11.02915575457546 -2.11395393929393  1.73530731473147
 1 -12.39965085808581 -2.08813623352335  2.61130171017102
 1 -13.66032648164816 -2.81480017591759  0.35117324832483
 1 -11.67881311631163 -3.06755334423442  0.32033493149315
 1 -12.83208106710671 -2.28871806370637 -1.07561030303030
 1  8.85669757275728 -0.39863427442744  1.05410253125312
 1 -10.14311907690769 -2.03541060496050 -0.73045684768477
 1  10.58884017601760  1.24411908190819 -2.32985504450445
 1  11.92312814181418  2.07807875077508 -1.40915652365237
 1  12.28709037903790  1.02858371327133 -2.84507719671967
 1 -11.24627902890289  2.56148171227123 -2.02247296829683
 1 -10.13194917291729  1.16291031013101 -2.11945791279128
 1 -10.04788897289729  2.34273692779278 -0.56322947894790
 1  14.62448157615762 -3.19352467956796  0.13273155315532
 1 -14.92161685468547  1.69159645974598  2.02703379937994
 1  10.09768568756876  2.27862477047705 -0.10411358635864
 1 -8.73458819481948  0.62305690679068 -0.00446107210721
 1  8.94667235423542  4.35990937293729  0.62007784878488
 1  7.19626601360136  4.07239210021002 -0.34143048904890
 1  7.56609586958696  3.78976004400440  1.41413825182518
 1 -8.21510430443044 -3.16040069796980 -0.17858314731473
 1 -7.98925329632963 -2.71842184508451 -1.94648653765377
 1 -6.79959573157316 -2.91387592749275 -0.96600203420342
 1  7.16186204120412  0.52329554455446 -0.03508138313831
 1 -6.31243821982198  0.64303179827983 -0.21029615461546
 1  5.16082378737874  3.08376404840484  0.65731224022402
 1 -5.15380585158516 -2.03236091409141 -0.70244639463946
 1  4.59762295529553  0.05746049204921  0.03724165616562
 1 -4.01420282428243  0.81825119711971 -0.06823554255426
 1  3.14734036203620  3.39948183818382  1.62403564456446
 1  1.64260252125212  3.19098008000800  0.54872947494749
 1  3.21376675667567  3.67531415641564 -0.07452051005101
 1 -2.46353746874687 -2.87897018901890 -0.10340800580058
 1 -2.95868458145815 -2.55083214521452 -1.63497223922392
 1 -1.32332271727173 -2.28283583358336 -1.25067361036104
 1  2.40389175217522 -0.39677295829583 -0.07185339733973
 1 -1.90025464846485  1.17085532953295  0.10689678267827
 1  0.31506180518052  1.89988541554155 -0.09558754875488
 1  0.11885367036704 -1.14952511651165 -0.60275194919492

