%nproc=4
%Mem=2GB
# td=(NStates=1) CAM-B3LYP/6-31G(d,p) 

TD

0 1
 8  14.70770629562956 -2.29877281038104 -0.48005492849285
 8 -14.88359342334233  1.89454475957596  0.71662119311931
 6  11.21835418141814 -1.54490704280428  0.96915307630763
 6 -12.29886505050505 -0.92000361826183  0.72517616161616
 6  12.68811237723772 -1.79899919601960  0.91371626362636
 6 -13.64734145314531 -0.35391341124112  0.79433224522452
 6  13.34423246224623 -1.87795011711171 -0.43599714471447
 6 -13.55965525852585  1.19379804090409  0.80833208420842
 6  11.00830015701570 -0.26836446344634  0.13595030203020
 6 -11.26329269326933 -0.21568257515752 -0.23178085408541
 6  13.26395688668867 -0.46564504960496 -1.13336609060906
 6 -12.80004244224422  1.75064807190719 -0.39899925292529
 6  11.88055392439244  0.13220360326033 -0.88906154915492
 6 -11.52435303030303  0.99802643174317 -0.69088108410841
 6  10.94886592759276 -1.16246168716872  2.37599098309831
 6  10.40175079507951 -2.68489625762576  0.49047243724372
 6 -11.69019082508251 -1.00830052195219  2.09200533153315
 6 -12.51649814481448 -2.50312153405341  0.38296955895590
 6  9.72170741174117  0.39968892189219  0.22784674467447
 6 -9.97686325832583 -1.02663540544054 -0.36229751475148
 6  11.60152603260326  1.20230540444044 -1.84447643764376
 6 -10.60546883488349  1.72526200330033 -1.67584447444744
 6  9.29055296029603  1.66174241724172  0.15382202220222
 6 -8.84434583158316 -0.39908185708571 -0.34628973097310
 6  8.00556966196620  2.31847783078308  0.40342111711171
 6 -7.47359539353935 -1.21413974187419 -0.59098526752675
 6  7.91960374437444  3.65755461046105  0.68109229322932
 6 -7.63196149314931 -2.62795237213721 -0.95579426442644
 6  6.85286525752575  1.47504644564456  0.31732924792479
 6 -6.40705340234023 -0.62408066996700 -0.46977590259026
 6  5.59330004400440  1.95432967096710  0.36941391039104
 6 -5.02138068406841 -1.09043611651165 -0.66887376537654
 6  4.40559934593459  1.25842203620362  0.22382029702970
 6 -3.94360565756576 -0.29386161016102 -0.43232604760476
 6  3.08008549954996  1.74347873887389  0.20428454445445
 6 -2.62525798179818 -0.77559763876388 -0.62439079407941
 6  2.85242680968097  3.09090678267827  0.64950260826083
 6 -2.33305207320732 -2.19412290429043 -0.86393761976198
 6  2.02617170617062  0.78072013601360 -0.18072875287529
 6 -1.56712867286729  0.23591148014801 -0.31488543954395
 6  0.66643347234723  1.00483329732973 -0.24708338033803
 6 -0.22546241624162 -0.06340394039404 -0.49524049404941
 1  13.22121070107011 -1.32302571267127  1.64831052005201
 1  12.92008550755076 -2.90650386448645  1.28028571257126
 1 -14.31694466746675 -0.79321676357636  1.46637755875588
 1 -14.02699619461946 -0.53330120202020 -0.31104296029603
 1  12.80586159315932 -2.46532583968397 -1.12310286828683
 1 -13.12524295629563  1.64133811591159  1.81996973097310
 1  13.77027161416142  0.39702228012801 -0.67468264926493
 1  13.77421297829783 -0.37805316241624 -2.12537526852685
 1 -13.62152736173617  1.91393645374537 -1.24830757375738
 1 -12.50184615761576  2.76842186228623  0.07191822782278
 1  11.45782847184718 -1.84070249924992  3.22227692369237
 1  9.85744407140714 -1.25586538553855  2.72699945494549
 1  11.16812055405540 -0.15191405850585  2.57161054705470
 1  10.77597386038604 -3.16412118611861 -0.31746842984298
 1  10.38155715861586 -3.35831447444745  1.30562000200020
 1  9.51650896789679 -2.38188949694970  0.41863858485849
 1 -11.27930961696170 -0.00651314521452  2.46367666466647
 1 -10.95633847284729 -1.73212575647565  2.27647143114311
 1 -12.49920081308131 -1.36431385128513  2.86496707670767
 1 -13.36895734473447 -2.86480517641764  0.86070420142014
 1 -11.79343457845785 -3.17999458835884  0.61762466046605
 1 -12.83161102010201 -2.52838203010301 -0.77321006300630
 1  8.96422832583258 -0.40423483448345  0.48487560856086
 1 -10.00257502250225 -2.04399146304630 -0.65397919991999
 1  10.45162645464546  1.54177884788479 -2.19281134013401
 1  12.02468829782978  2.28307925082508 -1.76023163116312
 1  12.02505417541754  0.92141299619962 -2.76074876387639
 1 -11.17108150915091  2.51207677177718 -2.23444416541654
 1 -9.90489646764676  1.09312333143314 -2.24815078207821
 1 -9.89740392439244  2.28338099219922 -0.92273542954295
 1  14.66871599959996 -3.35673100020002 -0.60720244024402
 1 -15.38555324832483  1.70177747784778  1.60441153715372
 1  10.04108002700270  2.41790869886989  0.28899572457246
 1 -8.43476821282128  0.66302090319032 -0.08255888188819
 1  8.91356904390439  4.27530091209121  0.66208204920492
 1  7.27210359735974  4.34108896989699 -0.05927227322732
 1  7.55987524752475  3.81654272227223  1.66659349734973
 1 -7.83135592959296 -3.30968562646265  0.00338504950495
 1 -8.64195856685668 -2.88544854775478 -1.55661755075508
 1 -6.72447821982198 -3.06530107000700 -1.13169860386039
 1  6.98342419741974  0.30001321632163  0.24535666066607
 1 -6.51917889388939  0.37310480558056 -0.26865199019902
 1  5.62004970997100  3.12306797879788  0.64953146214621
 1 -4.94471494249425 -2.16711438943894 -0.85985213521352
 1  4.47242043504350  0.21394614061406 -0.10165223322332
 1 -4.02837424142414  0.68495786778678 -0.03345206420642
 1  3.54571019901990  3.47158904890489  1.59312255325533
 1  1.74568282928293  3.45858684068407  0.76576117811781
 1  3.10615599559956  3.76381300630063 -0.25564862286229
 1 -2.57909902490249 -2.87393968596860 -0.04905257025703
 1 -2.76051476447645 -2.77324438643864 -1.73608235023502
 1 -1.18417880288029 -2.44820237023702 -0.91066960996100
 1  2.40744210721072 -0.24955823682368 -0.23093930593059
 1 -1.91220584358436  1.11162940694069 -0.09243315031503
 1  0.12050234923492  2.12817824482448 -0.06587457745775
 1  0.09868165316532 -0.96799696369637 -0.88308998299830

