%nproc=4
%Mem=2GB
# td=(NStates=1) CAM-B3LYP/6-31G(d,p) 

TD

0 1
 8  14.81364688968897 -2.09092202530253 -0.33591051405141
 8 -14.68182324632463  2.07894319941994  0.98102763376338
 6  11.32786513251325 -1.43073562566257  0.97359352035204
 6 -12.44469963396340 -0.95945756365637  0.54961860586059
 6  12.76995056105610 -1.76504580068007  0.94487937993799
 6 -13.67414413341334 -0.14875289518952  0.59880269226923
 6  13.54819285828583 -1.79253157525753 -0.44569811481148
 6 -13.49922921592159  1.34470313141314  0.87660891189119
 6  11.07224655165517 -0.19919754675468  0.11590829782978
 6 -11.36317268126813 -0.22036304320432 -0.17196487248725
 6  13.36870736173617 -0.42423090819082 -1.01456421042104
 6 -12.64784722272227  1.88157116421642 -0.21422077507751
 6  11.94599046804680  0.18154853775378 -0.88825146814681
 6 -11.58569916491649  1.07827445654565 -0.62719471547155
 6  10.89490053105311 -1.08828426942694  2.39969335333533
 6  10.55214583458346 -2.59694746274627  0.39345273527353
 6 -11.97447925392539 -1.27706739863986  2.05522165316532
 6 -12.75766226122612 -2.35599682158216 -0.12872161016102
 6  9.77810305130513  0.33255220822082  0.29012297229723
 6 -10.13475904790479 -1.03936667856786 -0.39616090109011
 6  11.68111399139914  1.32108728262826 -1.83185517551755
 6 -10.55764405240524  1.68317779487949 -1.61090798079808
 6  9.43335724072407  1.66457270027003  0.06408304830483
 6 -8.85433683068307 -0.54074602350235 -0.38350345234523
 6  8.03831293629363  2.14974095709571  0.11336211121112
 6 -7.67978601260126 -1.26637496539654 -0.61873804280428
 6  7.89873165716572  3.58624747974797  0.41722590659066
 6 -7.75367366436644 -2.76579615651565 -1.14213289828983
 6  6.86697666866687  1.33729267026703  0.14310182518252
 6 -6.48344104110411 -0.60638890079008 -0.44874379937994
 6  5.60647136113611  1.86663090109011  0.14452142114211
 6 -5.20836938293829 -1.12160923382338 -0.49282616061606
 6  4.45190397639764  1.18362455645565  0.06400431543154
 6 -4.03806510351035 -0.41028325232523 -0.20716353135314
 6  3.07951544254425  1.55972036303630  0.15392950895090
 6 -2.64441989798980 -0.81727180618062 -0.33465182018202
 6  2.87833940094009  3.02426011801180  0.52246990499050
 6 -2.37266603460346 -2.25289878187819 -0.73696492249225
 6  2.13409249824982  0.66861892589259 -0.06677735773577
 6 -1.66714867486749  0.22200008900890 -0.10010396139614
 6  0.71304813381338  0.91034384838484 -0.01545021702170
 6 -0.29778964896490  0.00026242624262 -0.29985095509551
 1  13.08515709570957 -1.05903931403140  1.82509819881988
 1  13.02123562256226 -2.75955917001700  1.42028971297130
 1 -14.45551852485249 -0.48501594349435  1.46058697969797
 1 -14.30204369936994 -0.13409128102810 -0.46091794779478
 1  12.88577958495850 -2.66073538063806 -1.13798435643564
 1 -12.93776420842084  1.43863784588459  1.82694042804280
 1  14.11401598859886  0.36954953285329 -0.61913709470947
 1  13.79712526952695 -0.40699605670567 -2.00974370537054
 1 -13.32100730973097  1.93994905500550 -1.04170691369137
 1 -12.32690866386639  2.95990101020102 -0.04857382138214
 1  10.88423111211121 -1.94351278027803  3.08268296429643
 1  9.74286261326133 -0.97652745174517  2.53006976197620
 1  11.44597833983398 -0.28749761686169  2.81429481548155
 1  10.78482474547455 -2.84674944894490 -0.63357004000400
 1  10.94031303420342 -3.44196283928393  0.94409384938494
 1  9.57176449344935 -2.32059336733673  0.70660738173817
 1 -11.91801348734873 -0.31370386428643  2.55085538253825
 1 -10.93361620062006 -1.67326987088709  2.22242602660266
 1 -12.68716960996100 -1.95816323622362  2.71426200620062
 1 -13.62093254225423 -2.89169786568657  0.40847897889789
 1 -11.92167740274027 -2.98808539743974  0.20712361036104
 1 -13.07401526052605 -2.07977716961696 -0.98796153815382
 1  8.88878078107811 -0.23157756875688  0.67368448944894
 1 -10.15137990299030 -2.03248031193119 -0.79061286328633
 1  10.81821311331133  1.61479614961496 -2.12045410441044
 1  11.89474530353035  2.40473141604160 -1.37121272927293
 1  12.42925459545955  1.22849370427043 -2.72237492649265
 1 -11.07581198219822  2.21221678577858 -2.52433315431543
 1 -10.06738271627163  0.91150516961696 -2.10397636463646
 1 -9.89493367736774  2.39492214631463 -1.06823997999800
 1  15.11977110511051 -2.79207453455346  0.05824410441044
 1 -15.38643333633363  1.53535083518352  1.58120921692169
 1  10.11648756775678  2.36847375537554  0.01550837583758
 1 -8.64244898089809  0.50101470257026 -0.02727335333533
 1  8.95051273827383  4.01702508450845  0.39808564956496
 1  7.20031641864186  4.26014087508751 -0.26632297829783
 1  7.25922518251825  3.69870093809381  1.35104194219422
 1 -8.15306810081008 -3.65477013491349 -0.41174646364636
 1 -8.37033140414041 -2.73633363626363 -1.95724761376138
 1 -6.69339511151115 -3.08131267116712 -1.69117455145515
 1  7.05378123312331  0.33518673367337 -0.11584945994599
 1 -6.63365034103410  0.36784427952795 -0.20588571357136
 1  5.66141384638464  3.12007767976798  0.40186669566957
 1 -5.06140661166117 -2.12993067106711 -0.90920707070707
 1  4.63536672967297  0.00367511351135 -0.27274934293429
 1 -4.25390679467947  0.60213958595860  0.14241552255226
 1  3.58809443744374  3.29026091609161  1.35460870187019
 1  1.78604686568657  3.19774075607561  0.71529613161316
 1  3.22395777577758  3.74151077607761 -0.22064512251225
 1 -2.86155727072707 -2.94637692969297  0.04343667866787
 1 -2.82726143914391 -2.34722178417842 -1.64811355335534
 1 -1.30200058505851 -2.36641419141914 -0.80332887588759
 1  2.53073443644364 -0.33864714571457 -0.38528474047405
 1 -2.06325094809481  1.25481372537254  0.31430752375238
 1  0.59098939793979  2.04784021102110  0.25744775477548
 1  0.05680746574657 -0.91947211121112 -0.61028270227023

