%nproc=4
%Mem=2GB
# td=(NStates=1) CAM-B3LYP/6-31G(d,p) 

TD

0 1
 8  14.76338186318632 -2.18288122122212 -0.11841876487649
 8 -14.73564862886289  1.92239754485449  1.17858738973897
 6  11.09723206920692 -1.54656720882088  0.92262842384238
 6 -12.38369353335333 -0.99420103800380  0.58751239523952
 6  12.64746831283128 -1.78228752485249  1.10336522852285
 6 -13.80298701770177 -0.24046206610661  0.70105291729173
 6  13.43075111411141 -1.76614893699370 -0.28695224022402
 6 -13.51298059105911  1.22773143424342  0.99051030203020
 6  11.04699402640264 -0.31000862786279  0.05460216721672
 6 -11.39879624362436 -0.18992999989999 -0.23787146314631
 6  13.39471996299630 -0.34873335843584 -0.84359711371137
 6 -12.71862430043004  1.97926093319332 -0.14471382438244
 6  11.93770963996400  0.17543792669267 -0.79721236423642
 6 -11.56656725172517  1.16249287838784 -0.59302129812981
 6  10.67012805380538 -1.16497193819382  2.38999238323832
 6  10.35223584358436 -2.68092586058606  0.47326071607161
 6 -11.80411221722172 -1.27955764766477  1.96213234423442
 6 -12.73747024202420 -2.36372759465947 -0.02456119411941
 6  9.74578981998200  0.23658261126113  0.11354531453145
 6 -10.13942951495150 -0.90184292619262 -0.50628191319132
 6  11.81394727472747  1.45246041994199 -1.79324131413141
 6 -10.54869315731573  1.79674915201520 -1.33524041404140
 6  9.40928483348335  1.59473571657166  0.08745538553855
 6 -8.82935433243324 -0.48497044594459 -0.41110621262126
 6  8.10427953295329  2.27091307430743  0.19849062406241
 6 -7.65714374837484 -1.24447277517752 -0.61043721272127
 6  7.98154993899390  3.76973582858286  0.54556874087409
 6 -7.76043434043404 -2.65778535543554 -0.97494617961796
 6  6.93814378537854  1.53928286928693 -0.06380886588659
 6 -6.44624732173217 -0.60347860976098 -0.38186711171117
 6  5.53113382738274  2.02617685568557  0.14899186818682
 6 -5.10458900490049 -1.21309838273827 -0.50980785878588
 6  4.44629341534153  1.27346354035404 -0.21805389038904
 6 -3.95546684368437 -0.47781000500050 -0.33081589658966
 6  3.13922141314131  1.70027441844184  0.05183929992999
 6 -2.63713916991699 -0.97941802080208 -0.60803915891589
 6  2.81309287628763  3.14972266426643  0.33716137413741
 6 -2.29256802480248 -2.33318681068107 -1.04544577057706
 6  2.12891198019802  0.69414147814781 -0.21006168616862
 6 -1.52362432243224  0.00425831483148 -0.31292524352435
 6  0.85951278027803  0.87681049504950 -0.12751142314231
 6 -0.13612348234823 -0.10886848684868 -0.35305627562756
 1  13.11515009500950 -0.89383279337934  1.83575926492649
 1  12.89527302630263 -2.75210842494249  1.58939662366237
 1 -14.38393136613661 -0.79552699459946  1.48691961296130
 1 -14.26598009300930 -0.18450632253225 -0.34353620962096
 1  12.85641664866487 -2.45847515461546 -0.91126168416842
 1 -12.87249768176818  1.20940492259226  1.87412514651465
 1  14.01022560956096  0.43707628552855 -0.37793297429743
 1  13.73800935793579 -0.40557591469147 -1.83733646464646
 1 -13.34124933393339  2.13156821692169 -1.01212395539554
 1 -12.32739871287129  2.87259227932793  0.14822585858586
 1  10.93715640464046 -1.84069249824982  3.30755545154515
 1  9.70641896889689 -1.11035083408341  2.30168692369237
 1  11.04925866786679 -0.20074894199420  2.46049943594359
 1  10.39909617261726 -2.87421219521952 -0.81671835483548
 1  10.64200320322032 -3.57434607760776  1.12519195919592
 1  9.29403672067207 -2.34534584258426  0.61193791479148
 1 -11.45963764976498 -0.33609610351035  2.52053235023502
 1 -10.99700253925393 -2.11073361726173  2.02619640364036
 1 -12.72008290129013 -1.50137755765577  2.63319389938994
 1 -13.52773322232223 -2.55810450635064  0.53022115311531
 1 -11.85644087908791 -3.01860844974497 -0.07349445144514
 1 -13.14218207720772 -2.22674186608661 -1.02308505050505
 1  8.97123902690269 -0.38481289228923  0.79424654565456
 1 -10.32424718971897 -1.91551861576158 -0.52000580258026
 1  10.78330962296229  1.41777644764476 -2.34291635063506
 1  12.03593942294229  2.39656059895990 -1.11591719971997
 1  12.47365903590359  1.67969882478248 -2.89843253225323
 1 -10.98385278627863  2.54367993209321 -1.95667638863886
 1 -10.12481845984598  1.11788580768077 -2.15567153415342
 1 -9.68310249424943  2.39884253835383 -0.87535069106911
 1  14.75587471547155 -2.94182951005101  0.84748302830283
 1 -15.07411210421042  1.58708600870087  2.06500759675968
 1  10.22456837583758  2.11677858585859  0.09350617561756
 1 -8.79212394839484  0.54339894099410 -0.26019664566457
 1  8.87192487948795  4.16358974097410  0.58989483048305
 1  7.35291167816782  4.20086494749475 -0.14852119811981
 1  7.38549780978098  3.81229229722972  1.55584242224222
 1 -8.44036683068307 -3.15899055695570 -0.19635492449245
 1 -8.20778514951495 -2.73403340624062 -1.95698758775878
 1 -6.73788956095610 -3.25735027492749 -0.82961839583958
 1  6.84021987698770  0.64728794379438 -0.51527940294029
 1 -6.53217019301930  0.47660515561556 -0.08803392839284
 1  5.47868557355736  3.06101177317732  0.56840334933493
 1 -5.09569004000400 -2.20836851485149 -0.74233038303830
 1  4.58011120412041  0.19621436743674 -0.38056012401240
 1 -4.10732213621362  0.57059643164316 -0.18230694969497
 1  3.14945057305731  3.31242313231323  1.54456769776978
 1  1.86105436643664  3.36145712771277  0.05401000300030
 1  3.07692307230723  3.80524714971497 -0.42169522752275
 1 -2.37898901390139 -3.02752504450445 -0.13383104810481
 1 -3.17191590459046 -2.77299436143614 -1.77688643064306
 1 -1.22739312431243 -2.36948449844985 -1.34604314731473
 1  2.49295065806581 -0.30437371837184 -0.35358157015702
 1 -1.90868549154916  1.10248849284929 -0.19558346534653
 1  0.33017331633163  1.85028045504550  0.17850986098610
 1  0.13890567556756 -1.01037120112011 -0.48720039403940

