%nproc=4
%Mem=2GB
# td=(NStates=1) CAM-B3LYP/6-31G(d,p) 

TD

0 1
 8  14.92294781978198 -1.98936186928693 -0.11196811981198
 8 -14.77017208120812  1.94825013011301  0.98960849184919
 6  11.29730207620762 -1.44937748984899  0.93716987798780
 6 -12.44379954395439 -0.94240585848585  0.54199784378438
 6  12.82150571657166 -1.70366966306631  1.12753764576458
 6 -13.75538225722572 -0.19497751765177  0.46085889788979
 6  13.55714375337534 -1.71892421452145 -0.25482902790279
 6 -13.58646793979398  1.22634129522952  0.84057530853085
 6  11.10375970297030 -0.27031465846585 -0.02609590259026
 6 -11.33879024302430 -0.11486249314932 -0.17701537753775
 6  13.37231772277228 -0.40575906100610 -1.03285603960396
 6 -12.67430986898690  1.90432343944394 -0.14691404440444
 6  11.91711758075808  0.18158854175418 -0.99818246124612
 6 -11.50464105910591  1.17830445954595 -0.57932992899290
 6  10.84369541054105 -1.25957139813981  2.41274465846585
 6  10.66241686168617 -2.75430319831983  0.42896628662866
 6 -12.00321212721272 -1.34133382528253  1.88130426142614
 6 -12.77967446244624 -2.34163538543854 -0.18361709970997
 6  9.69367460846085  0.34143309630963  0.13394735473547
 6 -10.04398997099710 -0.96608935083508 -0.41423270827083
 6  11.75743162316232  1.25137031093109 -1.95691768176818
 6 -10.47182547054705  1.92225170227023 -1.34783167316732
 6  9.33961786678668  1.65538178117812  0.06400304030403
 6 -8.84934633163316 -0.49405135403540 -0.33968907090709
 6  8.02115122012201  2.24773075607561  0.21266204120412
 6 -7.65253328732873 -1.24089241714171 -0.42816898589859
 6  8.00624240824082  3.78156701170117  0.66312049604960
 6 -7.78548684568457 -2.70124970187019 -0.89511819681968
 6  6.88066803780378  1.50340928192819 -0.03395588058806
 6 -6.42786548354835 -0.63794205610561 -0.23925285028503
 6  5.52603331733173  2.00004424242424  0.19920688968897
 6 -5.10640918691869 -1.14605167806781 -0.48375525352535
 6  4.49871865786579  1.22600879487949 -0.09872195719572
 6 -3.99136043304330 -0.37132935693569 -0.23761657665767
 6  3.10795828682868  1.57492188318832  0.03130724672467
 6 -2.63872932893289 -0.77542762176218 -0.51960031503150
 6  2.72491405840584  3.00236792879288  0.31529918791879
 6 -2.49686845484548 -2.25734922692269 -0.83516474247425
 6  2.12069115811581  0.62704476847685 -0.19027970797080
 6 -1.61990395039504  0.06802469146915 -0.19434338533853
 6  0.68483531253125  0.72939575357536 -0.03865253725373
 6 -0.27528739873987 -0.29008660866087 -0.26536750675068
 1  13.14896347634763 -0.83596700680068  1.74395008400840
 1  12.91357485648565 -2.44497771187119  1.65885356935694
 1 -14.47475044804481 -0.78359580148015  0.90855177617762
 1 -14.17889138413841 -0.24256212811281 -0.47927978397840
 1  13.08128913591359 -2.24374368146815 -1.08273883188319
 1 -13.06741717371737  1.29684366646665  1.91129886388639
 1  13.92832741974197  0.44021659955996 -0.62769795079508
 1  13.52705826282628 -0.49325468256826 -2.10135286628663
 1 -13.35635084408441  2.32897795789579 -0.95245798879888
 1 -12.31823779677968  2.90882590269027  0.35519655565557
 1  11.20007269626963 -2.08576700570057  2.99108380438044
 1  9.68088641564156 -1.07256705570557  2.48622537753775
 1  11.15587932993299 -0.29795866296630  2.76504989098910
 1  10.86838310131013 -2.78853362736274 -0.65094177717772
 1  10.97608661156116 -3.63929257225723  0.96721616161616
 1  9.55160247724772 -2.58358966696670  0.51171789278928
 1 -12.04272595859586 -0.33769626352635  2.33357365436544
 1 -10.93855669466947 -1.68436097999800  2.20050383438344
 1 -12.88941983498350 -1.88140556045605  2.43858443844384
 1 -13.92073252225222 -2.66989568546855 -0.05313718271827
 1 -11.92363759875988 -3.17958454735474  0.14989788778878
 1 -12.80964882388239 -2.22935212711271 -1.29575231723172
 1  8.79811171417142 -0.21684609560956  0.39736685768577
 1 -10.28145291029103 -2.05818288218822 -0.65486928892889
 1  10.56229752175217  1.20585525552555 -2.27325938493849
 1  12.05213104210421  2.08919986288629 -1.47356296429643
 1  12.43941561156116  0.96009686458646 -2.67873056205620
 1 -10.99408380938094  2.53051861596160 -2.12604332533253
 1 -9.70223620162016  1.45271929102910 -2.02757872487249
 1 -10.04144832883288  2.58225087918792 -0.64925808180818
 1  14.86687581558156 -2.90782610971097  0.30802908290829
 1 -15.23266795979598  1.65610291039104  1.77619871587159
 1  10.14443036203621  2.46198310631063 -0.24792796779678
 1 -8.75682041804180  0.55008961006101  0.14311368536854
 1  9.07629531653165  4.21704508650865  0.44730057105711
 1  7.01667805480548  4.27310217121712  0.26752040604060
 1  7.76731599159916  3.67635870387039  1.76431326932693
 1 -8.60135292929293 -3.21518617651765 -0.19109439843984
 1 -7.69641401240124 -2.66969697259726 -2.13673556255626
 1 -6.74973074507451 -3.31436597649765 -0.62087752175217
 1  6.85739159415942  0.47802101710171 -0.61073894889489
 1 -6.48023499949995  0.37362485758576  0.08198307330733
 1  5.14350205520552  2.98048372037204  0.72913942294229
 1 -4.89855032603260 -2.21560923892389 -0.69587573757376
 1  4.54236742974298  0.24306905290529 -0.50003207120712
 1 -3.99017042104210  0.66765613761376 -0.18324704370437
 1  2.89063469146915  3.45342723272327  1.19622286328633
 1  1.52792105310531  3.14369535153515  0.08475307730773
 1  3.39374475447545  3.58242486748675 -0.27017007500750
 1 -3.02893400840084 -2.92812510451045 -0.24477214221422
 1 -2.82439115211521 -2.43581064306431 -1.87928667066707
 1 -1.45987637263726 -2.72847039703970 -0.79080762376238
 1  2.22463382638264 -0.50650393139314 -0.50692690469047
 1 -1.94248887188719  0.98036628062806 -0.14574848184818
 1  0.42044234323432  1.71609703670367  0.26879888988899
 1  0.14866665166517 -1.09896006000600 -0.70095176917692

