%nproc=4
%Mem=2GB
# td=(NStates=1) CAM-B3LYP/6-31G(d,p) 

TD

0 1
 8  14.77567309230923 -2.10424335743574 -0.44112103510351
 8 -14.69819488348835  2.07264256935694  1.05691522252225
 6  11.25000734673467 -1.36233878597860  0.98560472147215
 6 -12.42501766576658 -0.90453207110711  0.57102074607461
 6  12.82498606460646 -1.65686498259826  0.92884777677768
 6 -13.70237695669567 -0.10462848274827  0.62623543554355
 6  13.39357739673967 -1.83146546864686 -0.47866141114111
 6 -13.53583287628763  1.26104476557656  0.84366561756176
 6  10.96343567056706 -0.25881350835084  0.01731843884388
 6 -11.27838420242024 -0.17880888778878 -0.25475315131513
 6  13.28959945094509 -0.41500998609861 -1.07263001700170
 6 -12.67365980398040  1.99484249134913 -0.30188954195420
 6  11.83581945094510  0.12787317021702 -0.95904854785479
 6 -11.49544013901390  1.10727735683568 -0.60522251825182
 6  10.89422046304630 -0.95873131413141  2.38364174817482
 6  10.44070469046905 -2.58843661166117  0.56039942994299
 6 -11.93168497449745 -1.27256694859486  2.00246637763776
 6 -12.65051154615461 -2.30942216411641 -0.20410914891489
 6  9.66044128512851  0.30806975997600  0.20254421442144
 6 -10.13166873887389 -0.95591833373337 -0.56781806680668
 6  11.61664754475447  1.27870304420442 -1.94184617461746
 6 -10.56116440444044  1.85701517861786 -1.60639752975298
 6  9.37801170617062  1.64056029902990  0.18343498349835
 6 -8.82670406740674 -0.50110205910591 -0.37460256225623
 6  7.98482758775878  2.17916389938994  0.30162093709371
 6 -7.71870990499050 -1.29694802270227 -0.56000216921692
 6  7.96354813881388  3.62281113611361  0.61670585458546
 6 -7.88089638663866 -2.70807038393839 -1.02550123512351
 6  6.91798176917692  1.49843878487849 -0.02296478147815
 6 -6.36969966696670 -0.76550481238124 -0.44708363336334
 6  5.63783449744975  1.97085132313231  0.18099506850685
 6 -5.12571111711171 -1.29141621452145 -0.53537041504150
 6  4.51829061506151  1.15504169816982 -0.03403548854885
 6 -3.96848814581458 -0.57919014301430 -0.14397721272127
 6  3.18469596059606  1.64543893489349  0.13792790879088
 6 -2.62328778477848 -0.99734981398140 -0.23147150215021
 6  2.82552411941194  3.03331102310231  0.45332299029903
 6 -2.19145791379138 -2.37161065306531 -0.74098532453245
 6  2.03488257725773  0.72743480748075  0.02983230323032
 6 -1.62166412641264 -0.03278538953895 -0.04466841784178
 6  0.69358618761876  0.95890870487049  0.04791611961196
 6 -0.23808367836784 -0.15202280228023 -0.22321329132913
 1  13.41878045804580 -0.73404681478148  1.45361105010501
 1  12.77220071907191 -2.57301051515152  1.77960564456446
 1 -14.37639061206121 -0.39057649954996  1.33218413941394
 1 -14.17435093009301 -0.14598247014701 -0.32259411541154
 1  12.85853686068607 -2.66840614771477 -1.01715227322732
 1 -12.82947337933793  1.41596557865787  1.66402413641364
 1  14.02161674867487  0.19224180208021 -0.58006318731873
 1  13.61425698269827 -0.50579593669367 -2.02000473147315
 1 -13.26952216121612  2.07409246934693 -1.32129487248725
 1 -12.24816078907891  2.94130915101510  0.28147918391839
 1  11.34629731873187 -1.69243767276728  2.98657335333533
 1  9.83227155415542 -0.96850664966497  2.63817057205721
 1  11.30309405140514  0.09469060196020  2.46108949494950
 1  10.78317458045805 -3.14236901090109 -0.40765744874487
 1  10.58116711961196 -3.40333897689769  1.36167560756076
 1  9.43182049904991 -2.10283159115912  0.70272699369937
 1 -11.63554524052405 -0.46545903980398  2.54707500450045
 1 -10.95576841584158 -1.88359090299030  1.83708749274928
 1 -12.47404829782978 -2.09118653855385  2.37068764876488
 1 -13.49952040104010 -2.67685638153815  0.06215434643464
 1 -11.84263949894990 -3.01295788468847  0.06396929492949
 1 -12.64171203020302 -2.18380757265727 -1.28412115411541
 1  8.91532343534354 -0.36556096709671  0.47421454245425
 1 -10.13083784878488 -2.18319538343834 -0.80843464546455
 1  10.52259355135513  1.45061973197320 -2.00643270227023
 1  12.09967579657966  2.26267721062106 -1.70196580458046
 1  12.03914558455845  1.09684053895390 -2.79095178417842
 1 -11.07422182318232  2.61333689778978 -2.30096081708171
 1 -9.89977595559556  1.14129814891489 -2.06172213921392
 1 -10.00046423042304  2.57599025312531 -0.88240139613961
 1  14.99848897689769 -2.84230955805581  0.26490477047705
 1 -15.35512020502050  1.94748204830483  1.88745984198420
 1  10.19729564856486  2.19611651965197  0.23662048704871
 1 -8.39562429842984  0.57875247634763 -0.29631025702570
 1  8.93449113611361  4.06327970997100  1.03549939093909
 1  7.55024141114111  4.28880374137414 -0.16227257325733
 1  7.13213247324732  3.89846091409141  1.49661649964997
 1 -8.33206600060006 -3.31888654655465 -0.17692298129813
 1 -8.41619599059906 -2.98441844474447 -1.94781667066707
 1 -6.91614738673867 -3.23747828772877 -1.35744117811781
 1  6.99302515751575  0.57240045504550 -0.39957783278328
 1 -6.25609258525853  0.29481697679768 -0.22566769176918
 1  5.46996470147015  3.12397806980698  0.37766427542754
 1 -4.97250772177218 -2.29981765976598 -1.07018316831683
 1  4.49800299329933  0.26305105110511 -0.29191125912591
 1 -4.18804020802080  0.46572594459446  0.10648192919292
 1  3.15071069906991  3.43095498549855  1.49614285528553
 1  1.74205246624662  3.15617659965997  0.37576217821782
 1  3.28228360836084  3.81453807880788 -0.39967302530253
 1 -3.36070718571857 -3.08706099809981 -0.56656432143214
 1 -2.00863957695770 -2.59744680668067 -2.10128887088709
 1 -1.07732811781178 -2.64322187218722  0.09848130513052
 1  2.53863522652265 -0.36209949094909 -0.25420163216322
 1 -2.04819944294429  0.90827907190719  0.10666675967597
 1  0.19750004900490  1.99031445844584  0.09251126112611
 1  0.35093687868787 -1.10696086008601 -0.71360303430343

