%nproc=4
%Mem=2GB
# td=(NStates=1) CAM-B3LYP/6-31G(d,p) 

TD

0 1
 8  14.67954347934794 -2.21258419151915 -0.26446336933693
 8 -14.72854791879188  1.89137444254425  1.15898542954295
 6  11.20283262926293 -1.38524107620762  1.15772193319332
 6 -12.33595875987599 -0.95156677457746  0.77142078607861
 6  12.70248381438144 -1.86424572067207  1.06054094609461
 6 -13.61954867386739 -0.25485350525053  0.84974778677868
 6  13.37682572157216 -1.80255257735774 -0.26059960496050
 6 -13.44994428742874  1.17326598769877  0.99389064006401
 6  10.98220754775478 -0.21524915191519  0.12406911391139
 6 -11.26208257225723 -0.17458846574657 -0.10872854885489
 6  13.27925841684168 -0.55005349044904 -0.82373512751275
 6 -12.68025046304630  1.77237024412441 -0.25767512051205
 6  11.91319718871887  0.11566194909491 -0.75034767776778
 6 -11.40112070707071  1.11219784888489 -0.55900789678968
 6  10.76944798579858 -1.07465290629063  2.52284566856686
 6  10.37526814681468 -2.65373314131413  0.61014440444044
 6 -11.66924873087309 -1.35527521942194  2.11218734973497
 6 -12.63174966996700 -2.37179840174017  0.10779204120412
 6  9.60593583458346  0.38446739973997  0.05921988198820
 6 -10.02437800980098 -1.00918366026603 -0.42000328532853
 6  11.59389526952695  1.12385755965597 -1.88107009700970
 6 -10.57815610361036  1.77323680078008 -1.48408529852985
 6  9.32054595959596  1.73692993599360  0.02053869386939
 6 -8.80858225522552 -0.50370231913191 -0.46479158115812
 6  8.02248135313531  2.23232921592159  0.17270804580458
 6 -7.63064109810981 -1.21500982888289 -0.70029619861986
 6  7.84667645164516  3.64897375237524  0.58646283028303
 6 -7.68620691769177 -2.57298687558756 -0.99988867386739
 6  6.89083905490549  1.46768570957096 -0.07381986698670
 6 -6.32108480548055 -0.59514777667767 -0.50614953995400
 6  5.60967168116812  1.99461369936994  0.17019398839884
 6 -5.10333887988799 -1.17760483338334 -0.87492437043704
 6  4.50093887988799  1.19722591659166 -0.03077516251625
 6 -4.02166346334633 -0.38550077407741 -0.66203901890189
 6  3.15139263026303  1.72533692469247  0.12632674867487
 6 -2.62564802080208 -0.70246032503250 -0.75304365936594
 6  2.83385495249525  3.05216290829083  0.53027068506851
 6 -2.29115788378838 -2.21229472147215 -1.13419464546455
 6  2.06237532653265  0.82752481648165 -0.15906658665867
 6 -1.63841580158016  0.26935482448245 -0.42889684068407
 6  0.64992182118212  1.00696351035103 -0.16541521352135
 6 -0.29261913191319  0.07737013701370 -0.37114808480848
 1  13.13610219021902 -1.08477188728873  1.82864855385539
 1  12.71838533753375 -2.89529274337434  1.47507519151915
 1 -14.18156112911291 -0.80302774467447  1.67890881188119
 1 -14.17366086108611 -0.51835970787079  0.07318546254625
 1  12.83849485648565 -2.68842814991499 -0.86760731873187
 1 -12.81913234523452  1.35127911001100  1.82161989598960
 1  14.04519910691069  0.19072165006501 -0.22024720572057
 1  13.64678023502350 -0.56949230633063 -1.77745047604760
 1 -13.44564977397740  1.73516857695770 -0.90650339333933
 1 -12.56226219921992  2.95002002210221  0.10210124612461
 1  10.87096978597860 -1.91068949794980  3.22878757475748
 1  9.73939226622662 -0.87232703170317  2.56898365336534
 1  11.31378512051205 -0.21646051315132  2.72538592459246
 1  10.78079434243424 -3.11690646464647 -0.22945962896290
 1  10.47851685458546 -3.67287593059306  1.30524996499650
 1  9.10856817381738 -2.36142745074508  0.55570229122912
 1 -11.53913559955996 -0.41456395029503  2.82671296829683
 1 -10.82268510751075 -1.90129267316732  2.07495127912791
 1 -12.24371526452645 -2.10301772167217  2.78243882388239
 1 -13.28824927392739 -2.96157485338534  0.82611074207421
 1 -11.58294352935294 -3.05389197809781 -0.06421352335234
 1 -13.46639449844984 -2.16595578747875 -0.86196893889389
 1  8.83674557755776 -0.35850026102610  0.34481160216022
 1 -10.19866463146315 -2.06926399029903 -0.66330013201320
 1  10.43794508650865  1.36833150315032 -1.88654071307131
 1  12.19618544754475  2.11490243314331 -1.61346695469547
 1  11.84774644464446  0.78525938083808 -2.86893958295830
 1 -11.31052545354535  2.45126069016902 -2.21456217721772
 1 -9.96472245024502  1.21578559765977 -2.13986995399540
 1 -9.95273945794579  2.71743439753975 -0.94650780678068
 1  14.74949407740774 -2.99023435053505  0.25350363036304
 1 -15.18305299829983  1.44089138923892  1.76977807380738
 1  10.26430234923492  2.39039594759476  0.11724854985499
 1 -8.93458819481948  0.58125272637264 -0.12019264526453
 1  8.95739342634263  4.24143752575258  0.67177301830183
 1  7.06948333533353  4.18706356735674  0.02948660266027
 1  7.80670993099310  3.50797186518652  1.78478531653165
 1 -8.21865465946595 -3.29794445234523 -0.06075136413641
 1 -8.41033540454045 -2.77519752265226 -1.87754964396440
 1 -6.73346911891189 -3.12586712661266 -1.10542597659766
 1  7.00779663466347  0.39868308330833 -0.28405628062806
 1 -6.50284726072607  0.54474196929693 -0.27774289928993
 1  5.36181388638864  3.01769744174417  0.47833434243424
 1 -5.08105857685769 -2.30078775677568 -1.01285743574357
 1  4.88109130213021  0.31754650065006 -0.26867893589359
 1 -4.22028343234323  0.60400977297730 -0.16824554355436
 1  3.67239286728673  3.24672656265627  1.24683792479248
 1  1.90164842584258  3.12962394439444  1.34907950995100
 1  3.02017739773977  3.74784140914091 -0.48083114111411
 1 -2.24793590859086 -2.64496678867887 -0.15120278527853
 1 -3.31817053005300 -2.39885694769477 -1.85187392939294
 1 -1.21821220622062 -2.28601615161516 -1.47761630463046
 1  2.44812617561756 -0.21378465946595 -0.39890610261026
 1 -1.93875849884989  1.17934617861786 -0.10127403440344
 1  0.45784608360836  1.96609203620362 -0.03282127212721
 1 -0.15036325132513 -0.92967313131313 -0.84855652965297

