%nproc=4
%Mem=2GB
# td=(NStates=1) CAM-B3LYP/6-31G(d,p) 

TD

0 1
 8  14.89646517151715 -2.10187312041204 -0.38807573057306
 8 -14.89798486248625  1.74902020712071  0.97307683868387
 6  11.37961030703070 -1.38930148224823  1.05685184618462
 6 -12.37363252725273 -0.95196681458146  0.45230887488749
 6  12.84436800280028 -1.68090738683868  1.03856874887489
 6 -13.77009372837284 -0.28732675257526  0.46037884988499
 6  13.49000703970397 -1.82773509560956 -0.39327287228723
 6 -13.64175346834683  1.20538920002000  0.90263151415142
 6  10.99631895889589 -0.24516214321432  0.06142284928493
 6 -11.30247661166117 -0.13245425232523 -0.27764544054405
 6  13.27063755475547 -0.52503098819882 -1.17146990099010
 6 -12.83374581258126  1.79729273637364 -0.14292364536454
 6  11.91342721172117  0.11184156705671 -0.93758640164016
 6 -11.58401899689969  1.12704933403340 -0.59730172617262
 6  10.97167820882088 -0.83933937493749  2.41089447344734
 6  10.56304692469247 -2.65171293929393  0.80213360336034
 6 -11.86384819081908 -1.38145783768377  1.81436756775678
 6 -12.70877737273727 -2.32394361626163 -0.37950668866887
 6  9.66140138113811  0.32246119911991  0.13459741974197
 6 -10.14179975197520 -0.85289803170317 -0.48218950395040
 6  11.80131601160116  1.14829000290029 -2.03586557655766
 6 -10.68195648364836  2.11239071617162 -1.42277916791679
 6  9.39591349634964  1.62756899989999  0.07747438743874
 6 -8.83741513851385 -0.39673162206221 -0.34267936993699
 6  8.09155826082608  2.18851483448345 -0.01486071107111
 6 -7.62583061706171 -1.18602693059306 -0.55008117711771
 6  7.93838562256226  3.67864671967197  0.20836502050205
 6 -7.80812910991099 -2.64556413331333 -1.02991167616762
 6  6.88825879687969  1.45789473047305 -0.03841632663266
 6 -6.49893259025903 -0.59160742264226 -0.35513443844384
 6  5.59658037203720  1.97826206420642  0.19917688668867
 6 -5.20581912791279 -1.15143221612161 -0.56447332533253
 6  4.49299808580858  1.20462665666567 -0.08813089808981
 6 -3.99623092009201 -0.38676090009001 -0.24091690669067
 6  3.21631912291229  1.50452484348435  0.27954207020702
 6 -2.66929238523852 -0.78662874187419 -0.22698105310531
 6  2.98165973297330  2.95580327232723  0.71588924692469
 6 -2.36032480048005 -2.19877336933693 -0.83064429042904
 6  2.11779086808681  0.56813887788779  0.10859017901790
 6 -1.60691265126513  0.11353924292429  0.01359740874087
 6  0.69858668766877  0.84388720272027  0.19119044704470
 6 -0.23998386838684 -0.13971157115712 -0.03924489448945
 1  13.42275085508551 -0.85176858695870  1.44779046804680
 1  13.22243574257426 -2.49354256835684  1.67965564956496
 1 -14.40537351035104 -0.84425186708671  1.32937385838584
 1 -14.35696919191919 -0.37122499439944 -0.35421727772777
 1  13.02818382538254 -2.79431873897390 -1.05841639963996
 1 -13.13359379137914  1.19851383348335  1.83725145914591
 1  14.12083667066707  0.07042962086209 -0.61150633163316
 1  13.52627818481848 -0.40647600470047 -2.30769350035003
 1 -13.48119332833283  1.94902996309631 -1.17236997999800
 1 -12.59158513151315  2.76943196329633  0.17192822882288
 1  11.16928961796180 -1.51682011101110  3.24154885088509
 1  9.89315764276428 -0.83456325532553  2.53188994399440
 1  11.40549429142914  0.13700483338334  2.78879226522652
 1  10.71440770377038 -2.99656443044304 -0.37159384238424
 1  10.82595159805980 -3.46427507050705  1.48351779177918
 1  9.52004932193219 -2.71817312531253  0.88435515651565
 1 -11.94829651565157 -0.62385487938794  2.42934323132313
 1 -11.00723356235624 -1.91920446434643  1.77194097809781
 1 -12.55588648164816 -2.12808022792279  2.28227880788079
 1 -13.60028047704770 -2.66788548444844  0.03856198719872
 1 -11.88097333233323 -2.92026861576158 -0.25251235323532
 1 -12.91884974397440 -2.08455764766477 -1.34390713271327
 1  8.77998990199020 -0.32673708470847  0.35656277727773
 1 -10.16028079307931 -1.97447451135113 -0.70568437043704
 1  10.63588488048805  1.35057972797280 -2.27300935993599
 1  12.33213904290429  2.08272921582158 -1.81251685968597
 1  12.27826949694970  0.62137299219922 -2.98581127012701
 1 -11.32256665766577  3.00789635373537 -1.98318903990399
 1 -10.07690366836684  1.50740475957596 -2.00033600060006
 1 -10.00936512051205  2.76251890599060 -0.86678983498350
 1  15.12466159415941 -2.97125245234523  0.06727500750075
 1 -15.48072276527653  1.60144744484448  1.96438753475348
 1  10.12082800180018  2.35718262626263 -0.17356053105311
 1 -8.59538427442744  0.59193379447945 -0.03458408440844
 1  8.81272895989599  4.17913129512951  0.27257309830983
 1  7.48876526352635  4.31181604260426 -0.58908525452545
 1  7.48001726172617  3.80028109610961  1.03442028002800
 1 -8.43853664766477 -3.10118477637764 -0.13253854285429
 1 -8.42090646164617 -2.70076007890789 -1.88511040004000
 1 -6.80529630163016 -3.14249878977898 -1.03538897289729
 1  6.92393824882488  0.41049426442644 -0.68603647864786
 1 -6.39819679567957  0.58210570567057 -0.18129325432543
 1  5.35301300630063  3.05985165716572  0.59229573857386
 1 -5.03020349134913 -2.24904258225823 -0.57680383038304
 1  4.66020921392139  0.20453519951995 -0.41458352635264
 1 -4.33750515451545  0.66455582758276 -0.12666138513851
 1  3.73115874387439  2.95087697769777  1.64102734373437
 1  1.89008726972697  3.13494447644764  0.93658826082608
 1  3.37611299129913  3.62538916391639  0.00412735473547
 1 -2.97466858185819 -2.92917520952095 -0.00417808280828
 1 -3.03869258225823 -2.36101316331633 -1.86155489748975
 1 -1.37433781878188 -2.62297984798480 -0.93353189618962
 1  2.52280364336434 -0.38453173417342 -0.19497570957096
 1 -1.83526814981498  1.19118736273627  0.20764685768577
 1  0.57915821482148  1.84219964696470  0.31887389738974
 1  0.27339912491249 -1.13128329232923 -0.35797747174718

