%nproc=4
%Mem=2GB
# td=(NStates=1) CAM-B3LYP/6-31G(d,p) 

TD

0 1
 8  14.49474499949995 -2.41461439453945 -0.25434235723572
 8 -14.71246631063106  1.76821212631263  1.41116064706471
 6  11.13633597959796 -1.42670522262226  1.22463862486249
 6 -12.28194335833583 -1.05335695359536  0.72154579857986
 6  12.67986155215521 -1.88650794689469  1.17814270627063
 6 -13.58114483348335 -0.43107112701270  0.84069688168817
 6  13.17673571257126 -1.99061138323832 -0.19315286028603
 6 -13.44034332733273  1.07385604670467  1.17996924792479
 6  10.92771209820982 -0.24861248824882  0.12993970097010
 6 -11.23586995099510 -0.28829983688369 -0.22291996799680
 6  13.22970346134613 -0.60583906900690 -0.79883263726373
 6 -12.80482292029203  1.75655866296630  0.11698234523452
 6  11.82689855885589  0.09168955185519 -0.67449009200920
 6 -11.52239283428343  1.00916754585459 -0.47233922992299
 6  10.71978301930193 -0.97921336233623  2.60426381038104
 6  10.25074569456946 -2.60948871687169  0.78530192019202
 6 -11.70126193219322 -1.36172586448645  2.05220135113511
 6 -12.45769226422642 -2.41712293419342  0.01202246424642
 6  9.59369461046104  0.36975592859286  0.20487444744474
 6 -9.99262483448345 -0.91212395429543 -0.49981126612661
 6  11.65722160216022  1.10764593849385 -1.76106809680968
 6 -10.71295958395839  1.85522499959996 -1.34014090409041
 6  9.36954085908591  1.75568181118112  0.09832647264726
 6 -8.72994439143914 -0.47631958085809 -0.45920102210221
 6  7.98468757375738  2.36695267826783  0.06940771577158
 6 -7.46426446044604 -1.10141846974697 -0.77323349234923
 6  7.99469125312531  3.70244909990999  0.55484966896690
 6 -7.67102539953995 -2.46665624252425 -1.28406709170917
 6  6.95096506750675  1.61864080508051 -0.00818330333033
 6 -6.37604030103010 -0.50034829672967 -0.59430835583558
 6  5.65019573357336  2.07465170317032  0.01490845984598
 6 -5.05997454345435 -0.97159423232323 -0.90903778177818
 6  4.48902768876888  1.30349654365437 -0.14828691369137
 6 -3.96223752075208 -0.22413463746375 -0.64981779677968
 6  3.15202269326933  1.65638002900290 -0.01160704470447
 6 -2.56810226622662 -0.63047312631263 -0.74880323532353
 6  2.70352191919192  3.09878757075708  0.22501015901590
 6 -2.32622139013901 -2.17013050505051 -0.92390361636164
 6  2.14293338233823  0.72389445344534 -0.35754643464346
 6 -1.55203716371637  0.14494238323832 -0.52162611361136
 6  0.75500232923292  0.97915072907291 -0.35181385338534
 6 -0.17011688168817 -0.10222782278228 -0.37222819281928
 1  13.25905448544854 -1.08836224632463  1.61518720772077
 1  12.71523502250225 -2.79882309640964  1.62466015001500
 1 -14.39542251525152 -1.02995043694369  1.73342426342634
 1 -14.01454494949495 -0.47702557445745 -0.22364422042204
 1  12.74462546954696 -2.68786809390939 -0.83676423442344
 1 -12.92134256625662  1.04299828192819  2.05273300730073
 1  14.05303989098910 -0.11841926402640 -0.31589677067707
 1  13.57356291329133 -0.45977133423342 -1.65740847184718
 1 -13.43486869586959  1.78667372747275 -0.77703044604461
 1 -12.60457643064306  2.86625164526453  0.37069810581058
 1  10.81863455245525 -1.95666409540954  3.26729142514251
 1  9.67797612461246 -0.50399019801980  2.52600935593559
 1  11.35603934593459 -0.02684155125513  2.90513389938994
 1  10.61530779377938 -3.27149192319232 -0.40911759475948
 1  10.47582658555855 -3.35872451545155  1.61973141314131
 1  9.14932224922492 -2.41011231923192  1.02963968496850
 1 -11.70860254625462 -0.19351184508451  2.45069536653665
 1 -10.70676351535154 -1.92665520942094  2.16785056905691
 1 -12.38205909890989 -2.01821924182418  2.72117269726973
 1 -13.50065051405140 -2.86924562046205  0.31084921592159
 1 -11.49665490049005 -2.98684527342734  0.19555245324532
 1 -12.65869372837284 -2.35995518741874 -1.17000974297430
 1  8.75768767176718 -0.16547095809581  0.18741586258626
 1 -10.19792455745575 -1.83599066296630 -0.81458526052605
 1  10.63351464346435  1.18154282428243 -2.22065412441244
 1  12.06517234623462  2.11220216311631 -1.67170277827783
 1  12.29212088208821  0.75558641354135 -2.59800248924892
 1 -11.30295469646965  2.54465002910291 -1.96653737473747
 1 -10.02827880588059  1.26227024612461 -2.05429139613961
 1 -10.12555673967397  2.46266892099210 -0.70930408640864
 1  14.42965209320932 -3.34917024412441  0.31400968096810
 1 -15.15591028402840  1.65519281938194  2.28674977097710
 1  10.12084800380038  2.43474038203820 -0.01064423942394
 1 -8.72495723172317  0.46909151025102 -0.01007163316332
 1  8.89480716771677  4.27940132213221  0.76686252725273
 1  7.58982536953695  4.56522138313831 -0.19794614061406
 1  7.18113737373737  3.72095316331633  1.48726556455646
 1 -7.76163895789579 -3.21055571347135 -0.38346363536354
 1 -8.51266563756376 -2.67439744264427 -1.86266815581558
 1 -6.68626439843984 -2.79100364026403 -1.69693512751275
 1  6.87636349134914  0.67926114111411 -0.16912478747875
 1 -6.33897087308731  0.34069156425643 -0.30200532553255
 1  5.35259296429643  3.18618429042904  0.13112962196220
 1 -5.03581405240524 -1.95834351235124 -1.15567171717172
 1  4.78296148914892  0.29272401840184 -0.90630269826983
 1 -3.92906431043104  0.96527589958996 -0.51864058305831
 1  3.04892052005200  3.36638852885289  1.40211345234523
 1  1.58181644264426  3.21182216421642  0.32246684868487
 1  3.18408378837884  3.92111873687369 -0.34074713271327
 1 -2.41534264926493 -2.83181547354736  0.04706704170417
 1 -2.91105981898190 -2.51087814981498 -1.84530327232723
 1 -1.23691407640764 -2.24625217521752 -1.36566510951095
 1  2.52538390139014 -0.20692397339734 -0.88468468046805
 1 -1.86442106510651  1.13344158815882 -0.10681458845885
 1  0.48186848584859  2.01935736273627 -0.01903989398940
 1  0.22452423742374 -1.18632879687969 -0.51660333433343

