%nproc=4
%Mem=2GB
# td=(NStates=1) CAM-B3LYP/6-31G(d,p) 

TD

0 1
 8  14.74351987698770 -2.23157609070907 -0.27062398539854
 8 -14.70082514651465  1.88976428152815  1.05343487448745
 6  11.16207855385538 -1.41763431553155  1.09458561956196
 6 -12.51863702770277 -1.16469808770877  0.33178682268227
 6  12.69955352135213 -1.82476177227723  1.06810170217022
 6 -13.73774049304931 -0.30805882578258  0.34384719671967
 6  13.29446748574857 -2.03660598269827 -0.28772231723172
 6 -13.51683097609761  1.12991165226523  1.00718196919692
 6  10.95127445444544 -0.22568019501950  0.03573028002800
 6 -11.23261962596260 -0.23196420332033 -0.24219189518952
 6  13.13988447944794 -0.78970745584558 -1.07044979897990
 6 -12.66166860486049  1.88656166326633 -0.00709006200620
 6  11.82622849184919  0.08806918981898 -0.86351899489949
 6 -11.38296889188919  1.14403103220322 -0.40209220522052
 6  10.75636667766777 -1.07089253025303  2.49373275727573
 6  10.41856247624762 -2.73077084508451  0.68224161416142
 6 -12.04746655265527 -1.51576126802680  1.85774190519052
 6 -12.69490598559856 -2.40073129502950 -0.45046378437844
 6  9.58603384438444  0.36931588458846  0.24026798679868
 6 -10.00465603760376 -1.00106284818482 -0.43760504550455
 6  11.58620450045004  1.11505667956796 -1.92889487948795
 6 -10.40080836883688  1.89849932703270 -1.18114500450045
 6  9.39619352435244  1.70553679667967  0.04448108810881
 6 -8.71494289128913 -0.53866581548155 -0.28146324832483
 6  7.98714781978198  2.25633161616162  0.06139691469147
 6 -7.52671070507051 -1.30179850775078 -0.53970013901390
 6  7.98729051305131  3.70029888488849  0.49173335733573
 6 -7.65494379137914 -2.73035261216122 -0.92354103910391
 6  6.89169914091409  1.52603154415442 -0.13809629462946
 6 -6.37155985298530 -0.61504976687669 -0.24886381138114
 6  5.62617333133313  2.07058129612961 -0.02234526552655
 6 -5.04046259225923 -1.19681675457546 -0.41774865286529
 6  4.42382116811681  1.40017621162116 -0.07482956795680
 6 -3.91185248224822 -0.40741296529653 -0.23580639563956
 6  3.10296778777878  1.85131952295230 -0.06465234923492
 6 -2.51042649864986 -0.67698777777778 -0.47516587158716
 6  2.77413898089809  3.32381007300730  0.23810146814681
 6 -2.23420218821882 -2.05541903390339 -0.79354058005801
 6  2.08863795279528  0.85693775777578 -0.11774245424542
 6 -1.52157411741174  0.20219810881088 -0.16868081908191
 6  0.73191002000200  1.13677649164916  0.10487181518152
 6 -0.17069693969397  0.07261966196620 -0.26035700570057
 1  13.27722630263026 -1.19601301140114  1.76677236623662
 1  12.68769226822682 -2.79364257835784  1.69539722372237
 1 -14.45074804780478 -0.87480492239224  1.12275319631963
 1 -14.24341783678368 -0.01808968086809 -0.74814667066707
 1  13.10593160016002 -2.99866917401740 -0.94225478347835
 1 -12.94230466246625  1.05101908400840  2.02562029602960
 1  13.97934252125212  0.11983456135614 -1.16946212721272
 1  13.09162471947195 -1.24016937403740 -2.33976670767077
 1 -13.29338454745474  1.84884994509451 -0.94079682268227
 1 -12.37091306430643  2.95604062416242  0.40426146214621
 1  11.23494618361836 -1.92805123412341  3.09171386738674
 1  9.62121044804480 -1.06599639863986  2.41013776877688
 1  11.30014375637564 -0.17772663976398  2.80491387738774
 1  10.38049431243124 -2.97446222022202 -0.46115279827983
 1  10.82007101000100 -3.49069771277128  1.13024246424642
 1  9.39088640564056 -2.49418072607261  0.74322104310431
 1 -11.90138182418242 -0.64648714261426  2.49289958695870
 1 -11.15170800980098 -2.10598314221422  1.87021080508051
 1 -12.85866675967597 -2.33595101500150  2.29830041004100
 1 -13.60782123112311 -2.87504620052005 -0.22353422242224
 1 -11.91254648964897 -3.25683227212721 -0.10450755275528
 1 -12.81440929992999 -2.32180137203720 -1.57295003700370
 1  8.81821372437244 -0.12006641764176  0.56730385138514
 1 -10.13516828182818 -2.01425848974897 -1.17138094009401
 1  10.55940723272327  1.54357902790279 -1.94667672667267
 1  12.60212604160416  1.91639258215822 -1.77303291129113
 1  11.85367703770377  0.80519137403740 -2.99096178517852
 1 -11.11065546654666  2.28855441954195 -1.98634935593559
 1 -9.44670064806481  1.39483350245024 -1.62826879387939
 1 -10.10862504650465  2.87018967306731 -0.37210036603660
 1  14.79471859985999 -3.13354868196820  0.18883716371637
 1 -15.32007670067007  1.28770607070707  1.49033012901290
 1  10.18045396439644  2.60659756775678  0.10399722472247
 1 -8.57523225922592  0.50448504960496  0.14416379037904
 1  9.07287497449745  4.13584696669667  0.60890673167317
 1  7.35538192519252  4.20890575157516 -0.10603694969497
 1  7.46097535753575  3.81608267626763  1.40901773977398
 1 -8.44059685368537 -3.34501915981598 -0.31044633363336
 1 -8.01788615961596 -2.72921292419242 -1.98106999599960
 1 -6.72566833883388 -3.32043658355836 -0.70570600460046
 1  7.05220107510751  0.46028924392439 -0.41173904890489
 1 -6.30046702270227  0.33368086318632  0.27719259425943
 1  5.43901160616062  3.03460913291329  0.24207071607161
 1 -4.73126359735974 -2.11842952095210 -0.88304445444544
 1  4.46013920692069  0.34274902090209 -0.50822289028903
 1 -4.13103450745075  0.63748312031203  0.11829311031103
 1  2.89143477147715  3.33960585058506  1.42233547454745
 1  1.87263552455245  3.77614859685969 -0.03189858785879
 1  3.38802418241824  3.93505013001300 -0.44114717271727
 1 -2.24139525452545 -2.79564185618562 -0.09674733973397
 1 -2.61337005000500 -2.28347540954095 -1.76730547254725
 1 -1.13088347334734 -2.03752130213021 -1.19961850485049
 1  2.16918828182818 -0.29842312331233 -0.28592480448045
 1 -1.72096671967197  1.11721996599660  0.36660275327533
 1  0.26401670067007  2.09311473847385  0.45939794979498
 1  0.05979776477648 -0.76687685168517 -0.54848652265227

