%nproc=4
%Mem=2GB
# td=(NStates=1) CAM-B3LYP/6-31G(d,p) 

TD

0 1
 8  14.71022654765477 -2.12969590269027 -0.45796271927193
 8 -14.69999506350635  2.05283058815882  0.80328985998600
 6  11.25132747874787 -1.43897644974497  1.02615877687769
 6 -12.32207737173717 -0.91739335723572  0.62081572557256
 6  12.73645721172117 -1.69446874297430  0.98686357835784
 6 -13.68658537753775 -0.19547756765677  0.63293610561056
 6  13.31487952695270 -1.76996931903190 -0.48037158215822
 6 -13.48809810281028  1.34139280038004  0.80501175217522
 6  10.90776010301030 -0.22671029802980 -0.02415570857086
 6 -11.23204956895690 -0.20497150405041 -0.18405608160816
 6  13.24038452945294 -0.44924340944094 -1.08750150415042
 6 -12.64618705670567  1.84110711781178 -0.38232758575858
 6  11.85181105010501  0.17079746264626 -1.02036467946795
 6 -11.41727232223222  0.98740536963696 -0.72602459845985
 6  10.83424446544655 -0.91060650165016  2.42805618961896
 6  10.41266188618862 -2.65738350635064  0.46387977797780
 6 -11.99280108610861 -1.15009470137014  2.09852598359836
 6 -12.80961745674567 -2.35780700260026  0.13250451245124
 6  9.67630287128713  0.37933688668867  0.12923688368837
 6 -10.07742331433143 -1.06321906380638 -0.43631491649165
 6  11.53263914391439  1.23249842374237 -1.98542053205321
 6 -10.39317760576058  1.71831130823082 -1.62337922792279
 6  9.32567647264726  1.62217846084608  0.05683232323232
 6 -8.81299269626963 -0.53705565446545 -0.52980808280828
 6  8.05965507050705  2.30277626062606  0.23281405640564
 6 -7.56372440644064 -1.30266859475948 -0.56640280928093
 6  7.86904868886889  3.63604245924592  0.73766795079508
 6 -7.69170746774677 -2.72162173907391 -0.97067575257526
 6  6.87121709270927  1.49344828582858  0.04824233923392
 6 -6.38180087708771 -0.60579884178418 -0.42263118811881
 6  5.56933764776478  1.94561879987999  0.32860982998300
 6 -5.03948249424942 -1.08510558345835 -0.57906478447845
 6  4.38748753475348  1.16281247524752  0.01147906290629
 6 -3.88849014601460 -0.35681790579058 -0.23099591459146
 6  3.06327381838184  1.53627801880188  0.22640675667567
 6 -2.52686814281428 -0.83304338333833 -0.35799415441544
 6  2.78379994699470  3.02016970897090  0.71720937893789
 6 -2.30088885688569 -2.18731222322232 -0.99781100710071
 6  2.13585267426743  0.56675873987399  0.08330765076508
 6 -1.55348730873087  0.07771566056606 -0.12571652265227
 6  0.82425925492549  0.86519933393339  0.18602993099310
 6 -0.13097296729673 -0.12011961196120 -0.27433840384038
 1  13.30969954995500 -0.95733914401440  1.44443013201320
 1  13.06883038203820 -2.71517473157316  1.42405008900890
 1 -14.45012798579858 -0.48761620352035  1.32764368536854
 1 -14.21261475647565 -0.48421629352935 -0.33486534253425
 1  12.69153016001600 -2.49265857295730 -1.14609516751675
 1 -12.95525595759576  1.69465344744474  1.85476321032103
 1  13.98837342434243  0.17607018491849 -0.56442162316232
 1  13.51384694169417 -0.63839919701970 -2.11713444444444
 1 -13.41622683168317  1.77502256235624 -1.22333507650765
 1 -12.31566753975398  2.89220424052405 -0.18810777477748
 1  11.25658834783478 -1.81953038203820  3.02999769576958
 1  9.81373970097010 -0.67688748774877  2.77556431143114
 1  11.50664440644064 -0.18193706080608  2.73054644064406
 1  10.85760202320232 -3.07940271427143 -0.46787347034703
 1  10.52006100900090 -3.51107975097510  1.27547698769877
 1  9.37656497349735 -2.55699700770077  0.37017373837384
 1 -11.71063274927493 -0.25613810771077  2.71120141714171
 1 -11.17645048404841 -1.87177972187219  2.14627841184118
 1 -12.88728962196219 -1.78039545944594  2.58341892189219
 1 -13.63025347434743 -2.55391408730873  1.04120225122512
 1 -12.01710694569457 -2.92519910881088  0.33190608860886
 1 -13.34240209920992 -2.23475266716672 -0.78296103810381
 1  8.72005390839084 -0.20613502450245  0.53646076707671
 1 -10.39658442344234 -2.27928499239924 -0.59163296529653
 1  10.40613190519052  1.04209887988799 -2.31814387338734
 1  11.59477530653065  2.35557650055006 -1.66949255725573
 1  12.32856452645264  1.09314016891689 -2.97282997199720
 1 -10.90257465846584  2.30461602570257 -2.28959968096810
 1 -9.85746172417242  1.10762478157816 -2.37816378337834
 1 -9.65230941494149  2.40624327842784 -1.18043119911991
 1  14.60035916391639 -2.92392771987199  0.18226650665067
 1 -15.36131082408241  1.87858515861586  1.51193228922892
 1  10.12855877487749  2.27745465346535 -0.02222539753975
 1 -8.84137887388739  0.43138773987399 -0.20419104510451
 1  8.80990867786779  4.30136351835183  0.88242408340834
 1  7.28661504850485  4.11742660366037  0.00472412641264
 1  7.31138039803980  3.79354042204220  1.63422026002600
 1 -8.07193998799880 -3.30379503740374 -0.09280456945695
 1 -8.42560693169317 -2.91354135703570 -1.85910779977998
 1 -6.99123489548955 -3.35650018991899 -1.22679811381138
 1  7.04130998599860  0.41846506150615 -0.37002487748775
 1 -6.35010198619862  0.53138063316332 -0.05482060706071
 1  5.43358106310631  2.92635830783078  0.78459496849685
 1 -4.92812328332833 -2.12829050705070 -0.91168731873187
 1  4.42008520152015  0.12603734973497 -0.33849591759176
 1 -3.96560796479648  0.64151352335234  0.27756903790379
 1  2.78866449444944  3.09556144614462  1.90842408340834
 1  1.72381064206421  3.13222420442044  0.37507210921092
 1  3.63213859385939  3.60168679367937  0.15490243224322
 1 -2.56730784578458 -3.11600389238924 -0.36853451845185
 1 -2.76316502950295 -2.30368743074307 -1.99528827082708
 1 -1.29635002000200 -2.53208075807581 -1.20574911791179
 1  2.49063042604260 -0.48404168516852 -0.30476668866887
 1 -1.81560618361836  1.10579882388239  0.46072216521652
 1  0.53893419241924  1.90460588758876  0.57235924592459
 1  0.12746453145315 -1.03102326632663 -0.82099377337734

