%nproc=4
%Mem=2GB
# td=(NStates=1) CAM-B3LYP/6-31G(d,p) 

TD

0 1
 8  14.75862138713872 -2.36901983508351 -0.34648157115712
 8 -14.87798286228623  1.74564987008701  1.05292482348235
 6  11.27943028902890 -1.44678723082308  0.95297145814581
 6 -12.34749991399140 -1.03143476137614  0.48114175817582
 6  12.85414898089809 -1.75299459555956  1.10718561056106
 6 -13.72431915091509 -0.40188820872087  0.49954276627663
 6  13.36412445144514 -1.93282560466047 -0.27501104610461
 6 -13.60028932193219  1.13502216331633  0.87035828682868
 6  11.01951127812781 -0.26503413041304 -0.03457675067507
 6 -11.34098046204620 -0.24320532743274 -0.36081375737574
 6  13.22287277827783 -0.63164164926493 -1.04205695969597
 6 -12.90837327532753  1.71055406250625 -0.36477583058306
 6  11.88787465646565  0.06495687858786 -1.13080572357236
 6 -11.59944053905391  1.03174980408041 -0.66765876187619
 6  10.68654969596960 -1.17726316731673  2.36970035403540
 6  10.42809342934293 -2.59116688468847  0.46920031003100
 6 -11.90701250725072 -1.38726841874187  1.98224435543554
 6 -12.60098659365937 -2.56918814071407 -0.24263300130013
 6  9.68545378637864  0.30887984098410  0.22157611761176
 6 -10.03099867186719 -0.91276401830183 -0.48227951295130
 6  11.59851573157316  1.13632880678068 -2.05629761976198
 6 -10.76762505050505  1.83433291039104 -1.61530842084208
 6  9.43787769276928  1.62096833983398  0.07082372237224
 6 -8.81872326932693 -0.37212916181618 -0.42677777977798
 6  8.20579968496850  2.31270725372537  0.10620139513951
 6 -7.57852588658866 -1.08588691659166 -0.62253842284228
 6  8.15277706170617  3.76569542454245  0.37220140414041
 6 -7.61860015701570 -2.57265684258426 -0.76189487448745
 6  7.05696566756676  1.61035997699770 -0.00098258325833
 6 -6.45687838483848 -0.39589785168517 -0.43252217721772
 6  5.68159887388739  1.95374961296130  0.29416638563856
 6 -5.15796434243424 -1.09961703460346 -0.43511038903890
 6  4.51119990599060  1.25981217521752  0.06858477347735
 6 -4.02181347834783 -0.27818004200420 -0.26913972897290
 6  3.19403689468947  1.72991738273827  0.25572968896890
 6 -2.57429288528853 -0.70934101310131 -0.30421877687769
 6  2.86029759675968  3.12815050705070  0.80339799779978
 6 -2.34865363336334 -2.08151164316432 -0.67670889688969
 6  2.16314540354035  0.79921198519852  0.01793111311131
 6 -1.62881484148415  0.28400628962896 -0.09404335533553
 6  0.78136496549655  0.97912072607261  0.13621494949495
 6 -0.20268013801380  0.08721112111211 -0.08030900090009
 1  13.15804438443844 -0.93766717681768  1.60105579457946
 1  12.91327482648265 -2.73094630873087  1.61598928292829
 1 -14.19361233423342 -1.12293973587359  1.43781470247025
 1 -14.28657215221522 -0.35096296819682 -0.36370822682268
 1  12.66577758475848 -2.64027333443344 -0.96455701370137
 1 -12.88246867886789  1.14944892699270  1.94131186518652
 1  13.98834342134213  0.12519509740974 -0.68390357135714
 1  13.69685524252425 -0.85792114921492 -2.04639737073707
 1 -13.75012022102210  1.83783884398440 -1.17617036003600
 1 -12.57946391939194  2.87370239033903 -0.21294025802580
 1  11.03866655565557 -1.84357278627863  3.00377507350735
 1  9.66683501050105 -1.05631543054305  2.30662741774177
 1  11.08932267426743 -0.20467933503350  2.65591897789779
 1  10.77335359835984 -2.71409618361836 -0.45954263726373
 1  10.36796579947995 -3.52256089908991  1.00437987798780
 1  9.34267158415842 -2.39370067806781  0.03194991599160
 1 -11.67022870887089 -0.37679017291729  2.69363966096610
 1 -10.85529836883688 -1.83103564746475  1.91014479847985
 1 -12.62609350235024 -1.94390181008101  2.70620120012001
 1 -13.31799224822482 -2.95196389228923  0.53388151915192
 1 -11.87740297529753 -3.29631622052205 -0.31050815281528
 1 -12.96489434843484 -2.18516770867087 -1.33564630663066
 1  8.84347625062506 -0.31865627662766  0.47850497149715
 1 -10.11597636263626 -1.92096916081608 -0.75437923992399
 1  10.66581787378738  1.13742841284128 -2.13426548554855
 1  12.02589841884188  2.02884382728273 -2.18816442444244
 1  11.99268093809381  0.68439929482948 -3.02906559555956
 1 -11.45105950695069  2.41369693379338 -2.35537625862586
 1 -9.95859183718372  1.08062208130813 -2.16940290729073
 1 -10.08219240324032  2.78701135523552 -1.17880103610361
 1  14.79772890089009 -3.16843217031703  0.15102338233823
 1 -15.39677437043704  1.33929122922292  1.73050414641464
 1  10.20197611661166  2.38777568556856 -0.32615579057906
 1 -8.80406514251425  0.64787938903890 -0.31289191519152
 1  9.05401308830883  4.27336071807181  0.38856469746975
 1  7.61228761576158  4.27687254825482 -0.34869121512151
 1  7.47950721072107  3.98978004600460  1.29852669066907
 1 -8.03740653465347 -2.92072673057306  0.08787349834984
 1 -8.13059743074307 -2.96120612351235 -1.74696658565857
 1 -6.60530630263026 -3.11804634453445 -0.89910534453445
 1  7.12590844584459  0.42072528752875 -0.26291416641664
 1 -6.66707368336834  0.70521801690169 -0.30352547754775
 1  5.48695640064006  3.01163683568357  0.36314282328233
 1 -4.86814728572857 -2.18142582058206 -0.53406955695569
 1  4.65066825982598  0.16709145514551 -0.29662173017302
 1 -4.15540694469447  0.73943331533153 -0.24326304530453
 1  3.97431305930593  3.45198708870887  1.43989723072307
 1  1.74402266326633  3.29742072407241  1.45728033003300
 1  2.90139551955195  3.95303192819282 -0.51584464246425
 1 -2.92598371337134 -2.82675496749675  0.11562389738974
 1 -2.87216592959296 -2.27370443244324 -1.62239098109811
 1 -1.24289467446745 -2.33684123412341 -0.79131767476748
 1  2.66849821282128 -0.15582886388639 -0.30759697169717
 1 -1.76824144714471  1.45648389238924  0.11788788178818
 1  0.40066036503650  1.88726415341534  0.23565557555756
 1  0.08192997799780 -0.97720788478848 -0.34074574857486

