%nproc=4
%Mem=2GB
# td=(NStates=1) CAM-B3LYP/6-31G(d,p) 

TD

0 1
 8  14.77435296029603 -2.24192712581258 -0.31656857985799
 8 -14.86767183118312  1.82334763986399  0.94547407840784
 6  11.26136848284828 -1.41772432453245  0.95739190019002
 6 -12.44349951395139 -1.10618223612361  0.38072171617162
 6  12.81143470947095 -1.67395669176918  1.04076896889689
 6 -13.69455617461746 -0.31654967486749  0.49957276927693
 6  13.36066410541054 -1.82551487358736 -0.33601714671467
 6 -13.55516480948095  1.13607226832683  0.81510276127613
 6  10.91723105010501 -0.29001662866287 -0.09929322232223
 6 -11.30816718071807 -0.20052105900590 -0.14851252725273
 6  13.30988147914791 -0.58663714881488 -1.06333908790879
 6 -12.73762620062006  1.77403041014101 -0.23022237523752
 6  11.85411128012801 -0.01687130423042 -1.02238488148815
 6 -11.41850244524452  1.16844347344735 -0.52117411341134
 6  10.87772881388139 -0.97394283528353  2.35589897389739
 6  10.49389000900090 -2.71586935493549  0.68847223722372
 6 -11.96462826882688 -1.45661535343534  1.93188931993199
 6 -12.63957045204520 -2.41445266716672 -0.43105184318432
 6  9.62014725572557  0.25221417441744  0.13785774577458
 6 -10.09434500650065 -1.04470721262126 -0.45101638663866
 6  11.48873475347535  1.10647582148215 -2.06493848384839
 6 -10.48216650465046  1.91152062916292 -1.34211110111011
 6  9.31581548654866  1.55824206720672  0.11549818981898
 6 -8.74023542054205 -0.50053200210021 -0.35140024202420
 6  8.01644074907491  2.08307429042904  0.20629140414041
 6 -7.56121415541554 -1.16133446134613 -0.51856802580258
 6  7.99143092709271  3.51572042704270  0.61178536253625
 6 -7.55118341534153 -2.63230280718072 -0.89460814581458
 6  6.85103507450745  1.44427336833683  0.04296181118112
 6 -6.29381207820782 -0.54032229412941 -0.28139706470647
 6  5.54830554455446  1.99317355535554  0.11298826782678
 6 -4.99116766276628 -1.09270634353435 -0.44334121212121
 6  4.41837062306231  1.31757795179518 -0.12775486048605
 6 -3.97019831683168 -0.21521374537454 -0.31885470047005
 6  3.09339683068307  1.82008639963996  0.01733584958496
 6 -2.59702515851585 -0.76674675367537 -0.33291164616462
 6  2.79490105710571  3.20035772777278  0.43393105110511
 6 -2.37994676267627 -2.17734122612261 -0.65469669566957
 6  2.10455954495449  0.87960002400240  0.00041936193619
 6 -1.59982194219422  0.19412730173017 -0.16297024802480
 6  0.73341017001700  1.20620343434343  0.02995432343234
 6 -0.21076094609461  0.06736913691369 -0.02709367936794
 1  13.31524010401040 -0.75269867996800  1.32001769076908
 1  13.20689418841884 -2.51546476057606  1.62492017601760
 1 -14.41755472847285 -0.77184462636264  1.42392331333133
 1 -14.23410690569057 -0.32015988788879 -0.44688654465447
 1  12.63972497949795 -2.48667797489749 -0.85028558655866
 1 -12.76320675267527  1.30165414751475  1.68200593459346
 1  14.02692727972797  0.22290486838684 -0.63703888488849
 1  13.75007056405641 -0.73533889098910 -1.99600233123312
 1 -13.43036824582458  1.91144620472047 -1.13142588558856
 1 -12.39486545954595  2.83465848594859 -0.02291125512551
 1  11.11120380938094 -2.01625005400540  2.93602829882988
 1  9.63774210121012 -0.87596739573957  2.54263101810181
 1  11.48728247024702 -0.10813968106811  2.72090547654765
 1  10.57456371937194 -3.09860463446345 -0.47209389238924
 1  10.58805780868087 -3.61227987098710  1.39732917291729
 1  9.36348366536654 -2.62792410041004  0.86449317031703
 1 -11.87646933293329 -0.47419991389139  2.32416271327133
 1 -11.05316815581558 -1.88450099399940  1.69899368336834
 1 -12.66068696169617 -2.41585900580058  2.20520110011001
 1 -13.57570801980198 -2.77678637453745 -0.11071294029403
 1 -11.89403463846385 -2.97185377427743 -0.13840094209421
 1 -12.68156601560156 -2.23251244314431 -1.57754049604960
 1  8.81303320632063 -0.52210662166217  0.21617873887389
 1 -10.33074783978398 -2.04717178107811 -0.57146094809481
 1  10.44895618761876  1.19892456245625 -2.34465652465247
 1  11.88221405040504  2.09933087598760 -1.71251685968597
 1  12.19017068706871  0.87732858775878 -3.10232292129213
 1 -11.28971337233723  2.77627319141914 -1.79974069506951
 1 -10.01927790579058  1.21505552465247 -2.08342430943094
 1 -9.66274045804580  2.18293094719472 -0.69921307730773
 1  14.72589171717172 -2.95137046414641  0.35350363036304
 1 -15.21162585558556  1.70330763086309  2.02716381238124
 1  9.95780169916992  2.33903081108111  0.01867869286929
 1 -8.54350908690869  0.54279888098810  0.01924129812981
 1  9.08719640664066  3.95940932293229  0.85573141414141
 1  7.57150353735374  4.29551441244124 -0.20151649764977
 1  7.35852511251125  3.77853892189219  1.38894573257326
 1 -7.73306610061006 -3.32588724662466 -0.06670195919592
 1 -8.05314968596860 -2.89473947684769 -1.75974786378638
 1 -6.36362213421342 -2.88161270117012 -1.21870730473047
 1  6.93659951495150  0.35214842984298 -0.33195107010701
 1 -6.44711168716872  0.35783327842784  0.01081595659566
 1  5.55996370137014  2.95271094309431  0.57897440644064
 1 -4.89681015201520 -2.17522520052005 -0.55934208420842
 1  4.57977117011701  0.28918366436644 -0.60032210021002
 1 -4.00787219121912  0.80160953295330 -0.32012073107311
 1  2.77765339333933  3.19982187218722  1.62685592659266
 1  1.70539880088009  3.58167914991499 -0.07746314431443
 1  3.79631501150115  4.05590221522152  0.19793673567357
 1 -3.06752786778678 -2.76563885588559 -0.06175384038404
 1 -2.59476818981898 -2.63334039603960 -1.70171891389139
 1 -1.39637002200220 -2.67893544354435 -0.37891643464346
 1  2.42070343334333 -0.12564584558456 -0.02167837983798
 1 -2.06268089108911  1.17442568656866 -0.00751465846585
 1  0.23487378637864  2.20493592059206  0.28649065906591
 1  0.38029981498150 -0.99857002100210 -0.15748742274227

