%nproc=4
%Mem=2GB
# td=(NStates=1) CAM-B3LYP/6-31G(d,p) 

TD

0 1
 8  14.75187071207121 -2.16050898399840 -0.17048397139714
 8 -14.60537560156016  2.01474677977798  1.42651218221822
 6  11.27459980598060 -1.43754630673067  1.09608576957696
 6 -12.38709387338734 -1.05211682958296  0.63141678567857
 6  12.67352091809181 -1.79108840494049  1.17595248724873
 6 -13.64874159315932 -0.21539955985599  0.78473128512851
 6  13.37661570057006 -1.85860818291829 -0.16393993899390
 6 -13.31992128512851  1.22433109420942  1.09911116211621
 6  10.91370069706971 -0.35444307130713  0.11739844684468
 6 -11.33080944494449 -0.23198420532053 -0.17224490049005
 6  13.22113260426043 -0.49831831693169 -0.88172092609261
 6 -12.72520495849585  1.85375838293829 -0.15156450945095
 6  11.81829769876988  0.11012139503950 -0.74218686168617
 6 -11.46965756075608  1.05234186328633 -0.54909690569057
 6  10.75510655165517 -0.98483392439244  2.47543092709271
 6  10.42907352735273 -2.73312108010801  0.59820321032103
 6 -11.87838964496450 -1.33976366826683  2.13394952595260
 6 -12.64577107210721 -2.38687990989099 -0.09322806080608
 6  9.64611985298530  0.28947790079008  0.21377533753375
 6 -10.05275084708471 -0.98392113401340 -0.54233551855186
 6  11.59471535153515  1.21159633353335 -1.77155914591459
 6 -10.50436872487249  1.95781525862586 -1.34261115111511
 6  9.37055096009601  1.62773901690169  0.05271191119112
 6 -8.83968536553655 -0.55375732463246 -0.41563666566657
 6  8.07002610761076  2.28099408240824  0.21344211921192
 6 -7.62351038503850 -1.18138646654665 -0.76511268026803
 6  7.99158094209421  3.75733458845885  0.40017420142014
 6 -7.76870516751675 -2.64889446634663 -1.39538822382238
 6  6.93695366636664  1.62168110911091  0.05064257925793
 6 -6.40717341434143 -0.64936319821982 -0.39837876287629
 6  5.61155186918692  2.08735297329733  0.14921189018902
 6 -5.12165071107111 -1.24301137403740 -0.67139401740174
 6  4.44782356835684  1.28303449744974 -0.09849193419342
 6 -3.99930122712271 -0.50182240624062 -0.39834264926493
 6  3.13360085108511  1.76167055805581  0.05389950595060
 6 -2.64978043404340 -0.86502658165817 -0.58239659465947
 6  2.73282484948495  3.22709040104010  0.31796945494549
 6 -2.30114888288829 -2.33425691769177 -0.96886811281128
 6  2.13595268426843  0.78146021002100 -0.27801848184818
 6 -1.59834179417942  0.04375226422642 -0.42379633063306
 6  0.73577040604060  0.90215302930293 -0.24685335733573
 6 -0.29513938393839 -0.08503610361036 -0.50719168916892
 1  13.26820540054005 -1.03641705180518  1.64704039303930
 1  12.82085558455845 -2.66432964706471  1.65049273327333
 1 -14.27652062506251 -0.74420186208621  1.53189411041104
 1 -14.16865036003600 -0.16810468236824 -0.15282713871387
 1  13.02915392239224 -2.60624993209321 -0.82512307030703
 1 -12.62069250125013  1.37943192529253  2.07269500350035
 1  13.88738332533253  0.41603418131813 -0.72168734973497
 1  13.41948750575058 -0.68127348444845 -2.07512024302430
 1 -13.32396760576058  1.96546160626063 -0.94219696269627
 1 -12.46491246424642  2.84034905500550  0.08968000400040
 1  10.74585727472747 -2.00782921192119  3.06399109510951
 1  9.75805413241324 -0.42265206420642  2.45746250125012
 1  11.38670241224122 -0.18713758085809  2.81870525652565
 1  10.88981524452445 -3.14678945294529 -0.33839052205221
 1  10.30056905980598 -3.47209585258526  1.35537497749775
 1  9.35445276227623 -2.43459476747675  0.11388810981098
 1 -11.44598628462846 -0.49574206810681  2.49625992299230
 1 -10.84383722272227 -1.92780532443244  1.91534531853185
 1 -12.72850374337434 -1.84215163506351  2.76634721472147
 1 -13.65282573157316 -2.57365606150615  0.38503663466347
 1 -11.74414964996500 -3.00346693559356 -0.28097519951995
 1 -12.93161102010201 -2.28508770067007 -1.11399414141414
 1  8.80347225022502 -0.13571798279828  0.56838395939594
 1 -10.13428819381938 -1.99956702060206 -1.09450325232523
 1  10.73342463446344  1.52389705970597 -2.17190924992499
 1  11.83404923392339  2.11613255615562 -1.05205081308131
 1  12.41453312331233  1.11298215311531 -2.71081377037704
 1 -11.04658905990599  2.32048761286129 -2.37342806380638
 1 -9.81316729472947  1.28833285238524 -1.80423639063906
 1 -9.90736492049205  2.77024967906791 -0.87870102610261
 1  14.56284541254125 -3.28151347844784 -0.01265298529853
 1 -14.97188188118812  1.63180048014802  2.25235633163316
 1  10.11749766876688  2.34943185118512 -0.21250442544254
 1 -8.80307504350435  0.43713831493149  0.22807218121812
 1  8.98462614961496  4.17630101210121  0.52908874987499
 1  7.49580596759676  4.08139300030003 -0.65120146614661
 1  7.35098435843584  4.26777784578458  1.27068390639064
 1 -8.65679847384738 -3.12323698159816 -0.70625591459146
 1 -8.08623299429943 -2.58371837473747 -2.51791368036804
 1 -6.82713848584859 -3.16478101800180 -1.21958739273927
 1  7.00717657265727  0.68748196319632 -0.30640851585159
 1 -6.30327730373037  0.25428292339234  0.19368424342434
 1  5.50869857485749  3.17882355435544  0.33355986498650
 1 -4.96286675767577 -2.33809148714871 -0.97912406240624
 1  4.74679787278728  0.07673241924192 -0.30800286828683
 1 -4.02851425542554  0.51513088508851  0.09772105310531
 1  2.91115674367437  3.46170806080608  1.44358759975998
 1  1.77978623962396  3.44035501750175  0.08857345934593
 1  3.24750013001300  3.80477710271027 -0.38262132013201
 1 -2.99693080808081 -2.92641493349335 -0.36711437643764
 1 -2.75851456445645 -2.55068213021302 -2.08900764276428
 1 -1.14587497249725 -2.54844239423942 -0.96186472947295
 1  2.49503086608661 -0.06434971597160 -0.77056326832683
 1 -2.13120774377438  0.91130937493749 -0.09738364536454
 1  0.34066436543654  1.78331375837584  0.16601861186119
 1  0.10575236023602 -1.09564972897290 -0.78793046704670

