%nproc=4
%Mem=2GB
# td=(NStates=1) CAM-B3LYP/6-31G(d,p) 

TD

0 1
 8  14.65883140814081 -2.23712664576458 -0.25148207120712
 8 -14.61243630763076  2.04443974907491  1.27524705570557
 6  11.28674102010201 -1.30939349144914  1.13153931493149
 6 -12.32359752375237 -0.98604022192219  0.63366701070107
 6  12.72924649064906 -1.71190048614861  1.14776966896690
 6 -13.53295001400140 -0.10294831473147  0.76029884188419
 6  13.23579161816182 -1.91848417051705 -0.30464400940094
 6 -13.37608690169017  1.29557821892189  1.12475372637264
 6  10.97807713471347 -0.14235186218622  0.04494120112011
 6 -11.24826119011901 -0.33004401130113 -0.27187486348635
 6  13.19554004500450 -0.56445493059306 -0.97639039303930
 6 -12.50368280628063  1.94318732583258  0.04460510751075
 6  11.86108197719772  0.10372075497550 -0.96107875087509
 6 -11.50102069706971  1.04191082018202 -0.56338833483348
 6  10.98977001800180 -0.85294073507351  2.53760714471447
 6  10.40713133313331 -2.58291605960596  0.78536192619262
 6 -11.66060786678668 -1.30133982588259  2.02771890289029
 6 -12.74212070707071 -2.32254347624762  0.05180644264426
 6  9.56593183418342  0.37900685368537  0.30633459345935
 6 -10.05502107410741 -1.01525426732673 -0.65151643664366
 6  11.52798867886789  1.09226440034003 -2.11620361036104
 6 -10.60561884988499  1.77701717881788 -1.50825771577158
 6  9.29237314231423  1.71379762276228  0.06330297029703
 6 -8.80120151715172 -0.49231118001800 -0.55166026802680
 6  7.95461456645665  2.33643962696270  0.07494826982698
 6 -7.64888292229223 -1.16582491039104 -0.85019118811881
 6  7.86963874787479  3.85476433143314  0.39503368736874
 6 -7.70101839883988 -2.61310088698870 -1.38216690169017
 6  6.87463743474347  1.57561650265026 -0.00172265726573
 6 -6.32544524152415 -0.70358862076208 -0.63644256925693
 6  5.52774348834884  2.04934917291729  0.16352332133213
 6 -5.07480602660266 -1.25267234013401 -0.69286616461646
 6  4.37276606260626  1.20560675467547  0.14942285728573
 6 -3.94373567056706 -0.47731995599560 -0.54128694369437
 6  3.01472896389639  1.58051244224422  0.26844096009601
 6 -2.59709516551655 -0.92444252325233 -0.67592594759476
 6  2.67936950395040  3.05024271627163  0.60750840884088
 6 -2.29630839883988 -2.28398189018902 -1.09650087608761
 6  2.10638972797280  0.54545660966097  0.04588390839084
 6 -1.59943190319032  0.09898778777878 -0.32040599159916
 6  0.76145297429743  0.75455826982698  0.06967829582958
 6 -0.25613548354835 -0.18280588058806 -0.25264623462346
 1  13.60605918591859 -0.99535294539454  1.49530521952195
 1  12.86586008500850 -2.53440665476548  1.83255093909391
 1 -14.10318329132913 -0.48556599849985  1.58293921492149
 1 -14.00596409140914 -0.21944981688169 -0.39681153715372
 1  12.61893290029003 -2.61515082218222 -0.89848040604060
 1 -12.75971640364036  1.52111609370937  2.09829756375638
 1  13.87780236723672 -0.01529895199520 -0.56978215921592
 1  13.37319287628763 -0.61058641574157 -2.13769650065007
 1 -13.20127533653365  2.32034709480948 -0.71781452445245
 1 -11.98678465146515  2.92478749884989  0.55111614761476
 1  11.33991668066807 -1.56517494649465  3.18017271327133
 1  9.83042136913691 -0.83116291529153  2.57789454445445
 1  11.44563830583058  0.01374250715071  2.79756314231423
 1  10.44351061406141 -2.86506128012801 -0.32433911691169
 1  10.55260426332633 -3.51132977597760  1.52398183818382
 1  9.42052936993699 -2.46835814381438  0.85604232523252
 1 -11.53025471147115 -0.23617611151115  2.37102739973997
 1 -10.57054989398940 -1.72523506740674  1.90192397639764
 1 -12.30236112911291 -1.78324574447445  2.70257083708371
 1 -13.44770521952195 -2.75560425632563  0.66497462846285
 1 -11.98356359135914 -2.98727531643164 -0.07427452945294
 1 -13.13496135513551 -2.34466365826583 -0.95600834283428
 1  8.87620952395240 -0.33004741574157  0.37262438343834
 1 -10.35554031903190 -2.07212427632763 -1.11542534453445
 1  10.50832212421242  1.03906857685769 -2.32155421442144
 1  11.86393222222222  2.15350629352935 -2.03640924892489
 1  11.78258992899290  0.72709356425643 -3.04458714771477
 1 -11.17588198919892  2.42655821992199 -2.13619434043404
 1 -9.97957393539354  1.25952997209721 -2.25008097509751
 1 -9.84213839783978  2.44043669776978 -1.07422057805781
 1  14.60181930993099 -3.13953928102810  0.11893017301730
 1 -14.95912060506051  1.93550085018502  2.37810890689069
 1  10.05970188918892  2.35172208020802 -0.14464763976398
 1 -8.50865560156016  0.37263186428643  0.06495586958696
 1  8.91476916391639  4.13721710371037  0.66012185318532
 1  7.33234962196220  4.36056091709171 -0.39950629662966
 1  7.25462472247225  4.04135520352035  1.38579541754175
 1 -8.18448124212421 -3.28443310121012 -0.77923321232123
 1 -8.21766613761376 -2.68904890779078 -2.34240612961296
 1 -6.60858663066307 -3.02301684158416 -1.55381081508151
 1  6.92906876187619  0.51924513951395 -0.20095797079708
 1 -6.31523849984999  0.43147064216422 -0.16655178017802
 1  5.28465617061706  3.02763843584358  0.52951946094609
 1 -4.95270574157416 -2.32540021802180 -0.98948509850985
 1  4.47431062406241  0.25392013801380 -0.25144721272127
 1 -3.93824522852285  0.62814218621862 -0.18469718871887
 1  3.00988661666167  3.18217010701070  1.67261050205021
 1  1.55816407740774  3.24185516751675  0.61022562456246
 1  3.00591597159716  3.72312893789379 -0.22935599359936
 1 -3.08888000300030 -2.82899519151915 -0.53111077607761
 1 -2.28860757375738 -2.36479354135414 -2.20003874587459
 1 -1.26705709070907 -2.40383793379338 -0.70511905490549
 1  2.24555591859186 -0.44679796079608 -0.33720993299330
 1 -1.98374299729973  0.98850709470947  0.22173826682668
 1  0.47125742474247  1.70291571857186  0.38720073007301
 1  0.11276306130613 -1.16530669466947 -0.42001367536754

