%nproc=4
%Mem=2GB
# td=(NStates=1) CAM-B3LYP/6-31G(d,p) 

TD

0 1
 8  14.48647417241724 -2.51074400750075 -0.54018094109411
 8 -14.73551861586158  1.91730703580358  0.78587811881188
 6  11.09693203920392 -1.39045159725973  0.93951011201120
 6 -12.38316348034803 -1.05338695659566  0.55181882588259
 6  12.61237480348035 -1.96675597169717  0.92395728772877
 6 -13.71943866286629 -0.29555757565757  0.64252706470647
 6  13.10455849484949 -1.98406072817282 -0.38381192619262
 6 -13.45628492149215  1.22791145224522  0.92531378237824
 6  11.00072939993999 -0.21409903690369  0.06292299929993
 6 -11.26488285228523 -0.33603461036104 -0.23590126612661
 6  13.19697018801880 -0.52755124022402 -0.96850960496050
 6 -12.57889032703270  1.87125013211321 -0.17774712771277
 6  11.84783065206521  0.16772715561556 -0.82105474847485
 6 -11.38150874587459  1.08977560666067 -0.59127112311231
 6  10.79194023502350 -1.09594503550355  2.37563094709471
 6  10.17878849884988 -2.57522529052905  0.58848223822382
 6 -11.90542234823482 -1.22270196209621  1.94883101410141
 6 -12.67619411441144 -2.29494071597160 -0.18896763476348
 6  9.58121336233623  0.45750470347035  0.26259021902190
 6 -9.93658923092309 -1.07430017191719 -0.46057734273427
 6  11.66680256025603  1.38097327122712 -1.71396338633863
 6 -10.25549383738374  1.80675015211521 -1.33093998399840
 6  9.40336424142414  1.77421366436644  0.17483412341234
 6 -8.74479587658766 -0.57984993389339 -0.31167626962696
 6  8.05059416441644  2.38847483048305  0.33700447544754
 6 -7.50244827882788 -1.44083241114111 -0.53785995499550
 6  7.97954973897390  3.84749360436044  0.50335451945195
 6 -7.57856615361536 -2.79250882778278 -1.00978966396640
 6  6.90394036503650  1.53257219821982  0.05628314331433
 6 -6.33239593659366 -0.71179944184418 -0.30820974597460
 6  5.53571428542854  2.09761399939994  0.09913688268827
 6 -5.03695224122412 -1.22439951285128 -0.37749462746275
 6  4.47175596159616  1.34275046904690 -0.12415450045004
 6 -3.90275157215722 -0.35978820282028 -0.27092990799080
 6  3.14730222122212  1.69936432743274  0.02487660366037
 6 -2.63983943994399 -0.70579065806581 -0.43187154215422
 6  2.78781034803480  3.12958065006501  0.32948060606061
 6 -2.33428219621962 -2.14465795779578 -0.74442566856686
 6  2.16013510251025  0.80772283628363 -0.18243892389239
 6 -1.59955191519152  0.17842573157316 -0.14736868786879
 6  0.73883071207121  1.00867368136814 -0.01056972897290
 6 -0.14684455445545 -0.07232483248325 -0.25069603960396
 1  13.34650323032303 -1.34204761486149  1.59678536753675
 1  12.52997649664966 -3.17250046414641  1.26992467646765
 1 -14.45494846784679 -0.55008245014502  1.40125104610461
 1 -14.32049554455446 -0.43151102300230 -0.35284714071407
 1  12.48277928492849 -2.76241554865487 -1.19105966396640
 1 -13.07322775477548  1.30240422252225  2.10405813981398
 1  14.04431901890189  0.00115269316932 -0.39820500150015
 1  13.52104766176618 -0.60521587868787 -1.94692742374237
 1 -13.11508671767177  1.91306636673667 -1.08500124312431
 1 -12.22595856885689  2.92407742784278  0.15433646964697
 1  11.12581527052705 -1.94183261226123  3.10474517051705
 1  9.79381770877088 -0.82634243324332  2.70092684768477
 1  11.32101584358436 -0.20554942204220  2.84023740974097
 1  10.41510777377738 -3.00825559955996 -0.41879856285629
 1  10.17642664556456 -3.46161480448045  1.11854129412941
 1  9.13627094409441 -2.31053236123612  0.50275699669967
 1 -11.56406809280928 -0.20986348024803  2.43448374537454
 1 -11.13687652665267 -2.16683922782278  2.14395817981798
 1 -12.81053194619462 -1.73449086898690  2.63067364736474
 1 -13.66533698269827 -2.78634733063306  0.26086421742174
 1 -11.81412664766477 -3.10135672457246 -0.16651375337534
 1 -13.00867872687269 -2.04294348624862 -1.13480622262226
 1  8.69897180018002 -0.00448485948595  0.33634075507551
 1 -10.19184394939494 -2.04468153205321 -0.74162796479648
 1  10.66668796079608  1.72843751375137 -1.87156921592159
 1  12.26999282828283  2.24342528542854 -1.46400200820082
 1  12.03115478547855  1.13096395129513 -2.77991068006801
 1 -10.73558795979598  2.36761232533253 -2.19318003900390
 1 -9.39870584858486  1.22738675777578 -1.80661662866287
 1 -9.88958314231423  2.44461711581158 -0.71788494449445
 1  14.26840596859686 -3.54697002410241 -0.26628834883488
 1 -15.39232392539254  1.47901520162016  1.37082817881788
 1  10.08036395539554  2.45627253525353  0.08679550455045
 1 -8.55972070807081  0.51622622372237  0.17997737173717
 1  9.05352303930393  4.27675105710571  0.71155699669967
 1  7.45931231823182  4.14645950695069 -0.45395174117412
 1  7.24837409740974  4.17595866386639  1.33689052705271
 1 -8.50959375337534 -3.38799345724573 -0.28729401840184
 1 -7.61876624762476 -2.77654765766577 -2.16105799479948
 1 -6.58211398339834 -3.33413795369537 -1.13557899189919
 1  7.05122097709771  0.45414862986299 -0.39196707170717
 1 -6.18605558155816  0.33997149224922  0.06455133013301
 1  5.55173287828783  3.15316098809881  0.64788129712971
 1 -4.75450592159216 -2.40587826582658 -0.53452960296030
 1  4.77759095209521  0.14598934493449 -0.24248631663166
 1 -4.18903030703070  0.66786615861586 -0.09746846584658
 1  3.14065969396940  3.24145603560356  1.39452269326933
 1  1.72814107510751  3.52399338133813 -0.08047344534453
 1  3.40865624562456  3.75411203620362 -0.17375043304330
 1 -1.99671078607861 -2.85391768376838  0.48436077107711
 1 -3.42487120012001 -2.62377943994399 -1.35801454345435
 1 -1.13728411341134 -2.20629817981798 -1.59586812981298
 1  2.60674203720372 -0.23693697469747 -0.57313352535254
 1 -1.78691331433143  1.19788803280328  0.10908700170017
 1  0.29987028602860  1.93839926692669  0.34754676467647
 1  0.25333711871187 -0.93728389238924 -0.38320999499950

