%nproc=4
%Mem=2GB
# td=(NStates=1) CAM-B3LYP/6-31G(d,p) 

TD

0 1
 8  14.70956648164817 -2.17630056315632 -0.29513643664366
 8 -14.83859892389239  1.82095740084008  0.93030256125613
 6  11.21423376937694 -1.41262381448145  0.98135429642964
 6 -12.30023518751875 -1.05612723062306  0.60926457045705
 6  12.68109167516752 -1.75976527262726  1.01634652665267
 6 -13.65565228422842 -0.21995001490149  0.69742255425543
 6  13.38794683368337 -1.98859118121812 -0.32601614661466
 6 -13.52870216321632  1.28710737183718  0.90772202320232
 6  10.90468979597960 -0.35262288928893 -0.00384367736774
 6 -11.24509087308731 -0.24227523442344 -0.17780545654565
 6  13.24964545554555 -0.53377186228623 -1.06650940494049
 6 -12.81101353935393  1.75865887298730 -0.22041139413941
 6  11.81386725572557  0.08251863476348 -0.99601224422442
 6 -11.53140373537354  0.99407603670367 -0.60675267126713
 6  10.92434347534753 -0.94689013001300  2.42799618361836
 6  10.36935755575558 -2.67823559155916  0.65438882888289
 6 -11.67861966796680 -1.31452114401440  2.04320045104510
 6 -12.55625212021202 -2.38487970987099  0.05340660266027
 6  9.60752599359936  0.30681963496350  0.16495045504550
 6 -10.00372594459446 -0.97662040394039 -0.40034131913191
 6  11.49208508850885  1.25114028792879 -2.00190218021802
 6 -10.71794008200820  1.90592006910691 -1.56372326232623
 6  9.35940984598460  1.59543578657866 -0.04960832083208
 6 -8.82878427542754 -0.50862281118112 -0.40581568356836
 6  8.12264136913691  2.26087207020702  0.21140191519152
 6 -7.60098813281328 -1.16973530143014 -0.63083925292529
 6  8.19119090309031  3.71616047104710  0.61682586658666
 6 -7.65454375137514 -2.61155073197320 -1.09895858085809
 6  6.90575054605461  1.44333327432743  0.28745626062606
 6 -6.42675537253725 -0.57115537743774 -0.44951387638764
 6  5.58941965596560  2.01637587558756  0.43838080708071
 6 -5.10302884888489 -1.09315638853885 -0.60686756475648
 6  4.43379216521652  1.37025321932193  0.18044595959596
 6 -3.96489778677868 -0.36097832183218 -0.40213302830283
 6  3.09090658165817  1.75663005400540  0.18549266526653
 6 -2.58024348034803 -0.78090816981698 -0.57190554555456
 6  2.81878344534453  3.08931662366237  0.51472913091309
 6 -2.32747151515152 -2.24175766776678 -0.86542776877688
 6  2.06553564256426  0.75684774877488 -0.01241192119212
 6 -1.56401836183618  0.18937682668267 -0.36246019701970
 6  0.70532736173617  0.96408922292229 -0.13639231123112
 6 -0.20334020402040 -0.11152875287529 -0.31889285928593
 1  13.42288086808681 -1.08204161426143  1.46000168916892
 1  12.78809230823082 -2.75563877797780  1.33361104510451
 1 -14.09455242824282 -0.48389583148315  1.64640556155616
 1 -14.47401089608961 -0.37655552745274 -0.17602945894589
 1  12.84806581358136 -2.88769807690769 -0.91517207520752
 1 -12.93471390339034  1.37227120922092  1.80527826182618
 1  13.95420000700070  0.14018659655966 -0.57596277727773
 1  13.52850840784078 -0.61981733883388 -2.06872960396040
 1 -13.44195940494049  1.88149320942094 -0.86282902590259
 1 -12.51788776177618  2.85484050415041  0.23573460946095
 1  11.14347703670367 -1.59663809280928  3.18966366236624
 1  9.70654898189819 -0.91896169516952  2.48897565256526
 1  11.38885262726273  0.09902103500350  2.68977236323632
 1  10.45854211721172 -2.99554432843284 -0.53627031003100
 1  10.77359636253625 -3.50511915491549  1.32551199119912
 1  9.36756407340734 -2.42433374137414  0.65575229622962
 1 -11.56444813081308 -0.32072456635664  2.58991928892889
 1 -10.67208004700470 -1.94859740364036  1.92319610361036
 1 -12.31384227722772 -1.86456387628763  2.71018159815982
 1 -13.40358080708071 -2.68489718561856  0.86304443544354
 1 -11.81713694869487 -3.16082267116712  0.11426432443244
 1 -12.78632649164916 -2.29374856675668 -1.04920766276628
 1  8.91144304730473 -0.13695810681068  0.82986010701070
 1 -10.24749951495150 -1.83060012391239 -0.63132693469347
 1  10.41310260226022  1.18163283328333 -2.34327638663866
 1  11.72763859285929  2.21093203610361 -1.63206881488149
 1  12.25691736173617  0.92344319921992 -2.75766845584558
 1 -11.29043344434443  2.22390795489549 -2.56989771077108
 1 -9.84879085708571  0.97205122422242 -2.00176614361436
 1 -10.06000018401840  2.82765541964196 -1.11018417441744
 1  14.87385651365136 -3.20148547564756 -0.05636735673567
 1 -15.35112980598060  1.42948024812481  1.62907400340034
 1  10.15445136413642  2.10153706170617 -0.58120129512951
 1 -8.70821555755576  0.48170277137714 -0.17905853185318
 1  9.22825051205120  4.16735011701170  0.74639048004800
 1  7.54117050405041  4.12737759875988 -0.20258660466047
 1  7.54471373137314  4.02978404640464  1.49467630563056
 1 -8.65412820682068 -2.94578923682368 -0.54891018001800
 1 -7.97277164816482 -2.77050705360536 -2.19547143614361
 1 -6.66138191019102 -3.24138867876788 -0.94555998999900
 1  7.16094194919492  0.37033024802480 -0.22659053405341
 1 -6.35287226322632  0.43313080818082 -0.11691681668167
 1  5.36282398739874  3.18202387438744  0.84339084808481
 1 -4.92683315431543 -2.17725540354035 -0.88795494549455
 1  4.58763195619562  0.31255600160016  0.03893182518252
 1 -3.89518092209221  0.72466183818382 -0.23958267726773
 1  3.13817944594459  3.15763765376538  1.49445268626863
 1  1.89413767476748  3.66270725272527  0.55525012701270
 1  3.39539491949195  3.86979360436044 -0.06702976097610
 1 -2.82001311631163 -2.83480577257726 -0.22010967596760
 1 -2.95498421142114 -2.50783784578458 -1.70548929092909
 1 -1.20596098109811 -2.40726827682768 -1.08601714471447
 1  2.53044440744074 -0.20124340534053 -0.51799801180118
 1 -2.03747837083708  1.23765200920092 -0.24854876187619
 1  0.60509080808081  2.06271169816982 -0.07752574257426
 1  0.17289907490749 -1.13970413441344 -0.38033970797080

