%nproc=4
%Mem=2GB
# td=(NStates=1) CAM-B3LYP/6-31G(d,p) 

TD

0 1
 8  14.76497202220222 -2.23607654075408 -0.36076299929993
 8 -14.82025708970897  1.83984929002900  1.01446097709771
 6  11.28603094909491 -1.52437498959896  1.04207036803680
 6 -12.34895005900590 -1.10228184608461  0.65972961696170
 6  12.78755232123212 -1.93775307140714  0.97648254025403
 6 -13.75422214121412 -0.36528454835484  0.74046685868587
 6  13.39945798479848 -1.99942226432643 -0.39786333133313
 6 -13.58545783878388  1.15379404050405  0.91675292629263
 6  10.97368669566957 -0.25744337133713  0.10723743074307
 6 -11.27154351835184 -0.30605161206121 -0.06498417441744
 6  13.26413690469047 -0.47656614171417 -1.05662841684168
 6 -12.85998843684368  1.78271127822782 -0.28924827782778
 6  11.91170703970397  0.09697007990799 -0.87987063006301
 6 -11.57460805580558  0.93171980108011 -0.57426942294229
 6  10.99753079407941 -1.08145358635864  2.59259264326433
 6  10.44116473647365 -2.66269403740374  0.67893128312831
 6 -11.89257106310631 -1.28217790969097  2.12537866886689
 6 -12.55041153615361 -2.50092131403140  0.15888715071507
 6  9.68130337133713  0.27910686368637  0.27890185018502
 6 -10.10438601060106 -1.02904564646465 -0.38463974897490
 6  11.63965984598460  1.17108228212821 -1.83289527952795
 6 -10.74141242924292  1.71674115121512 -1.52215910591059
 6  9.43445735073507  1.62618886188619  0.11765840584058
 6 -8.89263066006601 -0.46520846974697 -0.55287038903890
 6  8.04213331833183  2.17223320632063  0.33311408640864
 6 -7.65942397639764 -1.14120244814481 -0.62552872187219
 6  7.95205698969897  3.65200405540554  0.58102228622862
 6 -7.50784908190819 -2.61386096299630 -0.93332201720172
 6  6.84039401040104  1.45048398939894  0.11566908190819
 6 -6.43850654765477 -0.39295755765577 -0.54491341634163
 6  5.54752546654665  2.05864010201020  0.14034100310031
 6 -5.10373891989199 -0.84615168806881 -0.69129600760076
 6  4.45391417741774  1.32862905690569 -0.02071415641564
 6 -3.95639693669367 -0.20645286928693 -0.52750556555656
 6  3.15836332733273  1.73609800080008  0.04560867686769
 6 -2.61688714471447 -0.67346742574257 -0.60458881388139
 6  2.95921748874887  3.12700039203920  0.47153481148115
 6 -2.43166193419342 -2.11560505250525 -0.97944917091709
 6  2.14812390139014  0.84825688968897 -0.09857053705371
 6 -1.60684264426443  0.28541643064306 -0.35806975797580
 6  0.78422525152515  0.97566038003800 -0.03508218021802
 6 -0.26329619961996  0.03415581558156 -0.46608757875788
 1  13.49417799779978 -1.20541395149515  1.67990367936794
 1  12.86803030203020 -2.93781699579958  1.40803848784878
 1 -14.43481645464547 -0.86080352225223  1.42495341634163
 1 -14.35000849584958 -0.51688956085609 -0.20311216721672
 1  12.96954796179618 -2.70730003710371 -1.10177073507351
 1 -13.05213564556456  1.36117009910991  1.66853458745875
 1  14.10704529152915  0.00720329822982 -0.57092227322732
 1  13.66774233123312 -0.44845020212021 -2.11675440644064
 1 -13.61005621462146  1.71028608870887 -1.16576931993199
 1 -12.37957393039304  2.65307032713271 -0.03559252325233
 1  11.34870755975598 -1.93542197119712  3.15365006100610
 1  9.98236656365636 -0.81103090209021  2.76880363536354
 1  11.76578032003200 -0.22814168126813  2.80179356535654
 1  10.73544980798080 -3.07703247724772 -0.22670935393539
 1  10.57712671557156 -3.46404504750475  1.29150859085909
 1  9.30368768576858 -2.39121042904290  0.69680640164016
 1 -11.71781346734674 -0.19128162206221  2.33672396939694
 1 -10.82442528152815 -1.51163370727073  2.17838162216222
 1 -12.37360825382538 -1.84749216911691  2.80143072307231
 1 -13.44195464446445 -3.00865956185619  0.66988511951195
 1 -11.77815305030503 -3.29955654455446  0.68315121312131
 1 -12.56931479047905 -2.62776196809681 -0.93543628562856
 1  8.86276817981798 -0.27913232423242  0.45281240224022
 1 -10.31591635663566 -2.16087315121512 -0.51100490249025
 1  10.43835512751275  1.00304497449745 -2.35041710071007
 1  11.81949777877788  2.16391733463346 -1.36072168016802
 1  12.47720939093909  0.96740759565957 -2.64753744274427
 1 -11.33765816681668  2.40050561466147 -2.13072379337934
 1 -10.12978895689569  1.26946096519652 -2.28269423642364
 1 -10.17256144014401  2.61229388348835 -0.96008916491649
 1  14.84177330533053 -3.08295362246225 -0.06040776077608
 1 -15.22627732073207  1.48203550365036  1.62723381938194
 1  10.35135105410541  2.29457636563656  0.19934675967597
 1 -8.89716445244524  0.58295289638964 -0.31441206720672
 1  8.87873556055606  4.16712009400940  0.45401124212421
 1  7.33343973097310  3.97489235023502 -0.09770611661166
 1  7.53940320032003  3.89269033703370  1.61239807780778
 1 -7.84433722772277 -3.47983264116412 -0.14476976597660
 1 -8.40348471947195 -2.56850685358536 -1.48795068406841
 1 -6.57474324632463 -2.90495503540354 -1.43769920392039
 1  6.91018687368737  0.39217243224322  0.15785791079108
 1 -6.47797477347735  0.70202769786979 -0.19461458645865
 1  5.46088379337934  3.19631530353035  0.48367487648765
 1 -5.00735120612061 -1.98142582058206 -1.02302845284528
 1  4.64795798879888  0.33384813081308 -0.46968903690369
 1 -4.16815821982198  0.98967833983398 -0.12483120212021
 1  3.56691231923192  3.58978086808681  1.20461370237024
 1  2.03619188018802  3.57106808880888  0.51112571457146
 1  3.42101748174817  3.80150677567757 -0.20943400140014
 1 -2.90032114711471 -2.76912920492049 -0.08698636363636
 1 -2.94080279327933 -2.39494655665567 -1.84496323832383
 1 -1.43594397939794 -2.47742529252925 -1.32258080108011
 1  2.52243360636064 -0.11632491349135 -0.46419263126313
 1 -2.10715533853385  1.23900214421442 -0.06873078007801
 1  0.41759205820582  1.96947237423742  0.22544455445545
 1  0.18716050105011 -0.83576374037404 -1.07108878287829

