%nproc=4
%Mem=2GB
# td=(NStates=1) CAM-B3LYP/6-31G(d,p) 

TD

0 1
 8  14.39984550955096 -2.50821375447545 -0.15292221522152
 8 -14.40355541954195  1.94707001210121  1.56061559255926
 6  11.08317066306631 -1.45154770687069  1.21744790579058
 6 -12.11917708170817 -1.06688830673067  0.74378802280228
 6  12.51822538853885 -2.02165146124612  1.19437432943294
 6 -13.51129784878488 -0.30025804570457  0.87238005000500
 6  13.08810684968497 -2.12467478957896 -0.21960550555056
 6 -13.24504379737974  1.16395505660566  1.21010226122612
 6  10.93461278827883 -0.30860848784878  0.12596930393039
 6 -11.25889225322532 -0.21651265816582 -0.12341001700170
 6  13.16865735673567 -0.74247273237324 -0.80846360036004
 6 -12.67361979998000  1.75980898799880  0.00862150915092
 6  11.85993186218622  0.03739412231223 -0.77070971397140
 6 -11.45557615261526  1.00471710081008 -0.46805880188019
 6  10.61845288628863 -1.05847128812881  2.62259564356436
 6  10.14610523052305 -2.57799556755676  0.77332072207221
 6 -11.46500830683068 -1.50561025292529  2.05554168516852
 6 -12.50426692169217 -2.43504472637264  0.03456471847185
 6  9.64972021302130  0.48564751775178  0.06604056405641
 6 -10.03251882388239 -0.98899164106411 -0.59211049604960
 6  11.65000088008801  1.11269644354435 -1.69976196619662
 6 -10.63462175017502  1.74498397549755 -1.49262615261526
 6  9.34429833483348  1.81953819681968  0.07196383638364
 6 -8.73639503650365 -0.60292224112411 -0.47297239923992
 6  8.07751685668567  2.47106308930893  0.24237501250125
 6 -7.50801883588359 -1.28327665556556 -0.73960012901290
 6  8.01822360636064  3.80113896889689  0.58526271027103
 6 -7.69029732673267 -2.75789536643664 -1.11982066706671
 6  6.91456142714271  1.67812675367537  0.02734024902490
 6 -6.37407010401040 -0.69153741564156 -0.49777870287029
 6  5.58055876987699  2.16324056205621  0.13248021702170
 6 -5.04838338433843 -1.17976504940494 -0.78773565156516
 6  4.45849463546355  1.44770096409641 -0.11869395439544
 6 -3.91259255625563 -0.39490171417142 -0.70878369336934
 6  3.07946543754375  1.90698508950895 -0.04591047504750
 6 -2.58753420942094 -0.69272935193519 -0.85026338133813
 6  2.78294986198620  3.20776846884688  0.28531618961896
 6 -2.24331309930993 -2.11562505450545 -1.30919214521452
 6  1.99883897289729  1.00985304930493 -0.47430811081108
 6 -1.69335129512951  0.36820470947095 -0.51425537653765
 6  0.57506433543354  1.14695750975097 -0.30941961396140
 6 -0.34032390239024  0.15451785178518 -0.62293326332633
 1  13.04203278327833 -1.13829723982398  1.71855754475448
 1  12.75229872887289 -2.95244845894589  1.86257394139414
 1 -14.14121709470947 -0.83259070097010  1.67798871987199
 1 -14.04088758375838 -0.34506237813781 -0.08710056605661
 1  12.46049705670567 -2.70116942404240 -0.82948350635064
 1 -12.42166259825983  1.35719970207021  1.97799553355336
 1  14.02667725472547 -0.24140156225623 -0.25810099109911
 1  13.41993755075508 -0.65217057415741 -1.97964069506951
 1 -13.51467667666767  1.85020008010801 -0.65087783078308
 1 -12.37876384938494  2.95678069816982 -0.15850481448145
 1  10.81939462846285 -1.93882231123112  3.41760645664566
 1  9.60865919291929 -0.73796359535954  2.58497525252525
 1  11.22555629762976 -0.17920678777878  2.91546493249325
 1  10.34018028102810 -3.16135090909091 -0.26351303430343
 1  10.05740474337434 -3.45162380538054  1.60357979797980
 1  9.01526884388439 -2.25716702470247  0.62781950295029
 1 -11.29793147914791 -0.61457395129513  2.63828412541254
 1 -10.53272611161116 -2.07330987488749  2.02545632963296
 1 -12.23849474247425 -2.05608302820282  2.75105568556856
 1 -13.40168061706171 -2.97633632953295  0.62276040704070
 1 -11.69167440244025 -3.03868045694569  0.13972687068707
 1 -12.82069992899290 -2.19205839773977 -1.08730147214721
 1  8.73826572957296 -0.13224763576358  0.54200132113211
 1 -10.06758152315231 -2.18252531643164 -0.68097189918992
 1  10.67935922792279  1.24814948494850 -1.85878793779378
 1  12.04402023102310  2.20303124602460 -1.33123873187319
 1  12.20549221922192  0.87150800570057 -2.65078776777678
 1 -11.30839524052405  2.38131369546955 -2.22255297629763
 1 -10.16433241124112  0.95850987008701 -2.13659962696270
 1 -9.97270145414541  2.42814546864687 -0.93768692469247
 1  14.56851597959796 -3.35345067216722  0.34539281928193
 1 -15.02581727472747  1.39258655875588  2.34454555055506
 1  10.04835075407541  2.50890779877988 -0.11189436443644
 1 -8.67805254125413  0.44190879197920 -0.08962958895890
 1  9.08813650065006  4.31667504950495  0.85133097409741
 1  7.43847023402340  4.54945980698070 -0.15816216221622
 1  7.28906816681668  3.92769383738374  1.50876771477148
 1 -8.02397519151915 -3.30631528942894 -0.38716400540054
 1 -8.38940331133113 -3.00494049694970 -1.99875176417642
 1 -6.60681645364537 -3.00992553245325 -1.55339077307731
 1  6.92950880588059  0.47389060406041 -0.04876275127513
 1 -6.39608658465847  0.24652214731473  0.02640751575158
 1  5.54666237123712  3.17829350135014  0.33097960696070
 1 -5.05182565356536 -2.22007968596860 -1.07508365836584
 1  4.50153334633463  0.41417616361636 -0.57231929992999
 1 -4.11331273527353  0.52241161316132 -0.33230194919492
 1  2.86147177517752  3.22035392539254  1.43264650565057
 1  1.76547480848085  3.57271825382538  0.15381998399840
 1  3.52027740774077  3.95930255525553 -0.37935099309931
 1 -2.57168828382838 -2.83736602860286 -0.54587225222522
 1 -2.93679239223922 -2.52197925992599 -2.16464520652065
 1 -1.25410579557956 -2.37062461246125 -1.55951449444945
 1  2.23102446544654 -0.13327660866087 -0.65299151115111
 1 -2.34430905390539  1.26715495949595 -0.19853376037604
 1  0.45004530353035  2.20361578857886 -0.13713170317032
 1  0.12754453945395 -0.81877204120412 -0.86813848784879

