%nproc=4
%Mem=2GB
# td=(NStates=1) CAM-B3LYP/6-31G(d,p) 

TD

0 1
 8  14.69646517151715 -2.18482141524152 -0.29517644064406
 8 -14.71139620362036  1.88387369246925  1.07747727872787
 6  11.26873921992199 -1.39127167926793  1.00628678967897
 6 -12.38016318031803 -1.01978359625963  0.54571821582158
 6  12.69766333233323 -1.76298559465947  1.05177006900690
 6 -13.69810652965296 -0.26558457835784  0.64445725772577
 6  13.39566760576058 -1.81897421952195 -0.29881342634263
 6 -13.55391468446845  1.20717937903790  0.98109936093609
 6  11.03054238123812 -0.16971459845985  0.16975368236824
 6 -11.25816218021802 -0.15058606550655 -0.19340701670167
 6  13.27700819181918 -0.44442292739274 -0.94188694269427
 6 -12.76043848184818  1.84641764886489 -0.01894124712471
 6  11.83697956695670  0.23286366926693 -0.74871751475148
 6 -11.52605320032003  1.15783241234123 -0.46331832783278
 6  10.93245428642864 -0.90406584758476  2.46774015801580
 6  10.34863548354835 -2.56717448544854  0.60978436843684
 6 -11.86890869686969 -1.41446113801380  1.98780491149115
 6 -12.72016851185118 -2.28291951385139 -0.27140587858786
 6  9.66306154715472  0.41101005400540  0.35162912291229
 6 -10.01493706570657 -0.82928567046705 -0.43285457045705
 6  11.74414029402940  1.21051622552255 -1.84289627962796
 6 -10.62891117911791  1.99749922702270 -1.32891978197820
 6  9.37959186418642  1.72496873987399  0.26473311331133
 6 -8.71937333433343 -0.33833578247825 -0.36287138913891
 6  8.06249535453545  2.23531951495149  0.07526830183018
 6 -7.60062809680968 -1.15155348324832 -0.68788495749575
 6  7.96077786178618  3.81244009900990  0.18442262626263
 6 -7.74973327032703 -2.56998657555756 -0.99275796079608
 6  6.91068103910391  1.38974791579158  0.06345386038604
 6 -6.37231992899290 -0.55773403530353 -0.46958588358836
 6  5.58581929592959  1.90920515851585  0.11452842184218
 6 -5.15478402440244 -1.12572964586459 -0.58709558755876
 6  4.49120790679068  1.03552974697470 -0.13888597359736
 6 -3.97198849584959 -0.45291751575158 -0.36452926792679
 6  3.10969846084608  1.41228561956196 -0.01879776377638
 6 -2.63453890989099 -0.86256633563356 -0.58084643964396
 6  2.83773534053405  2.97059475147515  0.32679033703370
 6 -2.24365313331333 -2.25937942994299 -0.95311653765377
 6  2.06134522352235  0.54313637763776 -0.05726640664066
 6 -1.61427338733873 -0.00922303330333 -0.22146609760976
 6  0.72104893389339  0.81880469446945 -0.08143681568157
 6 -0.27178704870487 -0.18674627462746 -0.30712168216822
 1  13.21040962096210 -1.15588899899990  1.64654034303430
 1  12.73765726472647 -2.87436065016502  1.50995867986799
 1 -14.37250022302230 -0.80865830773077  1.26496741774177
 1 -14.16774026902690 -0.22272014391439 -0.44689654565457
 1  12.85208621562156 -2.49592889999000 -1.04603516151615
 1 -12.87780821282128  1.12529651175117  2.03234096809681
 1  14.11381596859686  0.30410298819882 -0.76949213021302
 1  13.59706526352635 -0.56629198629863 -1.99735246624662
 1 -13.34745995499550  2.01084614471447 -0.82336507950795
 1 -12.54504047704770  2.71183620372037  0.47877891389139
 1  11.37023971297130 -1.70870929992999  3.05415011101110
 1  9.97868619561956 -0.78793859285929  2.60513726872687
 1  11.57380112211221 -0.00874974207421  2.70160354635464
 1  10.44818108110811 -2.53066784078408 -0.51083776677668
 1  10.81100010291029 -3.54227287028703  0.92313175317532
 1  9.18761607860786 -2.43677498549855  0.84276099709971
 1 -11.64710639663966 -0.42727522142214  2.73445374237424
 1 -11.06696953595360 -2.06799934383438  1.74075785978598
 1 -12.39005989898990 -1.98465588548855  2.41573215321532
 1 -13.69920036903690 -2.78152684858486  0.31316944794479
 1 -11.94686992199220 -3.10739732863286 -0.36101320332033
 1 -12.96850470947095 -2.13436262816282 -1.30039278127813
 1  8.64585648864887 -0.24714912591259  0.13572069306931
 1 -10.14501926692669 -1.81846891079108 -0.93473727572757
 1  10.61096238823882  1.37418208820882 -1.90770282928293
 1  12.21713754275427  2.19030997389739 -1.43924953295330
 1  12.15589725972597  0.89135999089909 -2.74024671367137
 1 -11.29987438843884  2.81318688278828 -1.73818453945395
 1 -9.85097107510751  1.47319133823382 -1.70409637663766
 1 -10.05785996999700  2.60242289638964 -0.54634779077908
 1  14.80993012101210 -3.05123045014501  0.09256753675368
 1 -15.38336302930293  1.46814411451145  1.69274037003700
 1  10.21187710671067  2.47264417241724  0.19322614761476
 1 -8.53270800680068  0.71270587168717 -0.01332195819582
 1  8.96075376237624  4.14272765476548  0.28947478847885
 1  7.17725411241124  4.13715857685769 -0.52416876287629
 1  7.34135339533953  3.95069613761376  1.18104494249425
 1 -8.43398619261926 -3.14687934583458 -0.21230651965197
 1 -8.04031840284028 -2.96374637753775 -2.14506639563956
 1 -6.70666643864386 -3.25738027792779 -0.71701713571357
 1  7.28904475947595  0.39217243224322 -0.03881175617562
 1 -6.38411538753875  0.65273276837684 -0.26121124612461
 1  5.24111181618162  2.81268694069407  0.26523303230323
 1 -4.96741721272127 -2.13312099009901 -0.89755590559056
 1  4.66391958495850 -0.00881613561356 -0.27362943094309
 1 -4.23300470447045  0.54082345434543  0.14915619661966
 1  3.43291891989199  3.25743763376338  1.26100934193419
 1  1.85453371437144  3.11834281628163  0.45796039803980
 1  3.13276865686569  3.66436306130613 -0.44776783478348
 1 -2.53169428442844 -2.82029432143214 -0.11419908490849
 1 -2.77365607860786 -2.65749281128113 -1.89448819081908
 1 -1.22222260726073 -2.33601115111511 -0.92545108810881
 1  2.52595395839584 -0.34473775477548 -0.56147235923592
 1 -1.99473409640964  1.09200744474447  0.12883897689769
 1  0.32325262426243  1.66209163616362  0.06692870287029
 1  0.31594337933793 -1.00932109610961 -0.66118779277928

