%nproc=4
%Mem=2GB
# td=(NStates=1) CAM-B3LYP/6-31G(d,p) 

TD

0 1
 8  14.82363788878888 -2.09051198429843 -0.05074199719972
 8 -14.86016108010801  1.83003830893089  1.12181171217122
 6  11.24598694469447 -1.55898845094509  0.95331149214922
 6 -12.41321648564857 -1.00461207910791  0.62342598659866
 6  12.70492405840584 -1.93854315041504  1.11560645264526
 6 -13.81342806180618 -0.23138115801580  0.70889370137014
 6  13.45333337233724 -1.83933625572557 -0.18967251225123
 6 -13.57225651865187  1.27240590169017  1.02395364636464
 6  10.97274660166017 -0.26044367136714  0.13670037703770
 6 -11.31567793179318 -0.20511151805180 -0.19208688468847
 6  13.37262775377538 -0.42390087518752 -0.76259901390139
 6 -12.87757019501950  1.79497250435043 -0.18111746474647
 6  11.85999186818682  0.18457884078408 -0.76229887288729
 6 -11.67879847484748  1.01789841894189 -0.53443543954395
 6  10.71612265326533 -1.41431687268727  2.31990537453745
 6  10.54724534453445 -2.80328809680968  0.29029241924192
 6 -11.89457126312631 -1.24936462836284  2.00974710571057
 6 -12.65471196619662 -2.41945316721672  0.12342360436044
 6  9.69558479947995  0.29097805080508  0.06809076907691
 6 -10.08884445644565 -0.94601734363436 -0.39575086008601
 6  11.88502438243824  1.48274344824482 -1.73166515651565
 6 -10.62946123412341  1.70559003610361 -1.41089797979798
 6  9.38832273727373  1.64392063506351  0.11223786378638
 6 -8.80636203320332 -0.36455840474047 -0.39759486148615
 6  8.08754785978598  2.26580256325633  0.17205798079808
 6 -7.60614864886489 -1.16723505140514 -0.60049621862186
 6  7.97292907690769  3.70137899289929  0.40404458845885
 6 -7.73794209120912 -2.66615619251925 -0.91102978797880
 6  7.05497546854685  1.49568850985099 -0.05416790179018
 6 -6.39977267426743 -0.56510477237724 -0.55598452345234
 6  5.60513122712271  2.03669790779078  0.08595556455646
 6 -5.06762530853085 -1.14613168606861 -0.66950382838284
 6  4.49216800280028  1.20385657965797 -0.06018810381038
 6 -3.93598489548955 -0.32429465346535 -0.64422723772377
 6  3.23881137213721  1.76997138813881  0.09528364436444
 6 -2.63921937793779 -0.75475555455546 -0.61797015201520
 6  2.79671123812381  3.15222291429143  0.53816147414741
 6 -2.36635540354035 -2.26837032903290 -0.77436866286629
 6  2.14312340134013  0.82111417541754 -0.29178985898590
 6 -1.58769072907291  0.18671656065607 -0.50174412541254
 6  0.66828365736574  1.06905971997200 -0.25717438943894
 6 -0.19354922492249 -0.01487908790879 -0.41910288028803
 1  13.03652223222322 -1.20837424752475  1.77538322732273
 1  12.63997749674967 -2.91231444554455  1.61513919791979
 1 -14.53709668266827 -0.73557099899990  1.35175609660966
 1 -14.15950944594459 -0.19398727062706 -0.43146500250025
 1  12.94527553455346 -2.49289859695970 -0.94668522652265
 1 -12.99580001200120  1.41339532163216  1.85899363336334
 1  14.00698528552855  0.32070464836484 -0.29957513851385
 1  13.76590214721472 -0.55316067316732 -1.84896762776278
 1 -13.31866707570757  1.78340340044004 -1.00992373537354
 1 -12.50114608760876  3.05532055215522  0.02645368136814
 1  10.86613930293029 -2.25848427742774  3.02213690969097
 1  9.61745007200720 -1.33722352135214  2.46308306330633
 1  11.17589133113311 -0.65856472357236  2.87917130313031
 1  10.94977124012401 -2.96438121212121 -0.73308999199920
 1  10.82437144004400 -3.62767141014101  0.96666610661066
 1  9.47325464246425 -2.90168147614761  0.43199992099210
 1 -11.75779746574657 -0.18214070797080  2.60087038403840
 1 -10.86915975497550 -1.72543508740874  2.05495927992799
 1 -12.58817971097110 -1.80020744064406  2.51763234323432
 1 -13.23913436243624 -2.99378807470747  0.92989112011201
 1 -11.73906914191419 -3.20316690559056  0.29044194219422
 1 -13.16492435143514 -2.37247643954395 -0.87810055205521
 1  8.78248015101510 -0.21897630863086  0.35242236323632
 1 -10.14435920092009 -2.06687375127513 -0.03972777477748
 1  10.72334362636263  1.66151082108211 -2.13590564956496
 1  12.24549037803780  2.32637358025803 -0.99641524952495
 1  12.62024369436944  1.27714856975698 -2.49343203220322
 1 -11.15674007500750  2.38035359945995 -1.94876559755976
 1 -10.35018099609961  1.12797681678168 -2.12137810481048
 1 -9.87878206220622  2.23398605270527 -0.91053420942094
 1  14.88499762776278 -3.09427475457546  0.31000928092809
 1 -15.25503019601960  1.42048934903490  1.89503059905991
 1  10.25962188118812  2.27057396539654  0.14940176517652
 1 -8.60225496149615  0.64573917501750 -0.43012363836384
 1  8.93421110811081  4.28643202520252  0.40225606660666
 1  7.22757914491449  3.97098195919592 -0.29930627662766
 1  7.55069432943294  3.86351741974197  1.44027086508651
 1 -8.17226002000200 -3.11648630653065 -0.01595688468847
 1 -8.73531790279028 -2.88425842874287 -1.78511040004000
 1 -6.75012078407841 -3.01492603250325 -1.14480991499150
 1  7.29925578057806  0.36430964596460 -0.43250112511251
 1 -6.23560053605361  0.41117861296130 -0.41261638663866
 1  5.54301200620062  3.04274994699470  0.41317782678268
 1 -5.18607907890789 -2.20752843084308 -1.02368851885188
 1  4.57585077807781  0.11528627462746 -0.53361542954295
 1 -4.01070247424743  0.80270964296430 -0.42124084308431
 1  3.05279090709071  3.33745563556356  1.66324956595660
 1  1.56457471847185  3.15160614261426  0.41510611261126
 1  3.37401278127813  4.07509413441344 -0.12989604760476
 1 -2.86577769276928 -3.08625091709171 -0.18090575557556
 1 -2.69513822682268 -2.79715677767777 -1.75701444344434
 1 -1.15326571157116 -2.67659520952095 -0.69885842884288
 1  2.41616297929793  0.02624934393439 -0.53661987398740
 1 -2.03550817381738  1.16712495649565 -0.34570847784778
 1  0.13573387238724  1.74414984198420  0.16438844884488
 1  0.15187697269727 -0.91980214421442 -0.51860353435343

