%nproc=4
%Mem=2GB
# td=(NStates=1) CAM-B3LYP/6-31G(d,p) 

TD

0 1
 8  14.89229475447545 -2.01782471557156 -0.30817774077408
 8 -14.81079614361436  1.98297360246025  0.74994452545255
 6  11.19350169616962 -1.55380793289329  0.89214537553755
 6 -12.44811997599760 -0.97072869076908  0.57234087808781
 6  12.66251981798180 -1.87612690879088  0.99683457545755
 6 -13.80945766476648 -0.22825084498450  0.52813562556256
 6  13.42688072707271 -1.90967328942894 -0.31182472747275
 6 -13.56073536653665  1.31219988108811  0.71683293429343
 6  10.94551387838784 -0.22415004200420 -0.00970426342634
 6 -11.32504886888689 -0.25627663456346 -0.10573824982498
 6  13.27722821382138 -0.45927441254125 -1.04284703870387
 6 -12.65276771477148  1.83372637973797 -0.36250560356036
 6  11.85624149314932  0.20192057495750 -0.89291193419342
 6 -11.43899449444944  0.96623325242524 -0.65621761776178
 6  10.73290433143314 -1.18501394239424  2.32438582258226
 6  10.36712733273327 -2.80553832183218  0.22543593359336
 6 -11.97217902390239 -1.22020171207121  2.01900803180318
 6 -12.69607610261026 -2.29841106300630 -0.13619235723572
 6  9.60894613561356  0.34634358735874  0.26353031303130
 6 -9.99150472247225 -0.94583732563256 -0.36976826182618
 6  11.50180606060606  1.15685085898590 -1.99928191819182
 6 -10.34320260826082  1.73063254035404 -1.45193208320832
 6  9.38239214421442  1.69665590859086  0.22201884188419
 6 -8.79644104110411 -0.48959090799080 -0.20677577957796
 6  8.07272637763776  2.26361234423442  0.16256703170317
 6 -7.60072810681068 -1.33157148504850 -0.35623179217922
 6  7.92906469046905  3.85601445644564  0.36936112011201
 6 -7.56585488248825 -2.83887346424642 -0.84579326432643
 6  6.88780875187519  1.53945288628863  0.00312782778278
 6 -6.34710740774077 -0.67388565046505 -0.27297622262226
 6  5.63687440144014  2.06522076007601  0.29257622662266
 6 -5.06656520252025 -1.22585965886589 -0.49167604560456
 6  4.45544433043304  1.29440563456346  0.18308622362236
 6 -3.97878917591759 -0.35037726172617 -0.24110692569257
 6  3.11237872887289  1.64353874487449  0.28149226522652
 6 -2.55472092809281 -0.68733881288129 -0.41403975897590
 6  2.89087065406541  3.02702039403940  0.59757741574157
 6 -2.40475924392439 -2.14223771577158 -0.95324655065507
 6  2.07649673867387  0.72889495349535 -0.06998767876788
 6 -1.50083204320432  0.15537342634263 -0.08388233923392
 6  0.71112794179418  0.93295610961096 -0.11191986398640
 6 -0.14543441344134 -0.04478207820782 -0.26579754975498
 1  12.95178375837584 -1.28463187328733  1.81839752875287
 1  12.94134763376338 -2.89326254035404  1.44473215721572
 1 -14.57531050405041 -0.38404584648465  1.43011393239324
 1 -14.39430292529253 -0.25096296819682 -0.40696255225523
 1  13.08497950495050 -2.50715002210221 -1.16388694669467
 1 -13.08831926392639  1.63088707080708  1.74289202320232
 1  14.00533512051205  0.25502808070807 -0.53468864986499
 1  13.55791134813481 -0.46571192829283 -2.06595932693269
 1 -13.31239644864486  2.01313637373737 -1.31058380138014
 1 -12.22906887988799  2.77700272037204  0.02400343634363
 1  11.14468715771577 -1.93813224222422  2.82707740374037
 1  9.80710903790379 -1.02406220522052  2.63124987998800
 1  11.12712645464546 -0.23130199729973  2.80136352235224
 1  10.76380264326433 -2.90701547554755 -0.63790047304730
 1  10.77506650955096 -3.74351299429943  0.56055549554956
 1  9.42605992299230 -2.62856416441644  0.06021274227423
 1 -11.77047873387339 -0.39727222112211  2.69004930193019
 1 -10.96095893489349 -1.77189973387339  2.01407519151915
 1 -12.86505739873987 -1.65897331723172  2.28342892289229
 1 -13.59498994799480 -2.77644634053405  0.31102923392339
 1 -11.99607484248425 -3.05171176007601 -0.17514461646165
 1 -12.81877973697370 -2.20072926482648 -1.31148389038904
 1  8.83196509950995 -0.19290370137014  0.43663078407841
 1 -10.16189095409541 -1.93936100000000 -0.52216601860186
 1  10.28755004700470  1.46426109610961 -2.09668172717272
 1  11.76017184618462  2.08448939183918 -1.70066567456746
 1  11.98479014901490  0.84579543444344 -2.97672036103610
 1 -10.77352175317532  2.55592115621562 -2.18360908190819
 1 -9.75130110811081  1.02390640974097 -2.08219418641864
 1 -9.68950313431343  2.12023467756776 -0.75487864386439
 1  15.11863099109911 -2.98528385548555 -0.20941266126613
 1 -15.30900559355936  1.60127742784278  1.37292838883888
 1  10.12580849984999  2.34359126712671  0.18497532253225
 1 -8.66762149814982  0.49172377347735  0.16378575257526
 1  8.99795748274827  4.21678506050605  0.09813565456546
 1  7.02259864686469  4.19418427942794 -0.30098644464447
 1  7.56094535453545  4.22034310231023  1.43052989098910
 1 -8.23467626162616 -3.42387704560456 -0.25319060806081
 1 -8.10013438443844 -2.92657266016602 -1.89523141214121
 1 -6.64473024502450 -3.37839237913791 -0.96913234723472
 1  6.95334118911891  0.34050726572657 -0.07600547554755
 1 -6.46922389838984  0.30009750485049 -0.08431355635563
 1  5.44919262426243  3.08357402940294  0.74281079007901
 1 -4.83116358735874 -2.25482316031603 -0.72691884188419
 1  4.58647184018402  0.28568331433143 -0.14394646264626
 1 -4.12485388938894  0.58533790579058  0.20798207920792
 1  3.21256688468847  3.30382227222722  1.60689393039304
 1  1.73096135713571  3.23175415741574  0.71945654765477
 1  3.23778915891589  3.61341796679668 -0.18875193319332
 1 -3.00813192819282 -2.85443773577358 -0.50255792079208
 1 -2.72407112011201 -2.04292135413541 -1.96388513051305
 1 -1.41915230023002 -2.60365791579158 -0.91414995799580
 1  2.57836919991999 -0.28847212821282 -0.26446265826583
 1 -1.84020864386439  1.07756600060006  0.39191528452845
 1  0.41555185418542  1.84857028402840  0.58872088208821
 1  0.37066885188519 -0.94516468046805 -0.63227490149015

