%nproc=4
%Mem=2GB
# td=(NStates=1) CAM-B3LYP/6-31G(d,p) 

TD

0 1
 8  14.57473299829983 -2.28288122122212 -0.39056597959796
 8 -14.56609167316732  1.93578888398840  0.96561609260926
 6  11.15388773477348 -1.34857740984098  0.95304146514651
 6 -12.34828999299930 -1.01309292719272  0.47661130513051
 6  12.63177674367437 -1.76733602970297  1.01187607960796
 6 -13.61651837083708 -0.19383740364036  0.63815662766277
 6  13.15642368136814 -1.91624394649465 -0.40424396939694
 6 -13.32229152215222  1.33245190629063  0.94136538753875
 6  10.97109643664366 -0.22709033603360  0.03308001500150
 6 -11.25845220922092 -0.25445645254525 -0.25332300830083
 6  13.15647613861386 -0.49897838293829 -1.02491524552455
 6 -12.56801923992399  1.92078508560856 -0.20710006300630
 6  11.79884575357536  0.07003738663866 -0.87704034703470
 6 -11.44034462946295  1.08192482158216 -0.69003099909991
 6  10.75718675967597 -0.96397183818382  2.37361074507451
 6  10.40535115511551 -2.71017878587859  0.47770116011601
 6 -11.80133193919392 -1.41132082398240  1.86597272827283
 6 -12.72381887688769 -2.34665588748875 -0.23995273327333
 6  9.69742498349835  0.50346929992999  0.13192715271527
 6 -10.00323589558956 -1.00020276217622 -0.46647793279328
 6  11.68939481948195  1.14608978287829 -1.97634962496250
 6 -10.43363165116511  1.72518199529953 -1.53069995999600
 6  9.31469537453745  1.69960620362036  0.11155779577958
 6 -8.76433783078308 -0.49464141304130 -0.26773187518752
 6  8.00350945594559  2.29245522852285  0.18410918591859
 6 -7.51046908090809 -1.21680000790079 -0.66616278527853
 6  7.92179396339634  3.76739559455946  0.25068925292529
 6 -7.67061535853585 -2.62636221312131 -1.06349503450345
 6  6.79198916991699  1.53601254225423  0.05099261426143
 6 -6.30115281228123 -0.64168243014301 -0.36640556555656
 6  5.53547426142614  2.11516575457546  0.22476944594459
 6 -5.05784433043304 -1.19842691559156 -0.39867674567457
 6  4.40785957195720  1.34686088008801  0.11431934693469
 6 -3.91700299729973 -0.46451867586759 -0.23277609260926
 6  2.97127461846185  1.68370276127613  0.20126424242424
 6 -2.64442989898990 -0.86712679167917 -0.40854920992099
 6  2.82791435843584  3.13463115511551  0.60198785678568
 6 -2.35413418141814 -2.23299679167917 -0.89176040204020
 6  2.01571066006601  0.66690875487549  0.09009832983298
 6 -1.52314427442744  0.02330021902190 -0.12732668366837
 6  0.66896372537254  0.88693150715072  0.18144947294729
 6 -0.22908277827783 -0.13778137813781 -0.14597556755676
 1  13.44193277327733 -1.13956736683668  1.53873956295630
 1  12.43325682468247 -2.67994120822082  1.53715139913991
 1 -14.36477945094510 -0.41583902580258  1.36778769976998
 1 -14.00166366136614 -0.29422729462946 -0.33181503750375
 1  12.74483549054905 -2.54570387748775 -1.00756131413141
 1 -12.83272370437044  1.36580056215622  1.95192292629263
 1  14.13893848084808  0.04115669356936 -0.64676985798580
 1  13.46718227522752 -0.76646200330033 -1.97985071607161
 1 -13.19900510951095  2.19792485258526 -1.14729747274727
 1 -12.24127010001000  2.95093011311131  0.06911794779478
 1  10.78538122712271 -1.90028845784578  3.01466616261626
 1  9.70526885388539 -0.51547134613461  2.31452820782078
 1  11.49911365336534 -0.06747561466147  2.74552793879388
 1  10.68362462546255 -2.83634840884088 -0.53339002200220
 1  10.79460846374637 -3.59688833183318  1.27586702670267
 1  9.29191650865087 -2.56216752475248  0.57622434343434
 1 -11.82091377737774 -0.56284877877788  2.75025532253225
 1 -10.80699353835384 -1.65633817771777  1.81777556155616
 1 -12.50216110911091 -2.27787520742074  2.61207178717872
 1 -13.67097754675467 -2.75407410331033 -0.09141101010101
 1 -11.93292852785279 -3.05032162106211 -0.21890899289929
 1 -12.78900675967597 -1.98092728462846 -1.26145888788879
 1  8.81609351235124 -0.16692110311031  0.33177029802980
 1 -9.96818158315832 -2.14678174207421 -0.55108891089109
 1  10.63720501250125  1.64656932693269 -2.26043810281028
 1  12.45874170317032  2.02353329622962 -1.83849945794579
 1  11.99871154115412  0.47539839473947 -2.88321101010101
 1 -10.88873327432743  2.51209677377738 -1.98687940894089
 1 -9.78237421542154  1.11326534563456 -2.17325329232923
 1 -9.74188837283728  2.43466612071207 -0.79952310831083
 1  14.53977310531053 -2.99637496459646  0.34646292629263
 1 -15.28832352535253  1.54510181028103  1.75125622162216
 1  9.98370428942894  2.39441634963496  0.37031385638564
 1 -8.31772650865086  0.67678227932793  0.00285965996600
 1  8.86003369036904  4.15597897989799  0.25075091609161
 1  7.17382376937694  3.92796765776578 -0.61572791879188
 1  7.45411467146715  4.25256632463246  1.13974081208121
 1 -8.00876367036704 -3.32082674057406 -0.30206549554955
 1 -8.55470984198420 -2.66934693759376 -1.69814170317032
 1 -6.49738551055106 -3.07055159505951 -1.39840527452745
 1  6.72189804480448  0.65641885688569 -0.24621249624962
 1 -6.61809878587859  0.51353884898490 -0.18498362336234
 1  5.65131283628363  3.10591626362636  0.28278478747875
 1 -4.83133360436044 -2.35914359235924 -0.67281343134313
 1  4.55296848984899  0.27992273827383  0.14427235923592
 1 -4.05335673967397  0.50803017501750  0.09272055305531
 1  3.24132976097610  3.37280917091709  1.48887212821282
 1  1.81467972897290  3.40195117711771  0.60729533153315
 1  3.38161354135414  3.57434405940594 -0.15261831983198
 1 -3.01819293429343 -2.99586187818782 -0.28913657865787
 1 -2.49961867486749 -2.33051011301130 -1.98707744974497
 1 -1.24459484448445 -2.45918346834684 -0.67623616661666
 1  2.40095145814582 -0.44177745874587 -0.21923813581358
 1 -1.82723734673467  0.89480772477248  0.27331342434243
 1  0.13546384538454  2.00510593759376  0.28769077907791
 1  0.27090887588759 -1.14538470247025 -0.12352402640264

