%nproc=4
%Mem=2GB
# td=(NStates=1) CAM-B3LYP/6-31G(d,p) 

TD

0 1
 8  14.68543406840684 -2.23121605470547 -0.23841076407641
 8 -14.55956102010201  2.16312161726173  1.33409294029403
 6  11.18904125012501 -1.31422397449745  1.09141530253025
 6 -12.41421658565856 -1.00866248414841  0.44903854785479
 6  12.66317988398840 -1.74315361146115  1.10301519351935
 6 -13.77664438343834 -0.08502652255226  0.69908272027203
 6  13.33255129412941 -1.78925124722472 -0.38224176917692
 6 -13.41514080708071  1.33107176827683  1.09840109110911
 6  11.00344967196720 -0.13102072907291  0.03265997299730
 6 -11.26463282728273 -0.16358736563656 -0.27629530553055
 6  13.28227871887189 -0.43462194729473 -0.92623537753775
 6 -12.62146458445845  1.97264027112711 -0.04526387938794
 6  11.94176004500450  0.10895127802780 -0.87580022302230
 6 -11.49821041604160  1.17331396049605 -0.56603859985999
 6  10.69640068106811 -0.93816925792579  2.44679806380638
 6  10.31591221122112 -2.64011177917792  0.69826321632163
 6 -11.84334614061406 -1.43941363326333  1.82499863086309
 6 -12.71886838183818 -2.28179940184018 -0.37019575757576
 6  9.62800804180418  0.45891484448445  0.09827378737874
 6 -10.11535710771077 -1.03450619251925 -0.40828211321132
 6  11.79195507550755  1.33850902480248 -1.84577656765677
 6 -10.52425071307131  1.97968744584458 -1.42911980198020
 6  9.34263816881688  1.76309255225523  0.10859749974998
 6 -8.80018141514151 -0.59740168906891 -0.46308141014101
 6  7.98240734573457  2.24159014201420  0.13558433343334
 6 -7.59953798779878 -1.33950227812781 -0.55063123212321
 6  7.96982876687669  3.77671652665266  0.43638782278228
 6 -7.80265856285629 -2.78044762166217 -0.85298398339834
 6  6.88542851385139  1.54763370437044  0.05083259825983
 6 -6.36114881188119 -0.68442670457046 -0.45151407640764
 6  5.54924563856386  2.02444668266827  0.27711468046805
 6 -5.07635618161816 -1.23249032193219 -0.61754863286329
 6  4.50572935893589  1.23666986098610 -0.03319540454045
 6 -3.96295759275928 -0.49502172617262 -0.44205702070207
 6  3.14585207620762  1.57258164916492 -0.01634751875188
 6 -2.63162861886189 -0.93096317531753 -0.54269262426243
 6  2.68076964396440  2.90855854785479  0.38564622262226
 6 -2.34783355135514 -2.40931442344234 -0.88481970797080
 6  2.10365945494549  0.51958402240224 -0.13918459845985
 6 -1.52851481148115 -0.03866597759776 -0.28207215821582
 6  0.77735456445645  0.75960877487749 -0.12474114611461
 6 -0.15793566356636 -0.21285888588859 -0.39023999399940
 1  13.19430801080108 -1.05998940904090  1.72211790079008
 1  12.75571907090709 -2.60829404350435  1.47473515751575
 1 -14.15499847284729 -0.71833927582758  1.58350927192719
 1 -14.31566506150615 -0.02173004490449 -0.29647150315031
 1  12.55481648864886 -2.32488179527953 -1.08907946594660
 1 -12.77221765376538  1.08791277337734  2.11285901990199
 1  13.99648423542354  0.36167874577458 -0.34904008500850
 1  13.74050960796080 -0.39590494759476 -1.87543027402740
 1 -13.17224243324332  2.18176323642364 -0.86645938893889
 1 -12.53140911391139  3.18046306640664  0.15728676467647
 1  10.60352304130413 -1.95904433343334  2.94318901490149
 1  9.88498682568257 -0.49280907990799  2.40313706870687
 1  11.50110385238524 -0.22514138123812  2.93994738073807
 1  10.73770003300330 -3.30631540554055 -0.19806648964896
 1  10.38232723562356 -3.31841048404841  1.43085252525253
 1  9.21963928092809 -2.33402471047105  0.18154487548755
 1 -11.59055074107411 -0.56061855575558  2.29795009200920
 1 -10.92829566856686 -2.24217676157616  1.74412819681968
 1 -12.49251014401440 -2.09373679357936  2.43120370037004
 1 -13.44444489348935 -2.77163585948595  0.19704783578358
 1 -11.83809904490449 -3.03986057495750 -0.16318342034203
 1 -13.09042690169017 -1.98556774867487 -1.51509425142514
 1  8.85906780978098 -0.23339775077508  0.25317243824383
 1 -10.46136090109011 -2.08079514341434 -0.62764656665667
 1  10.72542383438344  1.38249291929193 -1.97737979697970
 1  12.01880770977098  2.44760570347035 -1.43287889588959
 1  12.42664433443344  1.09868072297230 -2.78621131013101
 1 -11.02996739773977  2.67638320242024 -1.95132585358536
 1 -9.74471044904490  1.45257927702770 -2.01805777277728
 1 -9.83633781778178  2.67250990509051 -0.69371252725273
 1  14.65056418441844 -3.00006533363336  0.41640992099210
 1 -14.76598129112911  2.06093339343934  2.21486258225823
 1  10.04764068306831  2.62929983798380  0.01451827682768
 1 -8.57281201720172  0.50745534663466 -0.16558718471847
 1  9.03453114011401  4.25002838483848  0.86607244824482
 1  7.40638702570257  4.44013887488749 -0.38376472247225
 1  7.20138939893989  3.83489455745575  1.25369220722072
 1 -8.63102589658966 -3.38059271717172 -0.36728201720172
 1 -8.26890126112611 -3.00954095699570 -1.78360024902490
 1 -6.79225499749975 -3.54523906380638 -0.91940737473747
 1  6.84929078407841  0.65662887788779 -0.44420229522952
 1 -6.43079005500550  0.51614911001100 -0.36566169116912
 1  5.39857756275628  3.13541921392139  0.46124263326333
 1 -4.91984245524552 -2.35944362236224 -1.16259240924092
 1  4.62525571857186  0.30802554855486 -0.25914798279828
 1 -4.02790419441944  0.55515488748875 -0.19892861186119
 1  2.99217484548455  3.18650054005401  1.22302554355436
 1  1.78604686568657  3.08913989598960  0.33682828482848
 1  3.47427280728073  3.72941956695670 -0.03101615961596
 1 -2.58591970697070 -3.32704499649965 -0.03332099709971
 1 -3.10671938493849 -2.53977103910391 -1.76434517651765
 1 -1.21068145314531 -2.60207775777578 -1.06899544254425
 1  2.44540590359036 -0.37140042104210 -0.65774198619862
 1 -1.79688431143114  1.06453469746975 -0.03639754675468
 1  0.24212451145115  1.78306373337334  0.30696270627063
 1  0.12191397639764 -1.25930609460946 -0.68785045904590

