%nproc=4
%Mem=2GB
# td=(NStates=1) CAM-B3LYP/6-31G(d,p) 

TD

0 1
 8  14.50377590259026 -2.50696362946295 -0.54500142314231
 8 -14.77897296129613  1.84078938403840  0.89033856485649
 6  11.17372971897190 -1.41444399649965  0.97470363136314
 6 -12.38574373837384 -1.15742736063606  0.40647429142914
 6  12.67793135913591 -1.90486978307831  1.00776566856686
 6 -13.65287200620062 -0.32367038693869  0.44269708170817
 6  13.15353339233923 -1.99109143124312 -0.37792133713371
 6 -13.52340163316332  1.16575523662366  0.85210646164616
 6  10.94023335033503 -0.20791841884188 -0.02388568156816
 6 -11.23737010101010 -0.37195820272027 -0.28402607860786
 6  13.12820331133113 -0.66863534863486 -1.04510726472647
 6 -12.76551898989899  1.75513852095210 -0.25646499949995
 6  11.85907177617762  0.15886626952695 -0.95510815381538
 6 -11.44105470047005  0.96414304340434 -0.64772676867687
 6  10.72525356635663 -1.01410685168517  2.41086447044704
 6  10.18114873487349 -2.61341910991099  0.55289867986799
 6 -11.90051185718572 -1.42906259815982  1.85676180718072
 6 -12.68628512351235 -2.39461068296830 -0.23386212421242
 6  9.63040828182818  0.45187414041404  0.08178213821382
 6 -9.92853842584258 -1.02997573947395 -0.45637692269227
 6  11.60054593459346  1.14548972287229 -2.00741273127313
 6 -10.45525381338134  1.76398587568757 -1.46412330233023
 6  9.32688659365937  1.81498774177418  0.09156579657966
 6 -8.71776317331733 -0.44410635953595 -0.42762786478648
 6  8.08874797979798  2.35903188618862  0.23299407440744
 6 -7.43325135913591 -1.19670799869987 -0.59051522052205
 6  7.94508629262926  3.81768062306231  0.62294647864786
 6 -7.50880917791779 -2.63891346824682 -0.99939862486249
 6  6.90208017901790  1.53548248924892  0.04606212121212
 6 -6.32863556055606 -0.48150641254125 -0.23907283228323
 6  5.58824953895390  2.00612485048505  0.31374834383438
 6 -4.92286083208321 -0.92924999789979 -0.26267314531453
 6  4.50455924192419  1.26692288628863 -0.05817790279028
 6 -3.84686598359836 -0.19268149214921 -0.03933674867487
 6  3.16153364436444  1.71154554555456  0.07075119111911
 6 -2.58212366836684 -0.72579265826583 -0.19105746074607
 6  2.83488505550555  3.23075076707671  0.35542320032003
 6 -2.40604937293729 -2.13098659065907 -0.62079330533053
 6  2.16990607960796  0.80058212221222 -0.13727440744074
 6 -1.51720368036804  0.17551544054405  0.00686673567357
 6  0.78427525652565  0.97397021102110  0.01229255725573
 6 -0.14858472847285 -0.00069766976698 -0.06795776577658
 1  13.23173175317532 -1.04348775887589  1.71841753075307
 1  12.75014851385139 -3.10830404450445  1.35434311831183
 1 -14.30835380838084 -0.80658810071007  1.16910783178318
 1 -14.12836633163316 -0.46686455835584 -0.34210606660666
 1  12.61979298629863 -2.68820812791279 -1.07169772777278
 1 -13.08332876487649  1.31662564466447  1.82238997299730
 1  13.94410899789979  0.08070064796480 -0.76633181418142
 1  13.41266682368237 -0.64589994709471 -2.25329806080608
 1 -13.40895610461046  1.88180324042404 -1.17594033703370
 1 -12.64887086008601  2.96086110621062 -0.02392135613561
 1  10.80847353635363 -1.79532796179618  3.21098579457946
 1  9.64168249524952 -0.68339813881388  2.53843059805981
 1  11.35922966496650 -0.02494136123612  2.55270865686569
 1  10.61054731773177 -3.33203797779778 -0.23604028702870
 1  10.30404940784078 -3.36218486148615  1.47385682568257
 1  9.18789610661066 -2.30462177017702  0.48796551755176
 1 -11.51778346434643 -0.60100259415942  2.52962325932593
 1 -10.96286912591259 -2.17143968786879  1.81701548554856
 1 -12.65039593259326 -1.93981140104010  2.66388696869687
 1 -13.58840928992899 -2.86676537243724  0.35518364936494
 1 -12.00689592459246 -3.21990857975798 -0.20682778477848
 1 -12.97137499649965 -2.06747593949395 -1.34870761276128
 1  8.80292219521952 -0.01662607360736  0.44482160316032
 1 -10.01003576857686 -2.09456652055206 -0.30256405840584
 1  10.47423871587159  1.35150982098210 -2.10420247924793
 1  12.36870269926993  2.00733167606761 -2.01224683268327
 1  11.81000267026702  0.55390624552455 -3.00077276627663
 1 -10.97204160516051  2.50256582068207 -2.07437815881588
 1 -9.94752073007301  1.01113513261326 -2.11781774877488
 1 -9.75204938893889  2.34506716081608 -0.89267242324232
 1  14.65550467846785 -3.42494782188219 -0.05471719171917
 1 -15.08562325532553  1.69305660576058  1.89203029902990
 1  10.20351627062706  2.64528143614361  0.14866169116912
 1 -8.71663639963996  0.67310191129113 -0.26081670767077
 1  9.00489817681768  4.15641902390239  0.59035487648765
 1  7.27528391539154  4.19639450045004 -0.22001834783478
 1  7.42452171217122  3.84548561656166  1.61690852885289
 1 -8.21343413741374 -3.25923058095810 -0.28869415841584
 1 -8.05316968796880 -2.69580958385839 -1.89884177317732
 1 -6.62957872987299 -3.11505604550455 -1.31345677967797
 1  7.01289714471447  0.52155537053705 -0.22875075007501
 1 -6.32588956495650  0.66564405950595 -0.06310143514352
 1  5.41445915091509  2.88623429542954  0.64321083008301
 1 -4.65041551255125 -1.84549222722272 -0.75440159015902
 1  4.68048124112411  0.24378912491249 -0.52328439643964
 1 -3.91337274127413  0.67512688468847  0.40052133313331
 1  2.54488011601160  3.36632852285229  1.71718495949595
 1  1.88455671667167  3.72781376337634  0.04683928592859
 1  3.73591897189719  3.88193481848185 -0.06931998999900
 1 -3.05682679767977 -2.63635592759276  0.05310764576458
 1 -2.71585029802980 -2.41439850185018 -1.60126886888689
 1 -1.47689807480748 -2.56781433143314 -0.41921046404641
 1  2.54746610961096 -0.22292557355736 -0.26953316531653
 1 -1.87392201520152  1.20845908990899  0.20699679267927
 1  0.39002930193019  2.07169259625963  0.22133414341434
 1 -0.12951116611661 -1.17352751675168 -0.35165683968397

