%nproc=4
%Mem=2GB
# td=(NStates=1) CAM-B3LYP/6-31G(d,p) 

TD

0 1
 8  14.89187471247125 -2.19661259435944 -0.16028295129513
 8 -14.72820788478848  1.88990429552955  1.03316284728473
 6  11.19594194019402 -1.42791534363436  0.98969513051305
 6 -12.40195535953595 -0.94459607750775  0.64701834583458
 6  12.69402296829683 -1.88039733583358  1.03779867186719
 6 -13.66177289628963 -0.26259427932793  0.58947175917592
 6  13.51345938493849 -1.92721504360436 -0.34461800680068
 6 -13.53064235723572  1.23434209530953  0.91017226822682
 6  11.08698802580258 -0.22640026702670  0.03962066906691
 6 -11.24570093409341 -0.17292829972997 -0.22481015701570
 6  13.27164765576557 -0.50651913701370 -0.88914166816682
 6 -12.68667110511051  1.79069207630763 -0.21481083408341
 6  11.92677854685469  0.16944732763276 -0.81041368436844
 6 -11.45814640964096  1.06606323542354 -0.62425442144214
 6  10.73155419641964 -1.14291973297330  2.43550693469347
 6  10.34657527752775 -2.67789555755576  0.47432082208221
 6 -11.94033583958396 -1.33348304020402  2.09097522852285
 6 -12.55029152415242 -2.35242646454645 -0.11647038503850
 6  9.63598883988399  0.37170612361236  0.08603256325633
 6 -10.05872144414442 -0.94861760366037 -0.42897418241824
 6  11.72648852885288  1.16992216611661 -1.95247723772377
 6 -10.47855614361436  1.84241371847185 -1.42238912891289
 6  9.37192109710971  1.71168741174117  0.10877751775178
 6 -8.83786518351835 -0.54774672357236 -0.28508361036104
 6  8.05336444144414  2.26156213921392  0.16430720572057
 6 -7.58133616761676 -1.30579890779078 -0.54508067706771
 6  8.05976776077608  3.65206406140614  0.52721690569057
 6 -7.70407870487049 -2.77119669656966 -0.81774045904590
 6  6.86888685968597  1.56982592359236 -0.01078356335634
 6 -6.41154385138514 -0.60696895879588 -0.38146707170717
 6  5.55034574857486  2.04432867086709  0.20351732073207
 6 -5.11389993599360 -1.20438751165117 -0.54166104410441
 6  4.37845663166317  1.27336353035304 -0.01491357635764
 6 -4.01573287028703 -0.33858608260826 -0.43771658665867
 6  3.11127861886189  1.72033642464246  0.08489260526053
 6 -2.67484294029403 -0.70754083308331 -0.61424977997800
 6  2.80814238123812  3.14655234723472  0.58852651065107
 6 -2.43380214821482 -2.15168866086609 -1.02519374537454
 6  2.05953504250425  0.76808887288729 -0.09051973197320
 6 -1.58472043204320  0.14991288028803 -0.36047999899990
 6  0.74819164816482  0.94804761876188 -0.01782045404540
 6 -0.26569643964396 -0.04953255325533 -0.39247021702170
 1  13.09938851885189 -1.04938834893489  1.67657334633463
 1  12.75007850685068 -2.82671588568857  1.48365604960496
 1 -14.31482445544554 -0.77035447734773  1.36092701370137
 1 -14.27694118911891 -0.29820769266927 -0.35591744774477
 1  12.92662366936694 -2.66999630673067 -1.07573813181318
 1 -12.93646407840784  1.52519650175017  1.73357109110911
 1  14.05893048004801  0.19737231513151 -0.37253243424342
 1  13.71361691869187 -0.35266062316232 -2.08435116611661
 1 -13.41240644964496  1.83298835893589 -1.06009875287529
 1 -12.28243421642164  2.86465148524852 -0.25287425142514
 1  10.76136882588259 -2.10908933793379  3.00588528452845
 1  9.71033936093609 -0.71764156315632  2.43439019401940
 1  11.55712945494549 -0.43434230133013  2.91101448744874
 1  10.46548281128113 -2.71886666066607 -0.60027671067107
 1  10.73649265216521 -3.53821246424642  0.99321876187619
 1  9.32960027702770 -2.16870817881788  0.63775049604960
 1 -11.86872855885589 -0.37140963486349  2.80640093709371
 1 -11.04131697069707 -2.01618416231623  2.05893967796780
 1 -12.80825171817182 -1.93508092799280  2.57926850685068
 1 -13.57044749374937 -2.70841953785379  0.30616874787479
 1 -11.85357059205921 -3.00385697459746  0.23906680468047
 1 -12.72257011601160 -2.45860505240524 -1.21238398039804
 1  8.77410931393139 -0.18191260226023 -0.02146502550255
 1 -10.38384314931493 -2.01456852075208 -0.43498730073007
 1  10.57686897889789  1.36971164116412 -2.19588164716472
 1  12.11141697069707  2.11519246214621 -1.65123073107311
 1  12.24117578757876  0.74609546444645 -2.84842753175318
 1 -11.07211161216122  2.76825238933893 -1.99594031503150
 1 -10.07079305730573  1.22671669076908 -2.13179914691469
 1 -9.98566275027503  2.57742039613961 -0.78566172217222
 1  14.79661878987899 -3.24189951705170 -0.17366908690869
 1 -15.16246093909391  1.40017731783178  1.71787288328833
 1  10.03969988898890  2.42624953295330  0.16610343534353
 1 -8.60993572957296  0.54680928202820 -0.17721834783478
 1  9.09783747074707  4.02776615861586  0.75963180418042
 1  7.55427181418142  4.46281114211421 -0.25728207420742
 1  7.48062732273227  3.75632670067007  1.48582542054205
 1 -8.14842763676368 -3.46882154005401 -0.07414270327033
 1 -8.31763613461346 -2.90603060596060 -1.70539242824282
 1 -6.70583635563556 -3.09104364426443 -1.17651308530853
 1  6.83920977597760  0.40714392939294 -0.15750362536254
 1 -6.62045902190219  0.50730822592259 -0.31225635063506
 1  5.56009371437144  2.99455512751275  0.32606911591159
 1 -5.02545301630163 -2.21373905190519 -0.67424357435744
 1  4.47698089108911  0.24022876887689 -0.37596966496650
 1 -4.17997940194019  0.76180555255526 -0.45847456645665
 1  3.48126375437544  3.32402429242924  1.41330457145715
 1  1.76652491349135  3.40763174517452  0.99952455445545
 1  2.99838521852185  3.74630125512551 -0.31327438543854
 1 -3.00230134513451 -2.89509180118012 -0.35339300430043
 1 -2.87934664766477 -2.39676673867387 -1.97342608460846
 1 -1.35749613461346 -2.53532108210821 -0.93127167016702
 1  2.51219258225823 -0.15916919791979 -0.45899211121112
 1 -1.84928955195520  1.06293453745375  0.18237433043304
 1  0.42537283628363  1.98665409240924 -0.06485447544754
 1  0.08270005500550 -1.09959012301230 -0.79416109010901

