%nproc=4
%Mem=2GB
# td=(NStates=1) CAM-B3LYP/6-31G(d,p) 

TD

0 1
 8  14.65528105310531 -2.35929886298630 -0.27491441444144
 8 -14.59307437143714  2.06779208430843  1.02885241624162
 6  11.24751709770977 -1.47704025612561  1.03547970897090
 6 -12.28318348234824 -0.99748136603660  0.65557920192019
 6  12.59490305630563 -1.83754305040504  0.96293118511851
 6 -13.61414813381338 -0.23333135303530  0.79354216621662
 6  13.26442448144815 -2.00901322342234 -0.37864140914091
 6 -13.36711600460046  1.27178583968397  0.90606185718572
 6  10.96649597659766 -0.30048767576758 -0.00220351335134
 6 -11.22657902190219 -0.30605161206121 -0.27601527752775
 6  13.23117360836084 -0.65530401550155 -1.05913866786679
 6 -12.61208364636464  1.74740774787479 -0.22060141314131
 6  11.85283115211521  0.04963534643464 -0.94951759475948
 6 -11.38255885088509  0.95677230633063 -0.67871986798680
 6  10.80390143114311 -1.17621306230623  2.40215359935994
 6  10.40993161316132 -2.63322109010901  0.48620201020102
 6 -11.70824263026303 -1.27174686658666  2.10040617161716
 6 -12.58871536653665 -2.49374059595960  0.08173943594359
 6  9.69428466946695  0.40297925092509  0.20140410041004
 6 -10.03639921192119 -1.08283102500250 -0.52896418141814
 6  11.61468734873487  1.29609478337834 -1.89121111111111
 6 -10.52330061806181  1.71806128322832 -1.77445433543354
 6  9.33390729572957  1.79595583858386  0.06183282328233
 6 -8.82180357735774 -0.56954890379038 -0.40922602460246
 6  7.96895600060006  2.30392637563756  0.17398817381738
 6 -7.62005003900390 -1.29652798069807 -0.68662483148315
 6  7.88112989698970  3.74655351035103  0.53352753675368
 6 -7.70380867786779 -2.75619519641964 -1.16174485948595
 6  6.80141011201120  1.59166810781078  0.11001851685169
 6 -6.42396509350935 -0.68829709160916 -0.44745367036704
 6  5.51155186918692  2.09942418041804  0.21191816081608
 6 -5.06868541454145 -1.18070514341434 -0.61629850785078
 6  4.38088687468747  1.32502869686969  0.07144505950595
 6 -3.97844914191419 -0.29205142914291 -0.39646246124612
 6  3.11895938693869  1.76654104510451  0.15632974897490
 6 -2.61799725572557 -0.67050712971297 -0.43821217621762
 6  2.74658622562256  3.18901659365937  0.60869852785279
 6 -2.23549231723172 -2.07854134613461 -0.80716194219422
 6  2.00624971397140  0.87701976597660 -0.07012769276928
 6 -1.64306626662666  0.21068895789579 -0.11805575657566
 6  0.66002283128313  1.06333914791479  0.08589991799180
 6 -0.27799766976698  0.05294769476948 -0.19674064406441
 1  13.35423400340034 -1.02684609470947  1.59782547154715
 1  12.85057855685569 -2.79536275037504  1.49189687368737
 1 -14.25809878287829 -0.70800824272427  1.51701262226223
 1 -14.16631012601260 -0.36394426632663 -0.16534839083908
 1  12.84498550555055 -2.76836614371437 -0.98123868186819
 1 -12.81504193619362  1.45467945004500  1.88962669666967
 1  13.84321890889089  0.06060863876388 -0.50434561556156
 1  13.52201775877588 -0.94018937603760 -2.10037276827683
 1 -13.27404261326133  1.81691675177518 -1.20251299429943
 1 -12.13138911191119  2.89003402350235 -0.25319428342834
 1  11.17148983798380 -2.10087851685168  2.76956165216522
 1  9.71060938793879 -0.88929872887289  2.63819057405741
 1  11.52877661966197 -0.56285515261526  2.93930731673167
 1  10.61294755775578 -2.90911568556856 -0.61956863986399
 1  10.20210921382138 -3.52641128412841  1.15868530853085
 1  9.38529584658466 -2.24439574757476  0.20217693869387
 1 -11.23184487048705 -0.36164865876588  2.67219751675168
 1 -10.69521236023602 -1.83429597349735  2.15013879787979
 1 -12.46933782678268 -1.68831625152515  2.72994357435744
 1 -13.56287673667367 -2.70803949984999  0.66867499849985
 1 -11.73930916591659 -3.21216780568057  0.06570946894689
 1 -12.80875873487349 -2.41203039493949 -1.01653439543954
 1  8.62800470347035 -0.02860727172717  0.53247036803680
 1 -10.16848161316132 -2.13163022692269 -0.86615041704170
 1  10.53590488248825  1.19669433943394 -2.25970802980298
 1  12.02924875387539  2.23821476437644 -1.38696430443044
 1  12.49880155015502  1.25482633753375 -2.74307699669967
 1 -11.41951635263526  2.05544110821082 -2.62032275327533
 1 -9.80948692669267  0.94604862396240 -2.13971993899390
 1 -9.96922110611061  2.61244389848985 -1.29945310131013
 1  14.64840396839684 -3.32831815891589  0.16050433043304
 1 -15.16667136013601  1.66647394749475  1.68331942794279
 1  10.22893881288129  2.32778968696870 -0.07769094409441
 1 -8.73938867486749  0.43833843494349 -0.11551217721772
 1  8.87382506950695  4.18265164716472  0.14383022402240
 1  7.08226461346135  4.40337519851985 -0.05708205420542
 1  7.67205646564656  3.79223029102910  1.73889072707271
 1 -8.16994978897890 -3.31907656555656 -0.41080636963696
 1 -8.24684905590559 -2.67363736663666 -2.05004689368937
 1 -6.57551332333233 -2.97273181308131 -1.33250868486849
 1  6.95153100810081  0.61535475047505 -0.25096297129713
 1 -6.55227220322032  0.45168266336634  0.05969084408441
 1  5.29618732373237  3.10203587558756  0.38950545954596
 1 -4.88437890889089 -2.22926060406041 -1.19524567456746
 1  4.66034922792279  0.25063980998100 -0.38379044704470
 1 -4.26173757775778  0.80800017201720 -0.17313603260326
 1  2.93917954595460  3.26251814181418  1.74090733173317
 1  1.58245650665067  3.61566254825483  0.59600420242024
 1  3.35017039703970  3.80557718271827  0.01363830583058
 1 -2.48319943494349 -3.00110240224022 -0.09672733773377
 1 -2.73406211921192 -2.52012907490749 -1.59632837483748
 1 -0.99211959695970 -2.38952650265027 -0.98729727272727
 1  2.43493485648565 -0.23093637463746 -0.26770298229823
 1 -1.82793741674167  1.17130537453745  0.14005009800980
 1  0.11992229122912  2.00449587658766  0.31417342734273
 1  0.07062884788479 -0.95047521152115 -0.24973664766477

