%nproc=4
%Mem=2GB
# td=(NStates=1) CAM-B3LYP/6-31G(d,p) 

TD

0 1
 8  14.82848837383738 -2.08997193029303 -0.03953087608761
 8 -14.70841590559056  2.00266557165717  0.98383791479148
 6  11.11471381738174 -1.51963451555156  0.97173333433343
 6 -12.25746091009101 -1.00950256815682  0.73345698969897
 6  12.69632319831983 -1.75822511861186  1.19051394339434
 6 -13.56241296029603 -0.20643866376638  0.65819863186319
 6  13.36594463346335 -1.77906022812281 -0.17329087408741
 6 -13.43799309230923  1.26876553765377  0.98638988998900
 6  10.90027935493549 -0.25819344634463  0.07073378037804
 6 -11.28009437343734 -0.19679068596860 -0.10912858885889
 6  13.21587207820782 -0.47155564066407 -0.84057681168117
 6 -12.67481991999200  1.83715672277228 -0.13765311831183
 6  11.85786165516552  0.15316569946995 -0.83633627662766
 6 -11.43333392839284  1.07931456055606 -0.54770676667667
 6  10.47991903290329 -1.23121856285629  2.38375175917592
 6  10.41123174317432 -2.73659142714271  0.37900129012901
 6 -11.80252205820582 -1.34412410431043  2.16674280528053
 6 -12.45535203020302 -2.33944516641664 -0.02536127412741
 6  9.56451169216922  0.33568252125212  0.06791075107511
 6 -10.02962853485349 -0.94350709260926 -0.45248653365337
 6  11.64547042704270  1.24608978287829 -1.89642163216322
 6 -10.50502879087909  1.90123960106011 -1.40435732573257
 6  9.32710661566157  1.71137738073807  0.05749238923892
 6 -8.76933833083308 -0.48995094399440 -0.35484058605861
 6  8.00367947294729  2.28144412741274  0.04275505050505
 6 -7.60317835183518 -1.34006233413341 -0.60236640564056
 6  8.02381416541654  3.74344319931993  0.40285446944694
 6 -7.70069836683668 -2.69155873277328 -1.08673735873587
 6  6.82441241224122  1.48429737073707 -0.06654913991399
 6 -6.39980267726773 -0.68089635153515 -0.36748567356736
 6  5.50771148514851  2.07983222122212  0.08344531353135
 6 -5.05419396539654 -1.15576264916492 -0.68489536753675
 6  4.44296308230823  1.25850204420442 -0.06487857285729
 6 -3.97846914391439 -0.34693691769177 -0.39475229022902
 6  3.08134562556256  1.65653004400440  0.18429254525453
 6 -2.59749520552055 -0.79547962696270 -0.66460481548155
 6  2.85360692769277  3.04305199719972  0.73302096009601
 6 -2.36526529452945 -2.27114060606061 -1.18802002800280
 6  2.03113220222022  0.80064212821282 -0.13101378137814
 6 -1.54678663866387  0.06580446944694 -0.26455040604060
 6  0.68813564256426  0.94449726372637 -0.08076674867487
 6 -0.16546641664166 -0.09155675567557 -0.47057802780278
 1  12.99655823582358 -0.86310972107211  1.78340402940294
 1  12.95378887788779 -2.66518973307331  1.88623630763076
 1 -14.22803577657766 -0.45887332923292  1.46758767976798
 1 -14.25384887988799 -0.36370424232423 -0.18828068406841
 1  13.10837184418442 -2.66194550165017 -0.67734829282928
 1 -12.84837526952695  1.40788477057706  1.96640437443744
 1  14.04106869386939  0.24038661656166 -0.42808798979898
 1  13.44305986298630 -0.81482683978398 -2.00018274927493
 1 -13.28870407940794  2.09644470457046 -0.94349709270927
 1 -12.41351732473247  2.99863488358836  0.08263929992999
 1  10.86741943094309 -1.95959438843884  3.15287998399840
 1  9.39409773677368 -1.22954275327533  2.32529928492849
 1  10.77463120512051 -0.34815368246825  2.84223760976098
 1  10.74063032603260 -3.13557833183318 -0.60602728572857
 1  10.60732973587359 -3.72419106210621  1.02008144814481
 1  9.30372768976898 -2.65355666366637  0.25510223122312
 1 -11.61111279727973 -0.37215970987099  2.80520081708171
 1 -10.83729656865687 -1.85005754965497  2.32137592159216
 1 -12.42964385738574 -1.86118353825383  2.85857643764376
 1 -13.46161661066107 -2.88198689458946  0.26707483848385
 1 -11.76154138913891 -3.11331792069207  0.26162906090609
 1 -12.63077093609361 -2.31599079097910 -1.05965870787079
 1  8.77287919091909 -0.25292970397040  0.51141826282628
 1 -10.38243300830083 -2.07902496639664 -0.63734753675367
 1  10.51886317831783  1.52008667866787 -1.70750280928093
 1  12.40055588458846  2.06678762166217 -2.09106471447145
 1  11.87522919291929  0.63875473037304 -2.81829451845184
 1 -11.07091149214921  2.58341390549055 -2.10602132313231
 1 -9.97301327932793  1.39870388948895 -2.24057002400240
 1 -9.81505568956896  2.24665731983198 -0.92658581458146
 1  15.18887801580158 -2.90979630673067  0.16071435143514
 1 -15.28077277027703  1.49198649874987  1.61400249624963
 1  10.14895081408141  2.44814172217222 -0.02471564656466
 1 -8.72608734473447  0.45725032613261  0.16231560556056
 1  8.94964265126513  4.36481986398640  0.32846868786879
 1  7.36860324732473  4.22225708670867 -0.43184953095310
 1  7.57826708670867  4.14978604660466  1.36660349834984
 1 -8.59303209720972 -3.17042170007001 -0.54863015201520
 1 -7.72407677867787 -2.65300530343034 -2.25705759475948
 1 -6.70388616061606 -3.34361890179018 -0.80648608260826
 1  6.83316917191719  0.44345756075608 -0.14727260226023
 1 -6.51362833883388  0.38874636973697 -0.12486761176118
 1  5.42100980598060  3.16834250625062  0.23956046504650
 1 -4.94391486248625 -2.17360503850385 -1.17300345034503
 1  4.62079527252725  0.20864561056106  0.01503943594359
 1 -4.15226663066307  0.51489086108611  0.09478075907591
 1  3.30860648864886  3.22951484148415  1.58132137313731
 1  1.82761102210221  3.35103608560856  0.78262286428643
 1  3.26459183918392  3.79469609460946 -0.13785684368437
 1 -2.84549566456646 -3.01069336133613 -0.45809347434743
 1 -3.14168288128813 -2.40118718071807 -2.17997673967397
 1 -1.31302168716872 -2.34327187718772 -1.51658020102010
 1  2.42188355135514 -0.29146242724272 -0.54803101510151
 1 -1.95483010601060  1.06599484348435  0.22696878987899
 1  0.29560985998600  1.82194762176218  0.42843485348535
 1  0.40867265226523 -0.92811297529753 -0.89974164816482

