%nproc=4
%Mem=2GB
# td=(NStates=1) CAM-B3LYP/6-31G(d,p) 

TD

0 1
 8  14.40256578157816 -2.63682661576158 -0.38430535353535
 8 -14.80701576557656  1.58067337243724  0.82537206820682
 6  11.07504985098510 -1.48497104920492  0.91206736773677
 6 -12.41440660466047 -1.24866648454846  0.50553419741974
 6  12.50352391839184 -1.84606390249025  1.05495038703870
 6 -13.69481620062006 -0.46821484138414  0.52361517351735
 6  13.15324336333634 -2.07015933803380 -0.37852139713971
 6 -13.54420371337134  1.00263892499250  0.83760501150115
 6  10.91482080908091 -0.30030765776578 -0.04677797079708
 6 -11.24913127712771 -0.35284629152915 -0.28578625462546
 6  13.15765625662566 -0.91139962506251 -1.19924267826783
 6 -12.67831026902690  1.70598360546055 -0.17055640864086
 6  11.77863373237324 -0.11360097719772 -1.06032867586759
 6 -11.46298689368937  0.93639026812681 -0.62411440744074
 6  10.78665970697070 -1.05692113311331  2.38990237423742
 6  10.17428804880488 -2.69998776677668  0.65785917591759
 6 -11.77512931893189 -1.57250694259426  1.94344047504750
 6 -12.77705420042004 -2.46700792269227 -0.18038677667767
 6  9.64080932193219  0.41140009300930  0.18324228422842
 6 -10.04182975497550 -0.94379712161216 -0.56930821582158
 6  11.44412029202920  0.91866704060406 -2.08447043704370
 6 -10.66248453645365  1.79190866796680 -1.52116900690069
 6  9.39186309130913  1.62832907590759  0.16356299629963
 6 -8.77703910091009 -0.53108505740574 -0.24304940694069
 6  8.15860496549655  2.44909089208921  0.27902867786779
 6 -7.47640567456746 -1.16002433033303 -0.34962113111311
 6  8.18705048904891  3.96588544354435  0.86619080308031
 6 -7.54660295729573 -2.66506608350835 -0.88087677267727
 6  7.00154012501250  1.71261020202020  0.11047856285629
 6 -6.37734043104310 -0.44029229112911 -0.31798072307231
 6  5.65509622362236  2.20375461346135  0.21093806280628
 6 -5.02373091909191 -0.99538661156116 -0.29600647864786
 6  4.54857364336434  1.49095528952895 -0.01894397939794
 6 -3.94278557555756 -0.06752897689769 -0.22118493349335
 6  3.25060255125513  1.94079847084708  0.03432754875488
 6 -2.50124558055806 -0.53578365736574 -0.33345170017002
 6  2.91230279727973  3.35720341234123  0.38490614861486
 6 -2.24972374037404 -1.98238173017302 -0.65458668466847
 6  2.18486757575758  0.91966403040304 -0.26178685868587
 6 -1.48940090009001  0.38121601060106 -0.07681163216322
 6  0.89218604760476  1.18533134713471 -0.19094776677668
 6 -0.06990686068607  0.15138753875388 -0.20810178017802
 1  13.10321890189019 -0.89903331343134  1.39068475747575
 1  12.70036353535354 -2.76087930203020  1.52674035803580
 1 -14.43581655465547 -0.92762020392039  1.25606652765277
 1 -14.22162565756576 -0.47340521242124 -0.47713956995700
 1  12.28845985298530 -2.87389669676968 -0.65306586458646
 1 -13.00675110711071  1.15632961506151  1.90730846484648
 1  14.10487507450745 -0.16502392449245 -0.98972415341534
 1  13.23261881888189 -1.03186854395440 -2.20801353235324
 1 -13.30094530353035  1.97276233633363 -1.22027477047705
 1 -12.32847882088209  2.74404942504250  0.31740277627763
 1  11.23040572957296 -1.85391382038204  3.21100579657966
 1  9.64444277127713 -0.98145794479448  2.68694544954495
 1  11.07952169416942  0.07711884478448  2.71945533153315
 1  10.57149341234124 -3.16626140014001 -0.25962264526453
 1  10.35934493739374 -3.45081372437244  1.43170261026103
 1  9.15552286928693 -2.47787909590959  0.40479720072007
 1 -11.85412709870987 -0.54699719361936  2.65593589058906
 1 -10.76407924692469 -1.75699824372437  1.70731451545155
 1 -12.38596948994899 -2.56093351325133  2.40777135713571
 1 -13.52222267126713 -2.68730742664266  0.47712584358436
 1 -11.94285952095210 -3.29370595949595 -0.17914501650165
 1 -13.28923678267827 -2.17507669956996 -1.27179992199220
 1  8.79105100810081 -0.30808521952195  0.48166528752875
 1 -10.11613637863786 -2.07808487238724 -0.93884768676868
 1  10.40464175617562  1.21439610961096 -2.04698675767577
 1  12.05971180018002  1.75853679657966 -1.95083069106911
 1  11.60960263026303  0.62755361026103 -3.07754044304430
 1 -11.44056845784578  2.34979054315432 -2.18162888388839
 1 -9.58327430543054  1.47538155725573 -2.15037100410041
 1 -10.05503968796880  2.39545219931993 -0.84639779577958
 1  14.62583171117112 -3.28461378847885  0.47025530553055
 1 -15.58450314331433  1.25348264836484  1.31864296029603
 1  10.25206112511251  2.44059096709671 -0.04062723772377
 1 -8.74965970197020  0.52819742084208  0.25183455745575
 1  9.38376606360636  4.21552493449345  1.33015885688569
 1  7.85373176017602  4.72955781678168  0.15421907590759
 1  7.53633289328933  3.98349941794179  1.68171500950095
 1 -8.03074586858686 -3.19061371927193 -0.26467175617562
 1 -8.12165653665367 -2.74249425232523 -1.84153604260426
 1 -6.40835660766077 -3.10168470837084 -1.03098853285329
 1  7.18100395539554  0.70296351135114 -0.27185506050605
 1 -6.26604358035804  0.49234672977298  0.01040591559156
 1  5.50235794079408  3.26185185718572  0.67863437243724
 1 -4.88254872587259 -1.94240191819182 -0.73941009100910
 1  4.66505969896990  0.47013175917592 -0.39952202020202
 1 -4.10420182418242  0.83910328232823 -0.08303702270227
 1  2.72295792379238  3.60880277027703  1.55012825382538
 1  1.84673293429343  3.71646262826283 -0.25575097309731
 1  3.81081646164617  4.15890251525153  0.12185912791279
 1 -2.97453856885689 -2.76266855885589 -0.19415708070807
 1 -2.49299801280128 -2.04841190319032 -1.79578832083208
 1 -1.11489187418742 -2.21659920992099 -0.65051359435944
 1  2.62041340434043 -0.09697297829783 -0.39988620062006
 1 -1.64868949194920  1.45602384638464 -0.07007091409141
 1  0.62693299229923  2.29493492049205 -0.01570956095610
 1  0.46739852485249 -0.78160832483248 -0.25432710671067

