%nproc=4
%Mem=2GB
# td=(NStates=1) CAM-B3LYP/6-31G(d,p) 

TD

0 1
 8  14.72743826882688 -2.01167410051005 -0.39798672167217
 8 -14.71499656365637  2.07252255735574  0.98774830583058
 6  11.26278862486249 -1.41556410851085  1.04937109810981
 6 -12.36050121412141 -0.95947756565657  0.60066371037104
 6  12.71093465946594 -1.62831212731273  1.09621451345135
 6 -13.75793251225122 -0.14355237513751  0.65825863786379
 6  13.43145118411841 -1.69673199529953 -0.37577112211221
 6 -13.39300859385939  1.32061072217222  0.87587883888389
 6  10.94846417341734 -0.18597622462246  0.01261796879688
 6 -11.27976434043404 -0.17273828072807 -0.24898257425743
 6  13.26875736673667 -0.38764724982498 -0.98785153915392
 6 -12.70825326332633  2.00431343844384 -0.24219357235724
 6  11.90175604460446  0.23492387528753 -0.92013465646565
 6 -11.49921051605160  1.14777140624062 -0.70648264426443
 6  10.78069911091109 -1.14062950395039  2.39423280728073
 6  10.50303092309231 -2.73692146014601  0.47863125312531
 6 -11.81120292629263 -1.25990568246825  2.01526765776578
 6 -12.64753124812481 -2.35022624452445  0.05776703870387
 6  9.56507174817482  0.31699065206521  0.04120808080808
 6 -10.07306287828783 -0.93841658355836 -0.51164244924492
 6  11.66174205420542  1.19592476637664 -1.98000999099910
 6 -10.57801608960896  1.73919339643964 -1.58785567556756
 6  9.32380628562856  1.70929717271727  0.03920056005601
 6 -8.81767316431643 -0.48156010491049 -0.41692679467947
 6  8.10003910891089  2.28979496249625  0.29393016801680
 6 -7.63039107310731 -1.33009133703370 -0.54075024402440
 6  8.00258204220422  3.71809066406641  0.72175635963596
 6 -7.76370466746675 -2.75073465036504 -1.00855954095410
 6  6.90824079507951  1.49448838983898  0.09516703170317
 6 -6.39012170917092 -0.62732099399940 -0.46369529452945
 6  5.63718443244324  1.98981321932193  0.18241521052105
 6 -5.06036458245825 -1.17121419431943 -0.54175105310531
 6  4.43090187618762  1.24413060706071 -0.11215330033003
 6 -3.90872216921692 -0.36551877587759 -0.34814762976298
 6  3.09877736873687  1.57701209220922  0.13338745474547
 6 -2.64498995499550 -0.91334141314131 -0.42670102510251
 6  2.60254182118212  2.90460815281528  0.52606026402640
 6 -2.40318908690869 -2.32753624562456 -0.97370859685969
 6  2.10319940894089  0.53472553655366  0.02298161816182
 6 -1.51138309830983 -0.00172228322832 -0.18634258525853
 6  0.74092092109211  0.68353116711671  0.15772710071007
 6 -0.24974484448445 -0.18383598359836 -0.32053302330233
 1  13.04028260826083 -0.90266367646765  1.80561625062506
 1  12.98392189118912 -2.41766498059806  1.74913259725973
 1 -14.13319629262926 -0.47327476937694  1.55822674367437
 1 -14.39604309930993 -0.40324819671967 -0.18591044704470
 1  12.77348835583558 -2.38933824092409 -0.93647420542054
 1 -12.75716614861486  1.35160914301430  1.82612034603460
 1  14.08609319631963  0.14070664856486 -0.30791597259726
 1  13.74412996999700 -0.35803116021602 -2.00198292929293
 1 -13.30705591459146  2.25273033313331 -1.17858060106011
 1 -12.31387736073607  2.99829484958496  0.12652368836884
 1  11.20928361736174 -2.00754918391839  2.89532422842284
 1  9.68850717771777 -0.97199699869987  2.45320207520752
 1  11.30073381538154 -0.36688555565556  3.02907629362936
 1  10.88011427442744 -3.00003477747775 -0.34598128112811
 1  10.70984998789879 -3.69569821282128  1.38984842484248
 1  9.44802211921192 -2.54123543154315  0.55687240824082
 1 -11.40143182918292 -0.28861135503550  2.63674397139714
 1 -10.83804664366437 -1.88073061696170  2.03687747174718
 1 -12.58204909790979 -1.72553997389739  2.66613719371937
 1 -13.45176562556256 -2.76576527242724  0.59360749174917
 1 -11.83363859885989 -3.17314390329033  0.34266716471647
 1 -12.93557141614161 -2.43129232113211 -0.95903864586459
 1  8.81132303530353 -0.48927333833383  0.06687380838084
 1 -10.13966873187319 -1.96616368026803 -0.73216701870187
 1  10.61677296929693  1.40466513651365 -2.26604866386639
 1  12.23560938993899  2.20726166906691 -1.63786939493949
 1  12.11105277527753  0.68415927082708 -2.98181087008701
 1 -10.93413781478148  2.60032559665967 -2.33099382038204
 1 -9.99550552855285  0.97016103520352 -2.19047501450145
 1 -9.71421560556056  2.14865751985199 -0.96001915791579
 1  14.88428755675567 -2.70792611971197  0.21020930093009
 1 -14.97442213521352  2.24422172227223  2.01854295029503
 1  10.22899881888189  2.39411631963196  0.13778060306031
 1 -8.70294503050305  0.59178377947795 -0.05964659065907
 1  9.00535822282228  4.09597297929793  0.70979682068207
 1  7.40233662066207  4.50121498249825  0.11535518951895
 1  7.46438569856986  3.80414148214821  1.61590842884288
 1 -8.35132792679268 -3.41265592349235 -0.49007429642964
 1 -8.30782515351535 -2.81037104000400 -1.96612850185019
 1 -6.83615938793879 -3.25779031893189 -0.93853928792879
 1  6.85013086808681  0.60960417541754 -0.20339821482148
 1 -6.65713268926893  0.53198069316932 -0.22306743174317
 1  5.36358406340634  2.99756542854285  0.78919542854285
 1 -4.88164863586359 -2.19136681468147 -0.73806995699570
 1  4.41880507350735  0.18292303830383 -0.51597366536654
 1 -4.04704610861086  0.76179555155516 -0.25121384038404
 1  2.77551317931793  3.01403329332933  1.60514375537554
 1  1.47438569956996  3.08809979197920  0.24463906590659
 1  3.35641102110211  3.64448107310731  0.04389133113311
 1 -2.52319343434343 -3.22524481648165 -0.23880154515452
 1 -3.20731944494450 -2.62688975097510 -1.81533027502750
 1 -1.43044342934293 -2.30262781278128 -1.25771431443144
 1  2.20189155215522 -0.57616089708971 -0.27402361436144
 1 -1.77378200120012  1.00900914491449  0.09203529652965
 1  0.62564286328633  1.71376680368037  0.51066307630763
 1 -0.03062127712771 -1.17473763776378 -0.77920959495950

