%nproc=4
%Mem=2GB
# td=(NStates=1) CAM-B3LYP/6-31G(d,p) 

TD

0 1
 8  14.86590211521152 -1.96806974007401 -0.06654357735774
 8 -14.67344240824082  1.93265857095710  1.40348987998800
 6  11.25820816681668 -1.50760331243124  1.12371853285329
 6 -12.41105626962696 -1.04020563846385  0.65618926292629
 6  12.80563412941294 -1.70288958505851  1.21866675867587
 6 -13.70475719471947 -0.20935895579558  0.71423423542354
 6  13.46141418041804 -1.77013933603360 -0.21917546254625
 6 -13.48676796979698  1.29623828492849  1.05783703470347
 6  10.97977730473047 -0.30510813781378  0.14789149614962
 6 -11.37478384238424 -0.24521552845285 -0.11253892989299
 6  13.28864935593559 -0.33993247834783 -0.93624637863786
 6 -12.68808124612461  1.95661866896690 -0.04687404040404
 6  11.90168603760376  0.09599998289829 -0.82638528152815
 6 -11.52821341634163  1.07984461356136 -0.51079307530753
 6  10.80138117911791 -1.14888032903290  2.45854923892389
 6  10.44154477447745 -2.79999776777678  0.60962435243524
 6 -11.84781658765877 -1.47112680458046  2.04055018601860
 6 -12.74029052405240 -2.26265748764877 -0.14251298929893
 6  9.67418265926593  0.23163211621162  0.18201216121612
 6 -10.10604617661766 -0.97249999189919 -0.43966525152515
 6  11.63438931893189  1.32564773867387 -1.71194318431843
 6 -10.64143243124312  1.81149062616262 -1.43568045804580
 6  9.36559046404641  1.60344658765877  0.14190083008301
 6 -8.86868826582658 -0.48339028792879 -0.54493959595960
 6  8.11157026202620  2.17758374137414  0.15238601360136
 6 -7.61112914691469 -1.17364569246925 -0.58118428742874
 6  7.91021280528053  3.71492034703470  0.57460164416442
 6 -7.68123642064206 -2.64561413831383 -1.04547323232323
 6  6.94067403840384  1.46071501250125 -0.03049553455346
 6 -6.37766046304630 -0.51854011591159 -0.41200012501250
 6  5.56631734573457  1.93694793279328  0.01843881288129
 6 -5.11820036603660 -1.10412748564856 -0.57494437243724
 6  4.42271105710571  1.16585277927793 -0.12377446244624
 6 -4.00220151715171 -0.33802602660266 -0.42212502750275
 6  3.12358984998500  1.61484587558756 -0.10462634663466
 6 -2.61792724872487 -0.82620269926993 -0.71524987998800
 6  2.75391695869587  3.09789748174817  0.20115777377738
 6 -2.40719948794880 -2.23123661566157 -1.00212143814381
 6  2.15604469346935  0.71076314031403 -0.34263494349435
 6 -1.60387234723472  0.13528141714171 -0.55039899089909
 6  0.71026785578558  0.94927774177418 -0.33753242524252
 6 -0.23120299029903 -0.12083968396840 -0.53292426242624
 1  13.18480706070607 -1.01429483958396  1.84266995599560
 1  13.00833433243324 -2.70749396349635  1.73692137613761
 1 -14.18385135813581 -0.65276271817182  1.47579850085009
 1 -14.32228572357236 -0.30713858575858 -0.25801765776578
 1  12.91013202020202 -2.57037634473447 -0.81641219921992
 1 -12.66094652665267  1.11762574467447  1.89722745674568
 1  13.98479306630663  0.27051962986299 -0.34554973597360
 1  13.57880343734374 -0.53181853895390 -1.97219995099510
 1 -13.50441565056506  2.24052911301130 -0.80765350835084
 1 -12.32286825982598  2.86536155625563  0.38341937793779
 1  11.05664835383538 -1.75715414441444  3.23505820182018
 1  9.64492281928193 -1.25007480648065  2.45230198519852
 1  11.00494423642364 -0.14679354645465  2.73371675767577
 1  10.89632589558956 -2.96354112811281 -0.37761444444444
 1  10.74234323722372 -3.70532917591759  0.98971841184118
 1  9.43046036303630 -2.64595590359036  0.43252997399740
 1 -11.70025171117112 -0.72774526842684  2.64169446644664
 1 -10.88648148714871 -2.03992653655366  2.19841362536254
 1 -12.50249114211421 -2.15959337923792  2.62230281028103
 1 -13.71130157915792 -2.62415111101110  0.15061319231923
 1 -12.09762499749975 -3.03846043494349 -0.10187728972897
 1 -12.72402026102610 -2.04797398929893 -1.28339108110811
 1  8.78912081508151 -0.46389080008001  0.49098621962196
 1 -10.24489925492549 -1.88280534443444 -0.76469027102710
 1  10.62219351135113  1.36408107810781 -2.12406446544655
 1  11.77943377237724  2.31152209510951 -1.15424103210321
 1  12.19998166816682  1.13603445834583 -2.69820250925093
 1 -11.25222962396240  2.51617718181818 -2.14577529852985
 1 -10.01630760876088  1.20180419951995 -2.13623959095910
 1 -9.88716290029003  2.37529018311831 -0.63534669066907
 1  14.84571369936994 -2.81780710781078  0.39813809380938
 1 -15.11804649764976  1.67674497459746  2.23351444744474
 1  10.12935885488549  2.26066297429743 -0.02704587958796
 1 -8.84798953495349  0.60102470357036 -0.25570619661966
 1  8.88935662266226  4.17622100410041  0.93601944294429
 1  7.50490687768777  4.26332119311931 -0.12023836983698
 1  7.26115537553755  3.77544861286129  1.41301813981398
 1 -8.31286408040804 -3.21305596349635 -0.30776606560656
 1 -8.25239961096110 -2.83513351625162 -1.86183807280728
 1 -6.73574934693469 -3.06526106600660 -1.14559999399940
 1  7.15705156015602  0.26007922292229 -0.08463633863386
 1 -6.40982795879588  0.47246474157416 -0.24733985898590
 1  5.35164286928693  3.08086375837584 -0.04147763876388
 1 -5.10955142614261 -2.22637031503150 -0.84333048304830
 1  4.53660685368537  0.14851959795980 -0.21604367236724
 1 -3.96870827482748  0.67025639763976 -0.08267698669867
 1  3.20752638063806  3.22629451945194  1.28164140514051
 1  1.77733599459946  3.29865084708471  0.35750035203520
 1  3.36888226822682  3.76558318331833 -0.48299135713571
 1 -3.06078719371937 -2.95465775777578 -0.34753241824182
 1 -2.56625533853385 -2.34064112611261 -2.20594933693369
 1 -1.28767915291529 -2.44433198319832 -0.74339288228823
 1  2.53953531653165 -0.36133941494149 -0.62456866886689
 1 -1.84218884188419  0.99133737773777 -0.26338024502450
 1  0.34546484548455  2.01899732673267 -0.31073906390639
 1  0.27150893589359 -1.13590375437544 -0.72258393239324

