%nproc=4
%Mem=2GB
# td=(NStates=1) CAM-B3LYP/6-31G(d,p) 

TD

0 1
 8  14.68505403040304 -2.19270220332033 -0.29692661566157
 8 -14.58199326332633  2.09089439453945  1.06338586958696
 6  11.16346869286929 -1.48210076217622  1.03358951995200
 6 -12.28278344234423 -1.08668028592859  0.71779542354235
 6  12.70901446744674 -1.94205350145015  1.05293018501850
 6 -13.55150186918692 -0.19260728062806  0.82987579957996
 6  13.31747978697870 -1.88141046314631 -0.29601314631463
 6 -13.29922921592159  1.32568122922292  0.98930018101810
 6  10.95682500950095 -0.19856748374837  0.12732943994399
 6 -11.26460282428243 -0.23155416231623 -0.17560523652365
 6  13.26063655465546 -0.40780926602660 -0.87794054805481
 6 -12.55445788378838  1.93631663876388 -0.23496284928493
 6  11.87641351035104  0.14078446134613 -0.82992563556356
 6 -11.41345194019402  1.00970759985999 -0.59183117911791
 6  10.70105114611461 -1.08868430943094  2.46591997599760
 6  10.24893551355136 -2.58328609660966  0.48016140614061
 6 -11.74058586458646 -1.44457414931493  2.09450558155816
 6 -12.69769626462646 -2.34514573647365 -0.00212895089509
 6  9.53993923492349  0.36378533153315  0.16858081808181
 6 -10.05290086208621 -1.02558530043004 -0.51896318131813
 6  11.68178405840584  1.39950512441244 -1.74179616961696
 6 -10.57363565156516  1.76991646874687 -1.56984387438744
 6  9.25706961196120  1.67916415941594  0.07742438243824
 6 -8.73145454245425 -0.50291224012401 -0.32291739373937
 6  7.98186729172917  2.32011799479948  0.15015579057906
 6 -7.54391242524252 -1.20125845374537 -0.55813198219822
 6  7.90952273627363  3.71686054105411  0.49449363336334
 6 -7.74790308730873 -2.71959153605361 -1.07979666466647
 6  6.92092206320632  1.58958789978998 -0.08322080708071
 6 -6.37417011401140 -0.66760502240224 -0.40166909190919
 6  5.49621033503350  2.00191442944294  0.17529449844985
 6 -5.06405495149515 -1.05558263116312 -0.61071794979498
 6  4.39762854885489  1.21048724272427 -0.00038212321232
 6 -3.93060435743574 -0.39848207220722 -0.38405122012201
 6  3.01331882288229  1.60653504450445  0.14611872787279
 6 -2.64774023002300 -0.87399747874787 -0.67213556855686
 6  2.78388995599560  3.11636932893289  0.45484314231423
 6 -2.27040580858086 -2.23804729672967 -0.94768599459946
 6  2.07635672467247  0.61933399739974 -0.08435911591159
 6 -1.63876583658366  0.09617750675068 -0.36025997699770
 6  0.68285511451145  0.89869268326833 -0.13198187018702
 6 -0.23416328632863 -0.07580518051805 -0.42318328832883
 1  13.30665924592459 -1.35428883898390  1.75708139713971
 1  12.71726522552255 -3.06849006310631  1.36839452345235
 1 -14.35740871387139 -0.48339578147815  1.72328324932493
 1 -14.06631012601260 -0.27336520842084 -0.21800365636564
 1  12.72814382138214 -2.67580688778878 -0.88323888188819
 1 -12.75278571057106  1.68193217531753  1.96705443944394
 1  13.89965455245525  0.29472205010501 -0.27465264626463
 1  13.54321987898790 -0.38702405950595 -1.82466519751975
 1 -13.15435064406441  1.84604966506651 -1.10019276227623
 1 -12.20555652865287  2.92568758885889 -0.19650861486149
 1  10.98748143714371 -2.06429485848585  3.16262095809581
 1  9.64358268526853 -0.95441524052405  2.48132488748875
 1  11.40618436043604 -0.47556642374237  2.65062844884488
 1  10.45519178217822 -3.05800057405741 -0.49531621462146
 1  10.57929693259326 -3.48995763876388  1.13031247124712
 1  9.04846216321632 -2.50922223022302  0.51496821782178
 1 -11.57917960396040 -0.45450794469447  2.78183848084809
 1 -10.93284612361236 -2.01179372327233  2.06464024802480
 1 -12.48660955395539 -2.06302372227223  2.55987656765677
 1 -13.58594904390439 -2.76894559045905  0.50008813981398
 1 -11.85421065606561 -2.97617420632063 -0.01059816181618
 1 -13.11056891589159 -2.12494168606861 -0.95701844384438
 1  8.56616851985199 -0.29159357035704  0.55764288528853
 1 -10.23095786078608 -1.95529259315932 -1.37824162616262
 1  10.73617490949095  1.73984865486549 -1.64382644164416
 1  12.52175800480048  2.22507345024502 -1.17885349334933
 1  11.97155882588259  1.09512036693669 -2.68528121712171
 1 -11.09782418341834  2.39991555565556 -2.13059378037804
 1 -9.81618759675968  1.12514653375338 -1.98620458745875
 1 -9.81720590459046  2.45888854295430 -1.05957911391139
 1  14.75445457345735 -3.02915824292429  0.11660994099410
 1 -15.23415810881088  1.46263356345635  1.54101519751975
 1  10.16683260226023  2.41121802980298  0.15531235623562
 1 -8.61584632063206  0.61563616471647  0.11363073707371
 1  8.90009769676968  4.14060744274427  0.54976081708171
 1  7.48809519651965  4.35950081108111 -0.34347069306931
 1  7.16757601760176  3.93831489948995  1.31716855485549
 1 -8.11597439143914 -3.06082073997400 -0.28336362536254
 1 -8.62884725572557 -2.72436243914391 -1.95244713371337
 1 -6.69271504350435 -2.88545308520852 -1.43915934993499
 1  7.02804865986599  0.61184439943994 -0.41881975697570
 1 -6.45803277927793  0.36462395749575 -0.11217634263426
 1  5.43850155515552  3.01123679567957  0.43144965396540
 1 -4.84636510751075 -2.25904358235824 -0.72516866686669
 1  4.61949514251425  0.16551129712971 -0.33230529852985
 1 -4.02401380538054  0.79232860486049 -0.16986570557056
 1  3.28744437243724  3.40188207820782  1.36223946494649
 1  1.64425268626863  3.26937791979198  0.53786838883888
 1  3.20176555655566  3.54589121412141 -0.52141519951995
 1 -2.17865898089809 -2.99337162916292  0.12183451845184
 1 -3.14019273227323 -2.92966002800280 -1.54079282128213
 1 -1.24011439643964 -2.17847539753975 -1.50098864186419
 1  2.56671803480348 -0.24892817381738 -0.44799101110111
 1 -2.04555917891789  1.07759600360036 -0.33734764176418
 1  0.25653595259526  1.92106753375338 -0.13443143314331
 1  0.28718050305030 -1.08965912991299 -0.76308798279828

