%nproc=4
%Mem=2GB
# td=(NStates=1) CAM-B3LYP/6-31G(d,p) 

TD

0 1
 8  14.74885041004100 -2.21732466556656 -0.05862278527853
 8 -14.77112217621762  1.63652895799580  1.19737926892689
 6  11.08822116811681 -1.48325087718772  0.94267042804280
 6 -12.31225638963896 -1.07346896479648  0.70180382438244
 6  12.47212077807781 -1.98090738683868  1.14234912691269
 6 -13.59212593159316 -0.41886990689069  0.74278709070907
 6  13.27284532353235 -1.99021134323432 -0.26170971597160
 6 -13.53534282728273  1.06132479357936  1.01454270527053
 6  10.91865119211921 -0.44882250925093  0.06501320832083
 6 -11.24273063706371 -0.20533154005401 -0.10926860286029
 6  13.20407089808981 -0.67678616371637 -0.87182993699370
 6 -12.86051848984898  1.66868987608761 -0.06977633063306
 6  11.87299316831683  0.06522690559056 -0.82201484448445
 6 -11.52989358435843  0.98976560566057 -0.46380837683768
 6  10.63717475847585 -1.22149759075908  2.41766515051505
 6  10.31215183518352 -2.70585835383538  0.64301769176918
 6 -11.66719852585258 -1.43140283218322  2.00997712871287
 6 -12.54562105710571 -2.40698192009201 -0.03746248424842
 6  9.60298553955396  0.30123907690769  0.14620858085809
 6 -9.97596316831683 -0.89445218711871 -0.46638792379238
 6  11.74762064206421  1.19465463936394 -1.78754074407441
 6 -10.68559684768477  1.83780325742574 -1.47165405540554
 6  9.31988589358936  1.61485772877288  0.03502014201420
 6 -8.78009940694069 -0.42292424132413 -0.54169927192719
 6  8.03655276027603  2.26308229122912  0.07275805080508
 6 -7.54548258225823 -1.13511183908391 -0.73552972197220
 6  7.98148993299330  3.76645550055006  0.30802498649865
 6 -7.64162245924592 -2.65512508940894 -1.09007769276928
 6  6.83756372737274  1.55428436943694  0.05592310731073
 6 -6.31931462846285 -0.51855011691169 -0.53715264026403
 6  5.59883059705971  2.13611784978498  0.16799376837684
 6 -5.00328887488749 -0.97025409830983 -0.63998087608761
 6  4.51952073807381  1.41946814081408 -0.07323940894089
 6 -3.89151044804480 -0.16133835783578 -0.47217003200320
 6  3.05688317931793  1.76895128612861 -0.01613749774977
 6 -2.58395385138514 -0.53350342934293 -0.57740609560956
 6  2.89358092509251  3.21740943294329  0.36071372937294
 6 -2.31143991199120 -2.01220471247125 -0.91344257025703
 6  2.07874696369637  0.86431849584958 -0.21789246924692
 6 -1.60849280928093  0.31594948394839 -0.30442439343934
 6  0.75727255625563  1.15328814281428 -0.12263093509351
 6 -0.16544641464146  0.10814321432143 -0.37875884588459
 1  13.05524410441044 -1.32827623772377  1.78344403340334
 1  12.64048754775478 -2.94609782388239  1.83569125312531
 1 -14.22731570457046 -0.90465790769077  1.56462738373837
 1 -14.26639013401340 -0.62449032093209 -0.18981083708371
 1  12.80525153215322 -2.87571687878788 -0.73491404940494
 1 -12.89770020202020  1.25921990409041  2.05241297529753
 1  13.97913250025002 -0.06085350745074 -0.12958813981398
 1  13.57565312231223 -0.50567592469247 -1.97600033103310
 1 -13.47609281828183  1.62382744284428 -0.99409215221522
 1 -12.65272124512451  2.74518953905391  0.28364940094009
 1  10.70312300130013 -2.27389581858186  3.04452914891489
 1  9.58476680368037 -1.02433223222322  2.44241099609961
 1  11.18248199019902 -0.28453732083208  2.93600698669867
 1  10.44323058605861 -3.30100487448745 -0.55543222622262
 1  10.58640764366437 -3.53572221522152  1.53024246424642
 1  9.23463078007801 -2.69872118011801  0.99949667066707
 1 -11.30197188318832 -0.65491798569857  2.63913421042104
 1 -10.64541738073807 -1.85863840774077  1.78375215921592
 1 -12.33382427542754 -1.99061648154815  2.69702028202820
 1 -13.47437788678868 -2.99737843374337  0.49759789078908
 1 -11.59542477747775 -3.15739232813281  0.17475037303730
 1 -12.79184704370437 -2.35845503740374 -1.12670541254125
 1  8.90476237923792 -0.50530494149415  0.40517763876388
 1 -10.03523828882888 -1.98715577947795 -0.41251505350535
 1  10.54686597859786  1.63410808080808 -1.87411947094709
 1  12.47036286528653  1.98468941184118 -1.28969457745774
 1  12.01173284328433  0.88058891379138 -2.80343303230323
 1 -11.35942034303430  2.38516408050805 -2.30238095909591
 1 -10.19518549654966  1.07131115021502 -1.86856282328233
 1 -10.08695287928793  2.61879453355336 -0.90361351735174
 1  14.94197332533253 -3.11468679577958  0.09011729172917
 1 -15.07320201320132  1.46717401750175  2.02096319231923
 1  10.10951687068707  2.40081698969897 -0.08659183418342
 1 -8.47495223122312  0.77266186728673 -0.20771139713971
 1  9.15646333333333  4.20907428942894  0.41807764876488
 1  7.19080546754675  4.31801666266627 -0.39938628462846
 1  7.65632489248925  4.11657272527253  1.36311314931493
 1 -7.98362115611561 -3.22304696259626 -0.28859414841484
 1 -8.28567293829383 -2.93500350325033 -2.04710659965997
 1 -6.71135690769077 -3.17310185008501 -1.53780921492149
 1  6.69469532453245  0.25553876887689  0.02530465546555
 1 -6.27295427142714  0.57708520362036 -0.46892201720172
 1  5.35494319931993  3.25575124712471  0.19730623962396
 1 -4.94835530653065 -2.14395207320732 -0.92970912091209
 1  4.51822501550155  0.26736148214821 -0.10648271627163
 1 -4.00711211521152  0.79027839983998  0.05084636563656
 1  3.21009663766377  3.35188707870787  1.41288452945295
 1  1.86592485348535  3.37818880088009 -0.03863926192619
 1  3.65917129712971  3.68122474747475 -0.24783784178418
 1 -2.81776289128913 -2.53406569856986 -0.25121278627863
 1 -2.46192490549055 -2.10918798079808 -1.91130987298730
 1 -1.24498488348835 -2.32652020202020 -1.01870041304130
 1  2.28176953995400  0.06732345134513 -0.70561677367737
 1 -1.72262688568857  1.38504674867487 -0.01463537053705
 1  0.38290858985899  2.18585401240124 -0.03440143014301
 1  0.06839862486249 -1.07929809380938 -0.61065273927393

