%nproc=4
%Mem=2GB
# td=(NStates=1) CAM-B3LYP/6-31G(d,p) 

TD

0 1
 8  14.74002952795280 -2.24477741084108 -0.37354427742774
 8 -14.87791285528553  1.90759606470647  0.70787031803180
 6  11.36057840384038 -1.48388094019402  0.97235339633963
 6 -12.46421158515852 -1.07521913981398  0.57926157015702
 6  12.81736530253025 -1.72342163826383  0.95256014801480
 6 -13.78702542154215 -0.18632665256526  0.46563937593759
 6  13.38376641564157 -1.87639996209621 -0.34805835083508
 6 -13.71022031503150  1.28892755385539  0.78081933293329
 6  10.96969629662966 -0.24115174217422  0.05782248924892
 6 -11.29150551455145 -0.24768577547755 -0.11336901290129
 6  13.23720421142114 -0.52160064516452 -1.05858861286129
 6 -12.62794523252325  1.95288829592959 -0.14864421742174
 6  11.96272214121412  0.20205058795880 -0.88404104710471
 6 -11.49977057205720  1.03652028112811 -0.46289828582858
 6  10.82094313531353 -1.12410785178518  2.40386377037704
 6  10.56137675767577 -2.71992976097610  0.57675106510651
 6 -12.08567037303730 -1.42574226612661  1.96468259925993
 6 -12.88040453545355 -2.35073629552955 -0.28697743574357
 6  9.64242948394839  0.31982093509351  0.14195815581558
 6 -10.05842141414142 -0.95004774667467 -0.48747003200320
 6  11.71339721972197  1.26406158005801 -1.88775076507651
 6 -10.40803909190919  1.77426690379038 -1.35430232023202
 6  9.40579448444845  1.60358660166017  0.09117575757576
 6 -8.78867026402640 -0.50382233113311 -0.18056315831583
 6  8.11914101910191  2.24247023002300  0.28277905290529
 6 -7.63501153515351 -1.27989631753175 -0.46782295129513
 6  7.93363514751475  3.69789864486449  0.57134131813181
 6 -7.64711300830083 -2.75244482138214 -0.81458014301430
 6  6.95681565256526  1.55219416041604 -0.03101558655866
 6 -6.46886958395840 -0.64355261716172 -0.32601152615262
 6  5.63372408640864  2.04218845684568  0.09063603260326
 6 -5.12711125712571 -1.09223629652965 -0.42395927392739
 6  4.52233101910191  1.26822301630163 -0.04666675167517
 6 -3.92221351835183 -0.37651987598760 -0.24046686168617
 6  3.13591108210821  1.72704709570957 -0.01672755675568
 6 -2.65314077007701 -0.74555463446345 -0.37742609760976
 6  2.93626519351935  3.15716340834083  0.57116477447745
 6 -2.35879464746475 -2.23243673567357 -0.78899012501250
 6  2.18256734573457  0.81547361136114 -0.11494217421742
 6 -1.64154611461146  0.11132902190219 -0.26874082508251
 6  0.81449827882788  0.95213802780278 -0.04085275727573
 6 -0.20095996599660 -0.01945954595460 -0.37788875887589
 1  13.30052863286329 -0.89724313441344  1.47977366636664
 1  13.08746224522452 -2.68877209130913  1.58622630663066
 1 -14.35884885788579 -0.78079552145215  1.25489641064106
 1 -14.12927642264226 -0.16114398629863 -0.62121397739774
 1  12.81519252625263 -2.61879118621862 -1.10656121412141
 1 -13.35755618761876  1.38933291539154  2.00752848684868
 1  14.13454804180418  0.06734931283128 -0.51117629862986
 1  13.23929948694870 -0.67863322042204 -2.09222195319532
 1 -13.09479468846885  2.30225528562856 -1.11555429842984
 1 -12.43885985898590  2.87299231933193  0.40412144814481
 1  11.06067875687569 -1.88640706970697  3.12101679767977
 1  9.69260758775878 -1.12668246724672  2.45459221422142
 1  11.23427716971697 -0.17522638973897  2.58561194719472
 1  10.62639890289029 -2.99693446744674 -0.51831851485149
 1  10.73767277017702 -3.70987963096310  1.22205164516452
 1  9.33759107610761 -2.48149945794579  0.72757947894789
 1 -11.73493517951795 -0.63734622852285  2.70651094809481
 1 -11.24689752875288 -2.00871341524152  2.00307409140914
 1 -12.80918181118112 -2.04107152705271  2.47948852885288
 1 -13.60675112411241 -3.01552024792479  0.35296342734273
 1 -11.93287852285229 -3.13463005190519 -0.23658076007601
 1 -13.17107496649665 -2.13462265416542 -1.33472621462146
 1  8.76547845084509 -0.24389880088009  0.27806492749275
 1 -9.99594435943594 -2.03924098799880 -0.71625542754275
 1  10.76131742374237  1.41329599959996 -2.22231429042904
 1  12.32133796279628  2.16059700260026 -1.84313992199220
 1  12.33476514651465  0.98956981188119 -2.69807249624962
 1 -10.91857625862586  2.44707027112711 -2.17207792879288
 1 -9.82183816181618  1.13339735883588 -2.00074604160416
 1 -9.85839002300230  2.52274492859286 -0.82034519051905
 1  14.87535666366637 -3.11381670877088  0.10777905790579
 1 -15.51761645464546  1.58046534663466  1.39845094109411
 1  10.32840875987599  2.31635854385439 -0.39341251625162
 1 -8.59542427842784  0.44849945104510  0.23223259725973
 1  8.96853454045405  4.27571095309531  0.77628346934693
 1  7.37257364436444  4.41751661266127 -0.14609095509551
 1  7.37111637163716  3.92266333433343  1.56130296829683
 1 -8.29294208820882 -3.30184484238424 -0.08569385838584
 1 -8.15790016101610 -2.97533753665367 -1.86906879587959
 1 -6.66738251025103 -3.27982252215222 -0.95022045604560
 1  7.02609846484648  0.63334654965497 -0.43514138913891
 1 -6.65641261726173  0.38714620972097 -0.13891901690169
 1  5.64594229922992  3.10740641264126  0.45783229222922
 1 -5.10162063306331 -2.20086776477648 -0.74505065506551
 1  4.64759795279528  0.18784353035304 -0.17411947994800
 1 -4.15699710371037  0.64680405240524 -0.00380909990999
 1  2.50414604260426  3.07748963896390  2.06546978797880
 1  1.89349761076108  3.57136811881188 -0.07208260626063
 1  4.03653903390339  4.03494011901190  0.34648159015902
 1 -2.63250436543654 -2.99384167616762 -0.05140280528053
 1 -2.89449816281628 -2.53630069206921 -1.73188193019302
 1 -1.33446383138314 -2.35920347034703 -1.00974951795180
 1  2.55808717171717 -0.15342862386239 -0.45158137013701
 1 -2.07001162416242  1.26516476047605 -0.04158806580658
 1  0.49528982798280  2.00974640164016  0.33344535453545
 1  0.27926971197120 -1.08457862186219 -0.62234390839084

