%nproc=4
%Mem=2GB
# td=(NStates=1) CAM-B3LYP/6-31G(d,p) 

TD

0 1
 8  14.71721724672467 -2.30227316041604 -0.14859178217822
 8 -14.93979904390439  1.72129743484348  0.81893142414241
 6  11.17529987598760 -1.48700125222522  0.95614177517752
 6 -12.41768693269327 -1.04837645554555  0.55738938293829
 6  12.69216278227823 -1.90079937603760  1.10190508250825
 6 -13.87815453445345 -0.38738675857586  0.51159397139714
 6  13.31939997899790 -1.92293461556156 -0.25405895089509
 6 -13.66354564756476  1.09207786888689  0.87153840484048
 6  11.02966229322932 -0.23384101110111 -0.02345563856386
 6 -11.34269063306331 -0.24089509640964 -0.05585326132613
 6  13.33303379437944 -0.58852733783378 -0.87590034403440
 6 -12.84313675167517  1.81774478157816 -0.26525587858786
 6  11.98700456945695  0.06139652255226 -0.82555519851985
 6 -11.55302589758976  1.06504313341334 -0.44528652465247
 6  10.79076011701170 -1.02133757475748  2.31191457545755
 6  10.35584620462046 -2.68591635963596  0.46272966296630
 6 -11.97189899589959 -1.60821051295129  1.95802193319332
 6 -12.52456895189519 -2.42133335523552 -0.31931066906691
 6  9.63499874087409  0.27362631563156  0.08776273627363
 6 -10.00768634063406 -0.93563630553055 -0.35499678467847
 6  11.83463934393439  1.24202937683768 -1.86904889488949
 6 -10.62094038203820  1.88167764486449 -1.30160705070507
 6  9.42969687468747  1.57295353835384  0.03950059005901
 6 -8.76357775477548 -0.44949689858986 -0.16147124912491
 6  8.09740884588459  2.24797078007801  0.20133090809081
 6 -7.59272730673067 -1.19692802070207 -0.40433660266027
 6  8.12478426242624  3.78090694569457  0.56144032803280
 6 -7.77848614561456 -2.54249382628263 -0.85347403240324
 6  6.89064903590359  1.45809475047505 -0.02677516251625
 6 -6.40108280528053 -0.56625488738874 -0.15222414741474
 6  5.62320303430343  1.98756299429943  0.23204017301730
 6 -5.06460500650065 -1.09515658855886 -0.37713459145915
 6  4.53477226322632  1.19720591459146 -0.12921500650065
 6 -4.00233153015301 -0.31305352935294 -0.14565738073807
 6  3.19646713771377  1.71410580158016 -0.05831171517152
 6 -2.55288074407441 -0.59234931393139 -0.45706406140614
 6  2.87615918291829  3.13669136113611  0.36107376537654
 6 -2.31452022002200 -2.04928842084208 -0.83973519951995
 6  2.12795188418842  0.88997106110611 -0.39283996399640
 6 -1.59177113711371  0.42847073607361 -0.35073902490249
 6  0.83002983198320  1.06831964596460 -0.20604927692769
 6 -0.12608247824782  0.20045244524452 -0.50536150615062
 1  13.19944852485249 -1.31897530763076  1.85802149114911
 1  12.65246874587459 -2.75224843894389  1.57953563756376
 1 -14.59383235623562 -0.72722016391639  1.24462538353835
 1 -14.22826632163216 -0.48111598349835 -0.35181703770377
 1  12.73748475547555 -2.67075638273827 -1.03633419141914
 1 -13.21005143714371  1.04043802590259  1.97672540654065
 1  14.33225781278128 -0.11881930403040 -0.21310649164917
 1  13.55805136213622 -0.65632098919892 -2.02483521452145
 1 -13.53072828182818  1.98982404250425 -1.14708745174517
 1 -12.53040901390139  2.86931195129513  0.06479751575158
 1  11.01993468246825 -1.86642507150715  3.12010670667067
 1  9.60960928792879 -0.96672647164716  2.30152690769077
 1  11.23318706070607 -0.07691655875588  2.72927631363136
 1  10.68239450245025 -3.06585135913591 -0.44246092909291
 1  10.25044404730473 -3.36523516651665  1.29239867986799
 1  9.24053137013702 -2.32996430443044  0.29790651165117
 1 -12.05520720672067 -0.63707620152015  2.67692798979898
 1 -10.83999683868387 -2.08099064296430  1.92355613961396
 1 -12.63767466046605 -2.38740616051605  2.45407598759876
 1 -13.19564001300130 -3.03353204910491  0.29731786278628
 1 -11.66555179017902 -3.13044963386339 -0.18136523852385
 1 -12.84438229722972 -2.23343253515352 -1.28132087408741
 1  8.92097400040004 -0.71764617561756  0.20165728672867
 1 -10.23084784978498 -1.97797486138614 -0.83589739173917
 1  10.83355464746475  1.04751942194219 -2.26550860986099
 1  12.03175900490049  2.34943588648865 -1.49266487448745
 1  12.64880655065506  1.20237109200920 -2.76472916191619
 1 -11.26756115711571  2.39276484058406 -2.09049977097710
 1 -9.88530450845084  1.32693671277128 -1.83119908690869
 1 -9.99390357435744  2.70471312541254 -0.72651580758076
 1  14.62095122312231 -3.15561088818882  0.18432671267127
 1 -15.51845653865387  1.40126742684268  1.52021311731173
 1  10.33795971497150  2.25776268426843  0.03484030903090
 1 -8.51326606260626  0.54101870297030  0.27070644464446
 1  9.18385607260726  4.08279166116612  0.51513735473547
 1  7.59240562756276  4.23113797479748 -0.02130847684768
 1  7.66195545554555  3.91817288528853  1.60367720572057
 1 -8.28543133713371 -3.22640729862986 -0.18383367236724
 1 -8.37710208120812 -2.51379138203820 -1.85488737773777
 1 -6.68246401840184 -2.97424196409641 -1.05664109810981
 1  6.75002085708571  0.51408462346235 -0.49842771777178
 1 -6.32881985798580  0.46058355345535  0.18745362036204
 1  5.47148485348535  2.91479715171517  0.60758726772677
 1 -4.86572704370437 -2.09250692869287 -0.85513166316632
 1  4.55720891389139  0.10040478647865 -0.50672274027403
 1 -4.10562196619662  0.77650702270227  0.14764604560456
 1  3.13968959695970  3.26661855185519  1.42891613261326
 1  1.87130539153915  3.48956993899390 -0.01350674867487
 1  3.66688206820682  3.85632225722572 -0.14643770177018
 1 -2.91620273527353 -2.76043833583358 -0.38517618261826
 1 -2.60841955495550 -2.15384244624462 -1.92455119711971
 1 -1.19888027302730 -2.29688723872387 -0.56760530353035
 1  2.39130049304930 -0.10315359635964 -0.69935614761476
 1 -1.77495211821182  1.31137938193819  0.01813790679068
 1  0.37211751075108  1.99213464046405  0.23207521752175
 1  0.07811959695970 -0.76997716171617 -0.73342501650165

