%nproc=4
%Mem=2GB
# td=(NStates=1) CAM-B3LYP/6-31G(d,p) 

TD

0 1
 8  14.66460198519852 -2.42480541364136 -0.23201012401240
 8 -14.91663672767277  1.82170747584758  0.97585711671167
 6  11.09565191119112 -1.47820037213721  1.04695085608561
 6 -12.43412857685768 -1.15643726162616  0.74923856785679
 6  12.59238280428043 -1.95392468856886  1.09702459445945
 6 -13.83661038003800 -0.39942796269627  0.74727753975398
 6  13.32594063306331 -2.02271459355936 -0.23883742874287
 6 -13.67479677267727  1.12972163326333  0.87432868386839
 6  10.97889721672167 -0.27805543254325  0.12150885788579
 6 -11.24669103310331 -0.31209221612161  0.03465578957896
 6  13.26958744974497 -0.60250873597360 -0.88603135713571
 6 -12.85351778977898  1.70003301040104 -0.28882823582358
 6  11.96501237023702  0.11110149304930 -0.72009465246525
 6 -11.56301689668967  0.94225085418542 -0.51896389238924
 6  10.66221726272627 -1.23825926692669  2.36104948894890
 6  10.24089470947095 -2.64179194719472  0.38502189218922
 6 -12.03778558455845 -1.35675536743674  2.27289342034203
 6 -12.64230072507251 -2.47975919781978  0.08128939093909
 6  9.68319356035603  0.41620057305731  0.24571853185319
 6 -9.97134270627063 -1.00039278117812 -0.19540082508251
 6  11.77354323432343  1.09301447534753 -1.81154314431443
 6 -10.65284357235723  1.74985446254625 -1.43160005000500
 6  9.45465937093709  1.68582482548255  0.23441008100810
 6 -8.72850424742474 -0.46184813371337 -0.19453455545555
 6  8.18458756375638  2.36045202820282  0.28627940294029
 6 -7.57133516751675 -1.20845917381738 -0.60904707370737
 6  8.14956674067407  3.74734358935894  0.46765094909491
 6 -7.55396369336934 -2.57366694359436 -1.23345203020302
 6  6.93613358435844  1.59139808080808  0.04101161616162
 6 -6.31393409040904 -0.60241850375038 -0.30987991299130
 6  5.59033974797480  2.09738397639764  0.15215218421842
 6 -5.02374092009201 -1.00584765766577 -0.76561343934393
 6  4.46001478747875  1.37562375637564 -0.18370045504550
 6 -3.86777807480748 -0.10427265126513 -0.46188900390039
 6  3.15949344034403  1.79406379737974  0.01439555555556
 6 -2.55183063906391 -0.66644672367237 -0.66763511851185
 6  2.86599816681668  3.29325701770177  0.51380903890389
 6 -2.26503527152715 -2.08022151415142 -1.06765799179918
 6  2.15594468346835  0.85391745574557 -0.28554923492349
 6 -1.51308326832683  0.25814370337034 -0.47749170017002
 6  0.77797462646265  1.14801761576158 -0.28401707370737
 6 -0.13649351935194  0.07207960796080 -0.50156112611261
 1  13.13735231523152 -1.21177458755876  1.73805949494949
 1  12.54449794879488 -3.09508272237224  1.62085976997700
 1 -14.44963793679368 -0.69757719961996  1.41763268426843
 1 -14.21155465046505 -0.44746261816182 -0.25057691369137
 1  12.87199820682068 -2.62717202430243 -0.90314087208721
 1 -13.05380581258126  1.23184716681668  1.78898663266327
 1  14.18306289328933 -0.13020044214421 -0.44467964896490
 1  13.49486504350435 -0.65222057915792 -1.98504123512351
 1 -13.54778998799880  1.46014107420742 -1.21879462246225
 1 -12.59798577157716  2.80148516861686 -0.22655161916192
 1  10.78038072707271 -2.00624905390539  3.14966966296630
 1  9.54179250625062 -0.88472827182718  2.28629538453845
 1  11.23265700770077 -0.42630149724973  2.97231061706171
 1  10.47688395139514 -2.88879365336534 -0.57615429842984
 1  10.30731973487349 -3.54746338933893  1.25511495149515
 1  9.09732704970497 -2.34517582558256  0.63360008100810
 1 -12.06123780978098 -0.30622311621162  2.81307160416042
 1 -10.95601844084409 -1.57565010891089  2.28291207520752
 1 -12.43287418041804 -2.17330475037504  2.61418199819982
 1 -13.50442089108911 -3.00194889078908  0.60655878687869
 1 -11.72305754075408 -3.06022261116112  0.39494239223922
 1 -12.65922378137814 -2.64196338823882 -1.07000974297430
 1  8.86988889188919 -0.21657606860686  0.60306742774277
 1 -10.07390215521552 -2.06536360026003 -0.55940974297430
 1  10.66496778877888  1.17868253825383 -1.80969302830283
 1  12.27046287528753  2.09566050895089 -1.52043765176518
 1  12.10201187118712  0.91882273717372 -2.94796748574857
 1 -11.20553495449545  2.27068263236324 -2.31616233723372
 1 -9.91779775777578  1.08890290939094 -1.82311827882788
 1 -10.23938812281228  2.52153480758076 -0.81467462346235
 1  14.49628875687569 -3.26450177727773  0.12621090109011
 1 -15.43242793579358  1.50774807490749  1.70654175017502
 1  10.42911883088309  2.25494240224022  0.25463228822882
 1 -8.34036877287729  0.45487008810881  0.30018939293929
 1  9.30220790779078  4.24447782978298  0.60350619161916
 1  7.60533692069207  4.24417927892789 -0.24525087108711
 1  7.47214647464746  4.09597066506651  1.22199903790379
 1 -7.71101389538954 -3.38039269716972 -0.54946023502350
 1 -8.18322269326933 -2.52303230613061 -2.20847273627363
 1 -6.58210398239824 -3.00384492439244 -1.40214564856486
 1  7.13795965096510  0.66960017501750 -0.40835871087109
 1 -6.55954293029303  0.34441193629363  0.05746062106211
 1  5.38282598759876  3.10892656465647  0.52188869786979
 1 -4.81909238023802 -2.05642332033203 -1.14831098109811
 1  4.64332752575258  0.42927767376738 -0.56146821482148
 1 -4.14006541054105  0.98855822782278 -0.22165088408841
 1  3.46871249924992  3.26915880588059  1.45179842084208
 1  1.86181444244424  3.63080406240624  0.60451505350535
 1  3.45002038203820  3.85412203720372 -0.24614767276728
 1 -2.51851296629663 -2.55600789278928  0.01726406140614
 1 -2.87795650865086 -2.39436649864986 -1.85246398839884
 1 -1.11818220322032 -2.24352190219022 -1.40810935393539
 1  2.45418678167817 -0.14876815781578 -0.56388260026003
 1 -1.83254787778778  1.08771701570157 -0.08119202620262
 1  0.56973727272727  2.12039746674667  0.03334534453445
 1  0.53427521252125 -0.80466063006301 -0.73145481948195

