%nproc=4
%Mem=2GB
# td=(NStates=1) CAM-B3LYP/6-31G(d,p) 

TD

0 1
 8  14.65404092909291 -2.23776670977098 -0.29723664666467
 8 -14.67063212721272  1.80785609070907  0.97272680368037
 6  11.12419476547655 -1.44899745184518  1.00229639063906
 6 -12.36101126512651 -1.07570918881888  0.52884652865287
 6  12.54111767776778 -1.88406770287029  0.94786967896790
 6 -13.67870458945895 -0.24666268616862  0.53234604660466
 6  13.24181222022202 -1.97726004810481 -0.48270181518152
 6 -13.41793108610861  1.18469713081308  0.82255350635064
 6  10.96690601760176 -0.23867149414941  0.06735344234423
 6 -11.23351971597160 -0.19685069196920 -0.14507218321832
 6  13.24061455245524 -0.55364384948495 -0.98942169616962
 6 -12.67893033103310  1.84900790789079 -0.26495584858486
 6  11.86214208320832  0.10229061196120 -0.93979662266227
 6 -11.39512010701070  1.09046567566757 -0.67861985798580
 6  10.78700974197420 -1.03230867186719  2.44833821782178
 6  10.20588120812081 -2.60206797479748  0.46639002900290
 6 -11.95124693069307 -1.29291898379838  1.97469360036004
 6 -12.59051554655466 -2.38921014291429 -0.19591832983298
 6  9.60108534953495  0.33747270027003  0.21011497149715
 6 -10.01855742774277 -0.95965870777078 -0.28076936193619
 6  11.53726960696070  1.17572274617462 -1.83689567956796
 6 -10.46105439343934  1.80232971007101 -1.54767165716572
 6  9.36739064406441  1.66655289828983  0.25715235523552
 6 -8.80233163016302 -0.53829577847785 -0.17169227122712
 6  8.04413351835183  2.35300128312831  0.24131490649065
 6 -7.54342237623762 -1.21878020592059 -0.51982815181518
 6  7.98961074507451  3.75803465846585  0.57637182118212
 6 -7.66978527552755 -2.72343192009201 -1.05458414341434
 6  6.96507647864786  1.49231817281728  0.04477199219922
 6 -6.43986668366837 -0.62885114701470 -0.16631555655566
 6  5.63948466246625  2.13123736173617  0.16156312531253
 6 -5.09154770077008 -1.13800087298730 -0.35000187818782
 6  4.50009879587959  1.30715690969097 -0.05977806280628
 6 -3.83362465946595 -0.38592081608161 -0.18626144114411
 6  3.10632812381238  1.82886727772777  0.07877199319932
 6 -2.59412486848685 -0.77160723972397 -0.40160851585159
 6  2.88466003300330  3.12357004900490  0.48491614961496
 6 -2.31519028702870 -2.15694918691869 -0.76899812581258
 6  2.15100418941894  0.83782584658466 -0.29261994199420
 6 -1.57129908990899  0.11559944894489 -0.29049300030003
 6  0.75152198119812  0.99394220822082 -0.25332400440044
 6 -0.19173904390439 -0.07599519951995 -0.37636860686069
 1  13.23871245124512 -1.48611202130213  1.59837552655266
 1  12.55502900190019 -2.96124933903390  1.46426411041104
 1 -14.25619859285929 -0.87467490939094  1.22619354035404
 1 -14.27400089508951 -0.16546441834183 -0.41949380538054
 1  12.63152415941594 -2.65547485458546 -1.20858141614161
 1 -12.93102353435344  1.20705468756876  1.93548128212821
 1  13.77773236023602  0.14870744864486 -0.27236241724172
 1  13.58796435343534 -0.59933529062906 -1.93803653465347
 1 -13.44707991699170  1.91089614971497 -1.07315005800580
 1 -12.33299927292729  2.84037905800580 -0.05511447544754
 1  11.08911160016002 -1.88817724672467  3.08200289628963
 1  9.72278060506051 -0.87344714371437  2.70000675567557
 1  11.33375711771177  0.01933306620662  2.82476586258626
 1  10.26719298229823 -2.68732350635064 -0.65579226222622
 1  10.51124012691269 -3.50459910291029  0.97745718571857
 1  9.00460777777778 -2.38117942594259  0.53171989298930
 1 -11.58576026202620 -0.55318781268127  2.57586788378838
 1 -11.18641148014802 -1.99177172107211  1.93145692969297
 1 -12.61742263526353 -1.93345076497650  2.61869244924492
 1 -13.60870131913191 -2.67419611551155  0.11355948694870
 1 -11.93469870487049 -3.37996458535854  0.14902780078008
 1 -12.65540339933993 -2.36223541544154 -1.21426416841684
 1  8.81293319631963 -0.32146655765577  0.65842296329633
 1 -10.16932169716972 -1.93473053695370 -0.81033483548355
 1  10.61805309730973  1.57323199319932 -1.93523558255826
 1  12.10976680568057  2.15066600950095 -1.59917552555256
 1  11.81606327632763  0.87222807770777 -2.74575726472647
 1 -11.24303870487049  2.33887945204520 -2.15568628962896
 1 -9.62729870787079  1.32108612771277 -2.28547451445145
 1 -9.84909909390939  2.53640629472947 -0.94208736473647
 1  14.66821594959496 -3.29454478157816 -0.18851057105711
 1 -15.12607730073007  1.68192549264926  1.85410650665067
 1  10.27433335233523  2.40650755875588  0.14461128612861
 1 -8.66326106210621  0.58615321642164  0.10381975597560
 1  8.92903059005901  4.15782916491649  0.23498933993399
 1  7.12964935193519  4.24762962396240 -0.13190953695370
 1  7.87014627462746  3.96969803780378  1.73497033503350
 1 -8.27237003100310 -3.39023368126813 -0.22047733673367
 1 -8.10864523552355 -2.71757176007601 -2.05346723572357
 1 -6.64542031403140 -3.17302184208421 -1.20562599659966
 1  7.21137699269927  0.39883309830983 -0.02694056905691
 1 -6.69095607160716  0.44748224332433  0.05029990499050
 1  5.65091279627963  3.16169184118412  0.57333384238424
 1 -5.13595406640664 -2.15245292329233 -0.66739288928893
 1  4.69368256125613  0.30322506850685 -0.47960002800280
 1 -3.93570497449745  0.58501787378738  0.59327060806081
 1  2.99500512851285  3.22923481348135  1.53323656465647
 1  1.88737699869987  3.52774375637564  0.32907750975098
 1  3.74920030003000  3.85305193019302 -0.03709676767677
 1 -2.75505662066207 -2.81397368936894 -0.11738940394039
 1 -2.72946165916592 -2.30149721172117 -1.70284902690269
 1 -1.37696808180818 -2.45418296829683 -0.61765030803080
 1  2.30327169016902 -0.19732301330133 -0.79821603360336
 1 -2.03967859085909  1.06766501050105 -0.01187509450945
 1  0.12176247524752  2.01982740974097  0.05392740274027
 1  0.17260904590459 -1.02003216721672 -0.74452612661266

