%nproc=4
%Mem=2GB
# td=(NStates=1) CAM-B3LYP/6-31G(d,p) 

TD

0 1
 8  14.67697322232223 -2.23648658175818 -0.09281620462046
 8 -14.59389445344534  1.99137444254425  1.14252378337834
 6  10.99208155415541 -1.57711026312631  0.86565272627263
 6 -12.31859702370237 -0.94551616951695  0.72023566756676
 6  12.56600016601660 -1.87151644774477  0.94949984198420
 6 -13.61154787378738 -0.27919593949395  0.82987579957996
 6  13.35751379037904 -1.89622194429443 -0.30864440944094
 6 -13.36501579457946  1.24753341444144  0.98532978397840
 6  10.88543787078708 -0.28675630263026 -0.00584387738774
 6 -11.30561692569257 -0.22533354025403 -0.23713138913891
 6  13.24201469246925 -0.48704718981898 -0.95120787478748
 6 -12.70650308830883  1.71043405050505 -0.34291364436444
 6  11.88251412041204  0.15920630353035 -0.84103674667467
 6 -11.41498209320932  1.05711234033403 -0.65160715671567
 6  10.64405544654465 -1.09969541054105  2.31558494249425
 6  10.22641326132613 -2.69363713171317  0.39090248024802
 6 -11.61835364136414 -1.25291498339834  1.97736386738674
 6 -12.72611910691069 -2.40761198309831  0.01637289928993
 6  9.59973521452145  0.25829478247825  0.13687764776478
 6 -10.05926149814982 -0.92909565146515 -0.48258954395440
 6  11.69429530953095  1.23241841574157 -1.84564655465547
 6 -10.46484477247725  1.73003248034803 -1.55566245624562
 6  9.26663056805681  1.62890913391339  0.22915955595560
 6 -8.78884028102810 -0.52457440634063 -0.36441154315432
 6  8.00136924192419  2.31527751075107  0.40462123712371
 6 -7.59783781778178 -1.22177050495049 -0.58614478347835
 6  7.95849763376338  3.80530938593859  0.80005418941894
 6 -7.70557885488549 -2.71901147804780 -0.95157384238424
 6  6.89432940394039  1.69076801780178  0.04619213421342
 6 -6.34998769576958 -0.59467772967297 -0.56850577557756
 6  5.53802451645165  2.18076231423142  0.19591656065607
 6 -5.06734528052805 -1.22864993789379 -0.62443932193219
 6  4.45730451645164  1.36907310131013 -0.18712079707971
 6 -3.94258555555556 -0.40289251325133 -0.37890070507051
 6  3.19668715971597  1.75684007500750 -0.03708959295930
 6 -2.65417087308731 -0.85763584258426 -0.45299365436544
 6  2.86124769176918  3.19287697969797  0.39127678567857
 6 -2.26015478347835 -2.29645313731373 -0.83371459745975
 6  2.07849693869387  0.83604566856686 -0.16929760976098
 6 -1.64574653465347  0.08772666166617 -0.31310526152615
 6  0.67479430843084  1.00388320232023 -0.11093976597660
 6 -0.27043691369137 -0.13350095009501 -0.38208917891789
 1  13.22194077407741 -1.14198760886089  1.64976066506651
 1  12.75848934793479 -2.74238745284528  1.39474715871587
 1 -14.08213118611861 -0.83259070097010  1.65132605360536
 1 -14.18716221122112 -0.32367023892389 -0.01021287728773
 1  12.94132513951395 -2.59445875297530 -1.11436199419942
 1 -12.61308174017402  1.56524050615061  1.66428416241624
 1  14.06365095209521  0.06866944484448 -0.43398857985799
 1  13.81296685368537 -0.61096645374538 -2.00284301530153
 1 -13.47403261226123  1.49650471057106 -1.21726446944694
 1 -12.62544851785179  2.82465748584859 -0.38925788978898
 1  11.20103279227923 -1.78342677167717  3.05142983898390
 1  9.58275660266026 -0.85598539753975  2.44909166416642
 1  11.11291503350335 -0.03163203030303  2.49393277927793
 1  10.46677294029403 -3.20402517651765 -0.58635531853185
 1  10.40660966386639 -3.53214185718572  1.09736917691769
 1  9.14010132713271 -2.61028233623362  0.44186090709071
 1 -11.31380306630663 -0.22290478437844  2.48881917891789
 1 -10.37975081408141 -1.44466701060106  1.76756054005401
 1 -11.88917981098110 -1.96466388628863  2.70259083908391
 1 -13.53679412841284 -2.80057875377538  0.60670880188019
 1 -11.68142337733773 -2.89237582648265  0.01254415241524
 1 -13.30211807080708 -2.32241143304330 -0.91503424542454
 1  8.66667857085709 -0.23426783778378  0.26494361536154
 1 -10.14848961396140 -2.07748481238124 -0.46063986598660
 1  10.76657794979498  1.55643031303130 -1.84559661866187
 1  12.35547137613761  2.10343128602860 -1.52471807980798
 1  11.88699036903690  0.88939979487949 -2.91571426042604
 1 -11.10802520352035  2.34139970407041 -2.29940066106611
 1 -9.74850082808281  0.83603762286229 -2.00365633263326
 1 -9.87152133613361  2.36929958405841 -0.95196835283528
 1  14.63833296129613 -3.23937926502650  0.33610189018902
 1 -15.05033972697270  1.50695799589959  1.82095319131913
 1  10.20740665966597  2.14441134913491  0.30687751275127
 1 -8.83521825782578  0.58569317041704 -0.19725035103510
 1  9.01023871087109  4.18570195219522  1.09498533953395
 1  7.59262564956496  4.44180904190419 -0.14988133413341
 1  7.31134039403940  3.73132420042004  1.80078691669167
 1 -8.30728352235223 -3.03707836573657  0.01815652665267
 1 -8.30542491349135 -2.79542954585459 -1.94611650065007
 1 -6.85412118411841 -3.22900744064406 -0.99602503650365
 1  6.92109796479648  0.77317053205321 -0.48329620462046
 1 -6.09302627862786  0.37011450655065 -0.27494261926193
 1  5.44768247324733  3.16896256825683  0.44300080908091
 1 -4.89926039703970 -2.27795547354736 -1.14816096609661
 1  4.87097029002900  0.33224797079708 -0.52907497549755
 1 -4.30144154815482  0.45593496549655  0.00301158215822
 1  2.53985961396140  3.35216710671067  1.73297653865387
 1  1.92823108410841  3.63286426842684 -0.22960835883588
 1  4.01582696269627  3.87106373137314  0.15349229122912
 1 -2.87884899989999 -2.79752204420442 -0.32551021602160
 1 -2.48291700470047 -2.30431749374937 -1.98547728972897
 1 -1.13899428442844 -2.48103565356536 -0.46672521552155
 1  2.41418278127813 -0.30976425742574 -0.37489370137014
 1 -1.82717734073407  1.09312755675568 -0.06777068406841
 1  0.14147444644464  1.89218464546455 -0.00362835283528
 1  0.34046583158316 -1.03235339933993 -0.48101977597760

