%nproc=4
%Mem=2GB
# td=(NStates=1) CAM-B3LYP/6-31G(d,p) 

TD

0 1
 8  14.76214173917392 -2.22934586768677 -0.45694261726173
 8 -14.73966903090309  1.90767607270727  0.68812834383438
 6  11.21774412041204 -1.54465701780178  0.91800796179618
 6 -12.40381554555455 -1.03959557745775  0.51805544954495
 6  12.70297386338634 -1.91734103020302  0.95128002000200
 6 -13.76013273227323 -0.21269928982898  0.48313112511251
 6  13.31968000700070 -1.88971129322932 -0.45605915091509
 6 -13.48263755675568  1.22641130223022  0.83767501850185
 6  10.97912723972397 -0.28694632163216 -0.07021031403140
 6 -11.27224358835884 -0.29818082498250 -0.16980465646565
 6  13.25270576157616 -0.46857534263426 -1.05385813981398
 6 -12.64434687268727  1.83817682478248 -0.35436478947895
 6  11.92534840384038  0.08197858075808 -0.95343798679868
 6 -11.45868646364636  1.02459908900890 -0.66357835383538
 6  10.87127816881688 -0.99361480248025  2.33315669966997
 6  10.43130375037504 -2.80993876187619  0.47435082508251
 6 -12.01685349134913 -1.40149984188419  1.99827595859586
 6 -12.67290378537854 -2.44454567646765 -0.23276201420142
 6  9.64770001100110  0.28974792779278  0.04409836983698
 6 -10.06609218121812 -1.06184892679268 -0.34994627962796
 6  11.71101698169817  1.20670584448445 -1.94069605960596
 6 -10.51079936793679  1.73469294639464 -1.57068395839584
 6  9.34861876687669  1.54814105710571  0.10903754375438
 6 -8.77021841884188 -0.45205715461546 -0.31076617861786
 6  8.07336644164416  2.25620160316032  0.21683245824582
 6 -7.61036907090709 -1.23345167306731 -0.51296746574657
 6  7.98830061406141  3.72160101510151  0.49323350735074
 6 -7.65757405440544 -2.68371794869487 -0.76643532853285
 6  6.85325529652965  1.46827576857686  0.10226774177418
 6 -6.37214991199120 -0.63510177207721 -0.28186711171117
 6  5.58666938093809  2.03964820282028  0.24205117411741
 6 -5.06505505150515 -1.13351042394239 -0.39787666566657
 6  4.44435322132213  1.26756295029503  0.06487440244024
 6 -3.92761405840584 -0.43544576857686 -0.21480429542954
 6  3.06745423642364  1.76178056905691  0.25455957195720
 6 -2.54891034703470 -0.77130720972097 -0.22363071807181
 6  2.74883645064506  3.21237892989299  0.56724438243824
 6 -2.17808657665767 -2.07349084108411 -0.70850207620762
 6  2.08831792079208  0.81552361636164 -0.00717139713971
 6 -1.59158111811181  0.35790367936794 -0.05419937093709
 6  0.64974180318032  1.12249506350635  0.06234756275628
 6 -0.25057492749275  0.15373777377738 -0.20392136213621
 1  13.22651123112311 -1.28410182028203  1.56447213621362
 1  12.58446194519452 -2.87878109220922  1.41713939793979
 1 -14.32790576357636 -0.68553599549955  1.22204312531253
 1 -14.34119761476147 -0.13642151405140 -0.41231308730873
 1  12.90981198819882 -2.52781208830883 -0.97852841084108
 1 -13.12209264126413  1.52242622472247  1.82277001100110
 1  13.97105169216922  0.24280685858586 -0.55352053305331
 1  13.74219977697770 -0.27516287338734 -1.99328205920592
 1 -13.26763197219722  2.14125918601860 -1.26558930193019
 1 -12.43104907790779  2.78324334443444 -0.10055901990199
 1  11.09735242424243 -1.95080350935094  3.00036473247325
 1  9.88130645764576 -0.84106390539054  2.35568232323232
 1  11.45597933993399 -0.12937180428043  2.66022940894089
 1  10.76003226622662 -3.17635240924092 -0.49157584058406
 1  10.80825982888289 -3.57612625562556  1.32891233123312
 1  9.28430574757476 -2.77864917291729  0.45061178217822
 1 -11.82834452045205 -0.56891938583858  2.58771906890689
 1 -10.96673951295130 -1.99646219011901  2.28402218621862
 1 -12.88752964596460 -1.89421684158416  2.41931251125113
 1 -13.37283773277328 -2.88464716061606  0.35849398039804
 1 -11.85302053705371 -3.12744933383338 -0.16877397939794
 1 -12.78947680668067 -2.37330652255226 -1.18043078507851
 1  8.96092799579958 -0.47650206120612  0.40836795779578
 1 -10.22027679267927 -2.15402246614661 -0.72897669966997
 1  10.72643393539354  1.51978664866487 -2.04320637963796
 1  12.12357818681868  2.05857680058006 -1.51651725972597
 1  12.10195186518652  1.30847170207021 -3.06991968096810
 1 -11.13749815081508  2.24811037513751 -2.50617133813381
 1 -9.60419639763976  1.04783880298030 -2.15369133613361
 1 -10.21380556455646  2.64945759985999 -1.18360151615162
 1  14.92362149014902 -3.20055538263826 -0.12271399139914
 1 -15.66029072207221  1.52803010311031  1.10715181118112
 1  10.13699961896190  2.31283819181918 -0.04915809080908
 1 -8.54021875787579  0.58814341544154 -0.16665729172917
 1  8.93519120612061  4.17704108610861  0.74265010601060
 1  7.63195958295830  4.39606446744674 -0.21112745874587
 1  7.46815607560756  3.80436150415042  1.51310814881488
 1 -8.24309710371037 -3.17169182708271 -0.00387567656766
 1 -8.21371574257426 -3.03333333623362 -1.79391128012801
 1 -6.79053482548255 -3.32019655955596 -0.93579901390139
 1  6.91449730473047  0.40550376537654 -0.16973484848485
 1 -6.47908488448845  0.36564405950595 -0.10037516251625
 1  5.42730043504350  3.08075374737474  0.51526803580358
 1 -4.93802427342734 -2.19601727972797 -0.80995714571457
 1  4.37876106910691  0.19643438943894 -0.35302737073707
 1 -4.13875527952795  0.64844421642164  0.11838311931193
 1  2.97664329232923  3.46874876487649  1.57754099509951
 1  1.69522778377838  3.37230821282128  0.61980658265827
 1  3.44313969396940  3.87014363936394  0.07958490049005
 1 -2.71123223822382 -2.83437572957296 -0.05015268026803
 1 -2.42458117111711 -2.08190525252525 -1.87482622462246
 1 -0.99000938593859 -2.58230578057806 -0.64399294229423
 1  2.42360372337234 -0.18010129112911 -0.23699991199120
 1 -2.01956657965797  1.25541378537854  0.28418451145115
 1  0.15005530453045  2.01268669566957  0.43486549654965
 1 -0.08814702970297 -0.75784594859486 -0.69554122812281

