%nproc=4
%Mem=2GB
# td=(NStates=1) CAM-B3LYP/6-31G(d,p) 

TD

0 1
 8  14.70515604060406 -2.15564849794979 -0.10035695869587
 8 -14.67279234323432  1.96549185428543  1.12618214921492
 6  11.14884723072307 -1.45516806890689  0.93460962196220
 6 -12.36612177617762 -1.10780239813981  0.70536418041804
 6  12.59169273527353 -1.86566586268627  1.08760365236524
 6 -13.62746946594659 -0.21660968086809  0.78027083908391
 6  13.29780781978198 -1.88985130723072 -0.21786533153315
 6 -13.42891218421842  1.22602126322632  1.03017426842684
 6  10.86349567656766 -0.34847247424742 -0.03139643264326
 6 -11.25030139413941 -0.24939594649465 -0.11235891189119
 6  13.20089058005800 -0.54249273437344 -0.86451920592059
 6 -12.63726616461646  1.78392139923992 -0.11656100910091
 6  11.89493536253625  0.21584196709671 -0.87729037203720
 6 -11.44639523452345  0.96177280638064 -0.52187418341834
 6  10.60720176117612 -1.04052949394939  2.42258564256426
 6  10.31192181218122 -2.74711247924792  0.59662305230523
 6 -11.71951375737574 -1.35971566346635  2.09981611261126
 6 -12.72060855585559 -2.42166338823882 -0.01698043604360
 6  9.54997023802380  0.30601955495550  0.14482844284428
 6 -10.02389796179618 -0.90764350625062 -0.48809009400940
 6  11.70100598059806  1.27073224712471 -1.82884487448745
 6 -10.51144943294329  1.72793227032703 -1.38429531953195
 6  9.28506241124112  1.74184042704270  0.27254389438944
 6 -8.76033743074307 -0.44535648454845 -0.35476057805781
 6  8.03629273427343  2.24655063806381  0.25352612761276
 6 -7.63785181918192 -1.22456078397840 -0.68509467846785
 6  7.98389017301730  3.72155101010101  0.55521970597060
 6 -7.78524682168217 -2.57408698559856 -1.17392607760776
 6  6.84579455045505  1.49619856085609 -0.04582706770677
 6 -6.34129682668267 -0.60383864576458 -0.61152007700770
 6  5.60525123912391  2.10424466246625  0.20385735473547
 6 -5.03798234423442 -1.06945401830183 -0.71523840184018
 6  4.53423220922092  1.22908910291029 -0.07341942694269
 6 -3.94655595259526 -0.23231545554555 -0.43175599059906
 6  3.13458094909491  1.72706709770977 -0.01276716071607
 6 -2.62296775277528 -0.76283636263626 -0.58792714771477
 6  2.84771633863386  3.21984967696770  0.24830248824882
 6 -2.32396116411641 -2.19536302830283 -1.03838506450645
 6  2.14478356735674  0.74421648564857 -0.18236891689169
 6 -1.48488044804480  0.06176406540654 -0.32255620662066
 6  0.72137896689669  0.92548536253625 -0.07995666766677
 6 -0.11939180918092 -0.26333393339334 -0.37945891589159
 1  13.16443502350235 -1.21985539563956  1.69227491649165
 1  12.66278977797780 -2.75528874297430  1.77617530153015
 1 -14.05825879887989 -0.72805024692469  1.55311623262326
 1 -14.39089258425843 -0.39732760466047 -0.02189404540454
 1  12.86060706770677 -2.67030633773377 -0.93787434543454
 1 -12.83296372837284  1.38110209230923  2.04789252325233
 1  14.08463305030503  0.08511108900890 -0.47903308430843
 1  13.36825238223822 -0.52446780388039 -2.02610534153415
 1 -13.41096630563056  1.91475653575358 -0.93698644164416
 1 -12.43941991499150  2.87373239333933  0.19141017701770
 1  10.79432212121212 -1.78513694269427  3.22192688868887
 1  9.56262458945895 -0.89220901990199  2.44504125912591
 1  11.10016375837584 -0.15708457555756  2.89910329632963
 1  10.88695495849585 -3.22995776977698 -0.15132181518152
 1  10.34415341824182 -3.39199784278428  1.41004044404440
 1  9.37491480848085 -2.56362767076708  0.34869159015902
 1 -11.45892757875787 -0.30306280018002  2.41931222822282
 1 -10.81643448244825 -1.92716526042604  2.18141192519252
 1 -12.42575346834683 -1.74746216611661  2.90057063706371
 1 -13.58018846784678 -2.83975267116712  0.33687181818182
 1 -11.78812404740474 -3.07906449534953 -0.08202530453045
 1 -12.97623548254825 -2.14661385328533 -1.03310605260526
 1  8.79444134713471 -0.22420683168317  0.35745286628663
 1 -10.03962872787279 -2.07848491239124 -0.84328813081308
 1  10.61542283428343  1.27173184318432 -1.95825788478848
 1  12.05247107610761  2.34656559945995 -1.59742535053505
 1  12.37125879587959  0.93472432733273 -2.80670335933593
 1 -11.20778517951795  2.20385594969497 -2.18583930493049
 1 -9.76801277927793  0.93678769786979 -1.87949391639164
 1 -9.95792997699770  2.37261991609161 -0.87079023502350
 1  14.79097822582258 -3.13821914901490  0.02625090509051
 1 -15.17251194419442  1.50466776687669  1.85369646564657
 1  10.02725864486449  2.57357426542654  0.09551637663766
 1 -8.78636337233723  0.67408200930093  0.05308468246825
 1  8.97344503150315  3.97388077007701  0.80888672967297
 1  7.37356374337434  4.31137599859986 -0.36704305030503
 1  7.37458671867187  3.86668773677368  1.46089292729273
 1 -8.26104889888989 -3.13919857775778 -0.26211150015001
 1 -8.33643801480148 -2.46813681658166 -2.02897478647865
 1 -6.73476924892489 -3.04393893379338 -1.46958239223922
 1  6.82558841384138  0.54167738273827 -0.42851072607261
 1 -6.64667164316432  0.33806130123012 -0.23574869986999
 1  5.23271097609761  3.11025669766977  0.45305181418142
 1 -4.87796826782678 -2.06199387738774 -1.04375052505251
 1  4.85651884488449  0.18324307030703 -0.13653572157216
 1 -4.01684308830883  0.85628500050005 -0.18212693169317
 1  3.44438006600660  3.51271316131613  1.22075531653165
 1  1.69727798879888  3.41139212121212  0.16035063706371
 1  3.14165954595460  3.79243586858686 -0.69776283428343
 1 -2.96633774877488 -2.74315660766077 -0.45748341334133
 1 -2.96069478247825 -2.32838990099010 -1.90298904090409
 1 -1.32713309830983 -2.29183673367337 -0.92553109610961
 1  2.35034639763976 -0.25407868886889 -0.53740995299530
 1 -1.73343796679668  1.20903914791479 -0.22418632563256
 1  0.22949324832483  1.86195162216222 -0.02769075907591
 1  0.29902168716872 -1.37588775277528 -0.58514018801880

