%nproc=4
%Mem=2GB
# td=(NStates=1) CAM-B3LYP/6-31G(d,p) 

TD

0 1
 8  14.73967949294930 -2.00098303140314 -0.27259418241824
 8 -14.61070613461346  1.99711501660166  1.07911744274427
 6  11.20317266326633 -1.42910546264626  0.98519468046805
 6 -12.37754291829183 -0.91538315621562  0.69728337233723
 6  12.66194976097610 -1.71099039513951  1.17471236323632
 6 -13.69299601860186 -0.18194621452145  0.78809162116212
 6  13.44811285028503 -1.74400672277228 -0.24564810981098
 6 -13.40554984798480  1.31230989208921  0.93300455145515
 6  10.90686001300130 -0.19830745774577  0.05151185818582
 6 -11.27475383938394 -0.15643665056506 -0.14888256425643
 6  13.21943243424342 -0.42002048714871 -0.98043079707971
 6 -12.59293173117312  1.80129313641364 -0.20135948894889
 6  11.76022189118912  0.17927831073107 -0.81822446544654
 6 -11.43982457745775  1.08311494059406 -0.62374437043704
 6  10.73395443644364 -0.95728116911691  2.47867125112511
 6  10.40239085908591 -2.65408317631763  0.59946333633363
 6 -11.85074688068807 -1.25471516341634  2.07229336033603
 6 -12.58715521052105 -2.26446766866687 -0.03507224522452
 6  9.52251749274927  0.36647560056006  0.11116507650765
 6 -10.00520609260926 -0.92207494939494 -0.28210949594960
 6  11.50275615561556  1.25898107200720 -1.95082707270727
 6 -10.58828711671167  1.80282976007601 -1.63619050905090
 6  9.32822672767277  1.69012525552555  0.04866150615061
 6 -8.73093449044904 -0.48070001890189 -0.34866996899690
 6  7.99762886788679  2.17983396639664  0.25247602260226
 6 -7.51151918591859 -1.24800312821282 -0.56138230723072
 6  7.83849563356336  3.66082493749375  0.62928711271127
 6 -7.62940123712371 -2.58836841374137 -1.03126181118112
 6  6.86265623662366  1.42693163416342  0.05003251825183
 6 -6.32121481848185 -0.57032529442944 -0.44844376937694
 6  5.58191890589059  1.98307254525453  0.24860182918292
 6 -5.08617716371637 -1.12716978987899 -0.66206308430843
 6  4.42901168716872  1.08942513651365 -0.04635672067207
 6 -3.95852714971497 -0.39420164416442 -0.42660547554755
 6  3.14798228922892  1.51956634763476  0.07821193719372
 6 -2.57346280228023 -0.80893097209721 -0.66871522652265
 6  2.81379294629463  2.86647433943394  0.61927958595860
 6 -2.47095586358636 -2.30034352635264 -1.12479370537054
 6  2.10706979597960  0.58827089108911 -0.25178585858586
 6 -1.60926288628863  0.06119400840084 -0.34268821982198
 6  0.78382521152115  0.74111692569257 -0.17998667066707
 6 -0.18011788178818 -0.19046664666467 -0.40233120312031
 1  13.08557713771377 -0.92162557265727  1.80458614761476
 1  12.83875737473747 -2.75325853995400  1.52100978497850
 1 -14.11043401640164 -0.61909935183518  1.67936885788579
 1 -14.13702719771977 -0.23915178707871 -0.13134499049905
 1  12.77689869686969 -2.41872117921792 -0.83311386938694
 1 -12.84572500450045  1.27934191629163  1.87131486548655
 1  13.83399798679868  0.23394597249725 -0.61539672067207
 1  13.51700725772577 -0.60791614871487 -2.01075380638064
 1 -13.34531974097410  2.11299635973597 -0.94124686768677
 1 -12.18496446944694  2.88903392349235 -0.01877084108411
 1  10.97357004600460 -1.72798122712271  3.12360705670567
 1  9.51991031803180 -0.85511531053105  2.51006776177618
 1  11.11654539653965 -0.08432729982998  2.89779316531653
 1  10.76509277227723 -3.08310308430843 -0.37651433443344
 1  10.69745874877488 -3.40675931893189  1.38232767276728
 1  9.27727504450445 -2.64300560856086  0.37138385938594
 1 -11.77501918791879 -0.57402989688969  2.83768406540654
 1 -10.69366220522052 -1.62095463936394  2.08058184218422
 1 -12.19919081208121 -2.15976339623962  2.70270085008501
 1 -13.37654810381038 -2.81848054395440  0.42708083908391
 1 -11.78021325632563 -3.01035762466247 -0.20760786278628
 1 -13.01283914291429 -1.97491668356836 -1.09778252025203
 1  8.77441934493449 -0.33249766076608  0.27390451145115
 1 -10.15425019001900 -2.01113817771777 -0.36949075107511
 1  10.51487277927793  1.31053572357236 -2.14905696469647
 1  11.72403823282328  2.32661360426043 -1.74116972497250
 1  12.03754542454245  0.92964381928193 -2.91857454645465
 1 -11.17979238023802  2.68866443054305 -2.13323404440444
 1 -10.10226620462046  1.15506952605261 -2.43649961696170
 1 -9.92572675667567  2.36161881598160 -1.00975413141314
 1  15.00071919991999 -2.83503883098310  0.01875015501550
 1 -15.06297099009901  1.65993329342934  1.94370546654665
 1  10.27907382638264  2.42707961596160 -0.13659683468347
 1 -8.54904964096410  0.70972557365737 -0.15557618361836
 1  8.94513220022002  4.15072845484548  0.58588442944294
 1  7.23488987598760  4.30952581358136  0.19475312931293
 1  7.48626788678868  3.81166223422342  1.65988282628263
 1 -8.25982877687769 -3.07418207610761 -0.33822911191119
 1 -8.11540591159116 -2.85079508240824 -2.08579046804680
 1 -6.78371414341434 -3.42359689958996 -0.89764519851985
 1  6.91853770877088  0.51006422142214 -0.47614548954895
 1 -6.34518149414941  0.41338883398340 -0.02815794079408
 1  5.22255996099610  2.98356402840284  0.50353686268627
 1 -5.08067853885389 -2.14278195619562 -1.00220637063706
 1  4.63232642564256  0.10963570957096 -0.33290535853585
 1 -4.20588199219922  0.72622199419942 -0.09032775177518
 1  3.60213584158416  3.02535442544254  1.40262350335033
 1  1.68140640164016  2.98383936593659  0.99363396539654
 1  3.06245162516252  3.63612023702370 -0.37504056205621
 1 -3.25414652965297 -3.06627891989199 -0.69684734973497
 1 -2.37741645464546 -2.24845190719072 -2.42201094309431
 1 -1.46934731973197 -2.63493104310431 -0.74794333733373
 1  2.31285264826483 -0.35017829882988 -0.60964717671767
 1 -1.80383500650065  1.02401064506451 -0.01296520352035
 1  0.44078437743774  1.57574300130013  0.43594560456046
 1  0.17363914891489 -1.21304146814681 -0.51170284428443

