%nproc=4
%Mem=2GB
# td=(NStates=1) CAM-B3LYP/6-31G(d,p) 

TD

0 1
 8  14.80657618261826 -1.99145207830783 -0.26240316331633
 8 -14.75683074707471  1.85598090319032  0.70544007500750
 6  11.21394374037404 -1.49485203730373  0.82733889488949
 6 -12.26459162316232 -0.94436605450545  0.67042068606861
 6  12.72818638463846 -1.77073636973697  0.99000389238924
 6 -13.59062578157816 -0.20563858375838  0.70088290029003
 6  13.36605464446445 -1.79235155725573 -0.30266381138114
 6 -13.47001629462946  1.29991865296530  0.88405965696570
 6  10.99393872087209 -0.24425205220522  0.02383909090909
 6 -11.17569393339334 -0.16378738563856 -0.28467614361436
 6  13.25500599159916 -0.46353483858386 -1.00228298229823
 6 -12.68273071107111  1.97717072417242 -0.28554790779078
 6  11.83193906290629  0.15046542944294 -0.91604424742474
 6 -11.42140273527353  1.11867849694969 -0.67339933593359
 6  10.70413145414541 -1.19813525452545  2.35171855585559
 6  10.34359497949795 -2.71258902690269  0.28452184218422
 6 -11.65642744874487 -1.10982067396740  2.02504863586359
 6 -12.59069556455646 -2.20168139003900  0.06659792179218
 6  9.67145238623862  0.27369632263226  0.18208216821682
 6 -10.09125469746975 -1.00621336323632 -0.51210249524952
 6  11.65910179017902  1.31871704560456 -1.89218120812081
 6 -10.51875016301630  1.81369084618462 -1.55683257325733
 6  9.36404030903090  1.69520576357636  0.11626826682668
 6 -8.80669206620662 -0.61672362126213 -0.32389749174917
 6  8.04287339233923  2.28595457845785  0.16140691569157
 6 -7.61194922892289 -1.28995732363236 -0.62763893289329
 6  7.95967775177518  3.65581443644364  0.63231741574157
 6 -7.68861715871587 -2.71715129202920 -1.09457814281428
 6  6.93175314631463  1.45321426242624  0.14074158915892
 6 -6.43309600660066 -0.72494075597560 -0.36334525952595
 6  5.60771148514851  2.09406364436444  0.25646261526153
 6 -5.12337088308831 -1.24010108300830 -0.48940581858186
 6  4.41646043204320  1.28987518151815 -0.06137822282228
 6 -3.95804710171017 -0.38607083108311 -0.16210902590259
 6  3.02285977697770  1.64840923192319  0.09837395339534
 6 -2.70643609960996 -0.83528360736074 -0.26492484748475
 6  2.69386095309531  3.05568326032603  0.52509016701670
 6 -2.40544931293129 -2.39220271227123 -0.78936016201620
 6  2.03102219121912  0.71307337133713 -0.09883056305631
 6 -1.55035699569957  0.08279616861686 -0.20017396839684
 6  0.69500632963296  0.84494730873087  0.03449477747775
 6 -0.23553342334233 -0.17341494149415 -0.25971694169417
 1  13.17311589158916 -0.97233064316432  1.65932162116212
 1  12.92060555955596 -2.66424963906391  1.55715339933993
 1 -14.07134010701070 -0.40208765066507  1.73304422542254
 1 -14.04408790379038 -0.57093496539654 -0.00916277227723
 1  13.04752575957596 -2.52508181528153 -0.97857841584158
 1 -13.11126155815582  1.72844682678268  2.09851758575858
 1  14.09295388238824  0.27821039893990 -0.65971115211521
 1  13.42565812281228 -0.56244160126013 -2.05402813381338
 1 -13.21007621662166  2.02783784388439 -1.08215095809581
 1 -12.40173614661466  3.13780880098010  0.02214325032503
 1  11.23998668766877 -1.79090751975198  2.98206290229023
 1  9.53684201120112 -1.10256005500550  2.36246300130013
 1  11.04443818581858 -0.06451531863186  2.39967335333533
 1  10.69412567556756 -2.95829060306031 -0.77249393239324
 1  10.43348235113511 -3.60412905590559  1.02785222522252
 1  9.12155947294730 -2.47533884188419  0.21119784078408
 1 -11.51106279227923 -0.08446093999400  2.51192148914892
 1 -10.62999583858386 -1.58410095399540  2.09668345234523
 1 -12.36769766276628 -1.64615203510351  2.71379195919592
 1 -13.41051150015002 -2.72536123202320  0.51317944894490
 1 -11.76229146414641 -3.16967355625563  0.02199509750975
 1 -12.97439529852985 -2.17492668456846 -0.92880562256226
 1  8.95591749474947 -0.49854426542654  0.47913503450345
 1 -10.27691245624563 -1.89682674657466 -0.54328813081308
 1  10.48631992399240  1.35381005100510 -2.19054111311131
 1  11.86335216421642  2.41219216211621 -1.36420202820282
 1  12.39541121112111  1.20905176007601 -2.77544023302330
 1 -11.14885928692869  2.31398696279628 -2.44230495149515
 1 -9.69451542954295  1.29594361346135 -2.17051301830183
 1 -9.91206539053905  2.62940559465947 -1.22808596459646
 1  14.84160328832883 -3.02948827592759 -0.01854357435744
 1 -15.12334702770277  1.73034033413341  1.60848194419442
 1  10.16113203220322  2.52569947794780  0.09228605360536
 1 -8.78303303930393  0.33912851395140  0.05768514251425
 1  8.85197288428843  4.09667304930493  0.63875971697170
 1  7.39780616761676  4.21145600660066 -0.10383672967297
 1  7.53968322832283  3.72243331133113  1.69732657065707
 1 -8.03675646964697 -3.38330298819882 -0.29201449044904
 1 -8.37758212921292 -2.69551955485549 -1.91482337133713
 1 -6.87470324232423 -3.27403194309431 -1.62771820582058
 1  6.98188404340434  0.41946516151615 -0.01782965796580
 1 -6.44131110711071  0.26718421352135 -0.16994211921192
 1  5.43473117811781  3.17078275027503  0.67199370837084
 1 -4.93836430743074 -2.25227290529053 -0.79662581258126
 1  4.44411760476048  0.24639938593859 -0.22317438543854
 1 -4.19251065506551  0.49737910991099  0.07571885288529
 1  3.02374800280028  3.02961485148515  1.66790003100310
 1  1.65849411041104  3.28193917591759  0.69357395939594
 1  3.20629600960096  4.02340896589659  0.05463240524052
 1 -2.83031414641464 -3.14474676667667 -0.12110977597760
 1 -3.05726443944394 -2.41286834883488 -1.71813055505551
 1 -1.47966835183518 -2.48273582358236 -0.97245578857886
 1  2.37276863986399 -0.26494977597760 -0.35468168016802
 1 -1.82378700170017  1.09936818081808  0.26132222522252
 1  0.32587288628863  1.70771619861986  0.22306431643164
 1 -0.04977319231923 -1.13658382238224 -0.40244191819182

