%nproc=4
%Mem=2GB
# td=(NStates=1) CAM-B3LYP/6-31G(d,p) 

TD

0 1
 8  14.69363488848885 -2.17716064916492 -0.11552847584758
 8 -15.04595965996600  1.46279158425843  0.91293082408241
 6  11.23488583458346 -1.49859241134113  1.04745090609061
 6 -12.36832199619962 -1.17070868876888  0.47334097809781
 6  12.65587915391539 -1.89326862296230  1.07835272727273
 6 -13.71166788578858 -0.42586060596060  0.71654446644664
 6  13.30777881688169 -2.02327464956496 -0.34490803580358
 6 -13.66546583958396  0.99473813491349  0.99846109710971
 6  10.95039436643664 -0.35856348334833  0.00647735473547
 6 -11.34355071907191 -0.25898690559056 -0.13427110311031
 6  13.22644313531353 -0.67646613171317 -0.98328108210821
 6 -12.89030146814681  1.75168817591759 -0.14011336433643
 6  11.90210607960796 -0.07967758485849 -0.99163180618062
 6 -11.58630922592259  0.96129275837584 -0.50526252225223
 6  10.80950199119912 -1.00883632463246  2.44945832983298
 6  10.26102672267227 -2.67004477247725  0.71071446144614
 6 -11.78116992299230 -1.34510420232023  1.95040117111711
 6 -12.52487898289829 -2.47250847274728 -0.29226796479648
 6  9.71726696769677  0.29642859585959  0.27627158715872
 6 -10.01711728372837 -0.93947668956896 -0.35682696769677
 6  11.54526040604060  0.91562673657366 -2.14170616061606
 6 -10.59083737173717  1.81322079917992 -1.30848773877388
 6  9.43000690569057  1.62273851685169 -0.06860022002200
 6 -8.80882227922792 -0.31900384928493 -0.34609971197120
 6  8.21520062506251  2.19055503850385  0.07398817381738
 6 -7.61816985098510 -1.05946427432743 -0.70224639363936
 6  8.13321510551055  3.67418627362736  0.30386457045705
 6 -7.68780707770777 -2.55342491939194 -1.07293597859786
 6  6.93532350335034  1.56718565956596 -0.06699918491849
 6 -6.33219591659166 -0.43803206510651 -0.56105503050305
 6  5.65163587758776  2.12782702070207  0.13696066506651
 6 -5.10468901490149 -1.05207228012801 -0.62256913491349
 6  4.47960674667467  1.34246044004400  0.03605152015202
 6 -3.99214051105111 -0.20045226922692 -0.32622543754375
 6  3.13304079507951  1.77456184718472  0.16421053705371
 6 -2.62595805180518 -0.51237131613161 -0.46813516851685
 6  3.02492405940594  3.19900759275928  0.69385704370437
 6 -2.31017978597860 -1.96136962896290 -0.84217544354435
 6  2.13646273527353  0.85836790079008 -0.12638331833183
 6 -1.51094305430543  0.37454534353435 -0.08273222422242
 6  0.75140196919692  1.07374018801880  0.10070139813981
 6 -0.21278114811481  0.18291069106911 -0.22217318731873
 1  13.19639821982198 -1.24138754885489  1.63312900190019
 1  12.78955245424542 -2.89716293039304  1.62005968996900
 1 -14.51395436843684 -1.00162760466047  1.53264418541854
 1 -14.21609510451045 -0.34916278817882 -0.15600745674567
 1  12.75576658365837 -2.85365467256726 -0.81665222322232
 1 -13.20570100210021  1.15368935103510  2.08496623062306
 1  14.08789337633763 -0.00583800590059 -0.35561074207421
 1  13.74759031603160 -0.82602795989599 -1.85886861786179
 1 -13.61120632963296  1.74870993109311 -0.92151489448945
 1 -12.57260323332333  2.66879189928993  0.14393542954295
 1  11.08183087208721 -1.76073450245024  3.05957065306531
 1  9.78424675167517 -0.80681048004800  2.68174492949295
 1  11.24044778677868  0.02760389328933  2.65730911691169
 1  10.49949621262126 -3.08601337533753 -0.30567725072507
 1  10.38345734863486 -3.46585522852285  1.34077351735174
 1  9.33595091209121 -2.40287159515952  0.79368608960896
 1 -11.84047573357336 -0.24598709260926  2.31920221722172
 1 -10.71911475047505 -1.79454199809981  1.91329511351135
 1 -12.36275716871687 -2.12471989188919  2.53080366036604
 1 -13.41230167916792 -3.03292198809881 -0.15042691169117
 1 -11.73342857785779 -3.01088767766777 -0.30762786478648
 1 -12.63771163016301 -1.86449564146415 -1.39896263826383
 1  8.99849175217522 -0.21990640164016  0.67003412441244
 1 -9.99848461346135 -1.94811187508751 -0.49041284328433
 1  10.48009930193019  0.96637130713071 -2.31125318431843
 1  12.11817764676468  2.03005394829483 -2.15159076707671
 1  11.80236190619062  0.59144999989999 -3.24900758975898
 1 -11.08236263726373  2.61422698679868 -2.12970369136914
 1 -9.86346232423242  1.13196721582158 -1.99587555455546
 1 -10.01386557055705  2.58950160426043 -0.64364752075207
 1  15.04269339733973 -2.88541386848685  0.40730901090109
 1 -15.83774846784678  0.76468376847685  1.28335943194319
 1  10.02971889088909  2.46238314631463 -0.22753592859286
 1 -8.48524326032603  0.58311291239124 -0.18169879587959
 1  9.14539222622262  4.25100848284828 -0.05130928992899
 1  7.44406079307931  4.41034589558956 -0.27460380638064
 1  8.15301456145614  3.94618568656866  1.29245608360836
 1 -8.10073286728673 -3.05927058495850 -0.12917820682068
 1 -8.57426179717972 -2.60353035593559 -1.73248513751375
 1 -6.63344911691169 -2.83348788868887 -1.41994742874287
 1  7.15161101610161  0.54367758275828 -0.27563543854385
 1 -6.21586856285629  0.62357985308531 -0.25588071307131
 1  5.72710041504150  3.17646331833183  0.34391090009001
 1 -5.05161563256326 -2.12806048404840 -0.87727387738774
 1  4.58255144814481  0.36657140314031 -0.47209927792779
 1 -4.03820522452245  0.86767613961396 -0.03322204120412
 1  3.50170579857986  3.21567345734574  1.55845908690869
 1  2.04962322332233  3.57403838583858  0.66646124812481
 1  3.80239561956196  3.76557318231823  0.14223116511651
 1 -2.84753586858686 -2.49917220922092 -0.03632129712971
 1 -2.86563527652765 -2.16007306930693 -1.89070781278128
 1 -1.32378276327633 -2.22381993199320 -0.63361190419042
 1  2.47089845284529 -0.04617789878988 -0.46791300330033
 1 -1.77800242324232  1.44521276527653 -0.12084599159916
 1  0.48564886388639  2.10212563956396  0.41984399439944
 1  0.13422520752075 -0.74786495049505 -0.69162083608361

