%nproc=4
%Mem=2GB
# td=(NStates=1) CAM-B3LYP/6-31G(d,p) 

TD

0 1
 8  14.89094461946195 -2.05884881798180 -0.07699462246225
 8 -14.61324638863886  2.06595190029003  0.88631816281628
 6  11.22114446044604 -1.48010056215622  1.00753691469147
 6 -12.34276944094409 -1.03230484838484  0.74359800380038
 6  12.71516508250825 -1.91045034113411  1.01218611061106
 6 -13.65481220022002 -0.20752877277728  0.73295610761076
 6  13.40274831383138 -1.80073239533953 -0.25214875987599
 6 -13.42214150715072  1.25755441654165  0.97424867586759
 6  10.95535486248625 -0.34646227322732 -0.00947424042404
 6 -11.24427079107911 -0.25632663956396 -0.12283995999600
 6  13.35105559655966 -0.40194867996800 -0.89589234323432
 6 -12.54054649264926  1.86273928102810 -0.06103545654565
 6  11.92982885188519  0.16414679757976 -0.82194483748375
 6 -11.41370196519652  1.01255788488849 -0.54870686668667
 6  10.72081312231223 -1.23664910591059  2.38901228522852
 6  10.49723034303430 -2.73913168116812  0.41456484648465
 6 -11.98312011801180 -1.24081377327733  2.17384351535153
 6 -12.79790628562856 -2.29104032593259  0.15278654065407
 6  9.61817705870587  0.36869582258226  0.09595355535554
 6 -10.08432400440044 -1.04995773767377 -0.44851613661366
 6  11.66517239723972  1.23972914681468 -1.89566155615562
 6 -10.52562085008501  1.69883936103610 -1.44932182218222
 6  9.30755466046605  1.60696693969397  0.17256389638964
 6 -8.77015841284129 -0.61973392229223 -0.39007410941094
 6  8.05757486248625  2.20315629862986  0.32629340434043
 6 -7.56144417841784 -1.34452278017802 -0.72323849284928
 6  7.90207199119912  3.74942379737974  0.64801898589859
 6 -7.62830112711271 -2.78597817471747 -0.98622730773077
 6  6.87319729072907  1.48973791479148  0.09492700770077
 6 -6.41273397039704 -0.65011327322732 -0.49661858685869
 6  5.53914462846285  1.92497673567357  0.19016598559856
 6 -5.09699824582458 -1.14914198709871 -0.57739461746175
 6  4.40382916891689  1.22718891289129 -0.10561264626463
 6 -3.97096839383938 -0.32594481848185 -0.52964577957796
 6  3.08739623062306  1.74505889688969 -0.00642652665267
 6 -2.63605906190619 -0.76701678067807 -0.66746510151015
 6  2.74940650765077  3.09488718071807  0.52498015601560
 6 -2.33245201320132 -2.20315380738074 -1.01418264426443
 6  2.05686477547755  0.87203926792679 -0.30554123412341
 6 -1.61585354535454  0.24953284228423 -0.39935388638864
 6  0.63990081908191  1.06241905590559 -0.25283395539554
 6 -0.25166503650365 -0.00913851385139 -0.39198016801680
 1  13.19346792679268 -1.27243065316532  1.83663935293529
 1  12.98541204020402 -2.88098131223122  1.40598828282828
 1 -14.44925789878988 -0.42301974387439  1.58683960496050
 1 -14.11457495249525 -0.25238311021102 -0.21078293429343
 1  12.98603961096110 -2.70379968706871 -0.93802436043604
 1 -12.93103353535354  1.20304428652865  2.00365809980998
 1  13.95166975397540  0.16441901980198 -0.42732791379138
 1  13.77376293329333 -0.32726808390839 -1.95868859985999
 1 -13.11413662266227  2.21452651275128 -1.00800354335434
 1 -12.16470244324432  2.83216823692369  0.32060309630963
 1  10.89269195819582 -2.05723415241524  3.15408010401040
 1  9.66191451845184 -0.99436923592359  2.35936269126913
 1  11.28276201820182 -0.17656652375238  2.64296768276828
 1  10.73390965396540 -3.12402717671767 -0.60168685168517
 1  10.61241024392439 -3.65718436143614  1.00048948894889
 1  9.46337365436544 -2.47321862986299  0.10471719271927
 1 -12.07163884988499 -0.29903239713971  2.85318561556156
 1 -10.98868170717072 -1.68905144904490  2.10713449744975
 1 -12.80786167916792 -1.95364278417842  2.64483506350635
 1 -13.94503495249525 -2.61346004190419  0.44922305330533
 1 -12.17351258625863 -3.21483807270727  0.34425732373237
 1 -13.04631249024902 -2.19934912681268 -0.95889863186319
 1  8.84883678667867 -0.35535994699470  0.45067218821882
 1 -10.09074383938394 -2.06112317621762 -0.57201100310031
 1  10.62047333933393  1.59228389838984 -1.99618167716772
 1  12.11452728172817  2.01473241614161 -1.42998860686069
 1  11.92336400640064  0.96891774667467 -2.90137282628263
 1 -11.07284168516852  1.96986255035503 -2.25177589858986
 1 -9.82968894689469  1.01159517861786 -1.91551751875188
 1 -9.86778096209621  2.55046770087009 -0.90142329832983
 1  14.95905503350335 -2.95495082218222  0.44250253025302
 1 -15.36961165416542  1.58846614671467  1.41406250225023
 1  10.25127104610461  2.43852076007601  0.16070289528953
 1 -8.80410514651465  0.45747034813481 -0.05111573757376
 1  8.81952963996400  4.10735411741174  0.89078491949195
 1  7.29826621362136  4.36120098109811 -0.11772811881188
 1  7.06397565756576  3.96198726672667  1.51878871687169
 1 -8.13315610961096 -3.29688434633463 -0.15480076907691
 1 -8.28127249824982 -2.88923892679268 -1.89481137013701
 1 -6.59186495849585 -3.19642418231823 -0.91036647064706
 1  6.85268112311231  0.44669788478848 -0.17301517651765
 1 -6.40239721572157  0.63811130623062 -0.34248937393739
 1  5.46608431343134  3.13536920892089  0.28424493349335
 1 -5.16222669366937 -2.40974865286529 -0.73254940494049
 1  4.69894308730873  0.17490223622362 -0.34563663166317
 1 -4.17419882388239  0.70866023802380 -0.44381310031003
 1  3.32911853985399  3.26660855085509  1.61983522452245
 1  1.72193045404540  3.20254123612361  0.43763836583658
 1  3.19934531453145  4.08474509950995 -0.06684974297430
 1 -2.96050716571657 -2.85894818681868 -0.50138780378038
 1 -2.37096580958096 -2.38466552855285 -2.17104584658466
 1 -1.18748913391339 -2.37344489448945 -0.64811335433543
 1  2.25579694269427 -0.05812909390939 -0.73739995199520
 1 -1.72185680868087  1.10762900690069  0.00342643564356
 1  0.11009130813081  2.00595602260226  0.12762477247725
 1  0.07668945394539 -0.90370053405341 -0.63277495149515

