%nproc=4
%Mem=2GB
# td=(NStates=1) CAM-B3LYP/6-31G(d,p) 

TD

0 1
 8  14.79703522852285 -2.13789672277228 -0.40260718371837
 8 -14.56466153015301  2.06547185228523  0.72599213021302
 6  11.23007535353535 -1.35243779587959  0.88587474847485
 6 -12.35673083708371 -0.86167778567857  0.67666131013101
 6  12.66626019201920 -1.76973626972697  0.92557744974497
 6 -13.69184590359036 -0.13665168506851  0.81937474947495
 6  13.31572961196120 -1.85633795589559 -0.51084462946295
 6 -13.39546883988399  1.29142780388039  0.77764901590159
 6  11.02362168916892 -0.24928255525553 -0.03834712771277
 6 -11.33631999599960 -0.32837384428443 -0.27693536953695
 6  13.26168665966597 -0.39363784888489 -1.15782853685369
 6 -12.60660309830983  1.82815582268227 -0.39703905690569
 6  11.96360222922292  0.13444382728273 -0.99430207320732
 6 -11.47929852485249  0.97649427852785 -0.76405840184018
 6  10.84717575857586 -0.98313375437544  2.25270865486549
 6  10.50987160716072 -2.69128689668967  0.42585597559756
 6 -11.67969977597760 -1.03939363126313  2.06461259225923
 6 -12.73920041504150 -2.39942116401640  0.16004726672667
 6  9.65383062406240  0.31848080108011  0.12120608060806
 6 -10.03109868186819 -1.13672641454145 -0.53442472747275
 6  11.61126700670067  1.28316349024902 -2.00930292029203
 6 -10.61475976397640  1.71499097619762 -1.84827171717172
 6  9.29230313531353  1.68113435643564  0.06864350435044
 6 -8.83673507050705 -0.50021197009701 -0.46375147714771
 6  7.99502860786079  2.18282426542654  0.33642441744174
 6 -7.56887492149215 -1.24793312121212 -0.56942311131113
 6  7.89786157015702  3.65434428942894  0.70563474747475
 6 -7.55652394939494 -2.68827840474047 -1.03666235123512
 6  6.81602157315732  1.35523446444644  0.20582809780978
 6 -6.34104680168017 -0.61725998789879 -0.47081600660066
 6  5.52242295629563  1.97739197719772  0.43063003200320
 6 -5.12159070507051 -1.14906197909791 -0.59522640064006
 6  4.31405019101910  1.23904009800980  0.28754666966697
 6 -3.93871516851685 -0.38710093409341 -0.29903271827183
 6  3.00867835883588  1.57533192419242  0.36680079607961
 6 -2.67732318831883 -0.83395347434743 -0.34964331933193
 6  2.85465703270327  3.01834952695269  0.77651530953095
 6 -2.41393016101610 -2.28597208920892 -0.58238946494649
 6  2.00982007100710  0.71033309730973 -0.03982466246625
 6 -1.59069102910291  0.13042093109311 -0.09213316431643
 6  0.61846867586759  0.97439025302530  0.06786811481148
 6 -0.28608847884788 -0.02961056105611 -0.26654762476248
 1  13.18056663666367 -1.07615102520252  1.42034772377238
 1  12.87939143814381 -2.79328254235424  1.32193987798780
 1 -14.19083205620562 -0.59104654655465  1.83268418941894
 1 -14.24338783378338 -0.60379825172517 -0.18738059405941
 1  12.77037804480448 -2.53143245034503 -1.16191674967497
 1 -12.85220565256526  1.49161314341434  1.56431416541654
 1  13.85618020502050  0.22793537143714 -0.49925510651065
 1  13.47893345034504 -0.48385374247425 -2.24078680968097
 1 -13.33396860586059  1.86649170927093 -1.15119786278628
 1 -12.20522649564957  2.85604062416242 -0.29648861286129
 1  11.06788947794780 -1.67720614961496  2.91168586458646
 1  9.85074340134013 -0.70144994399440  2.59028578357836
 1  11.43642738473847 -0.10850971807181  2.63222660866087
 1  10.80058632163216 -3.26409118311831 -0.60835751875188
 1  10.63814281718172 -3.53760240324032  1.05812525252525
 1  9.35618293529353 -2.47723903190319  0.26992371337134
 1 -11.59645133113311 -0.06005849974998  2.65962625962596
 1 -10.61369420842084 -1.40549309320932  2.19856364036404
 1 -12.41240213321332 -1.63280069997000  2.75957653765376
 1 -13.56428687768777 -2.63357205310531  0.76211434243424
 1 -11.69851508650865 -2.82082867176718  0.27890078807881
 1 -12.82161002000200 -2.40751994389439 -0.93670641264126
 1  8.88263016601660 -0.31029544054405  0.58925604660466
 1 -10.16402116711671 -2.16393345724572 -0.81749555155516
 1  10.54761605360536  1.63641831183118 -1.97071913091309
 1  12.30294612361236  2.21059200210021 -1.46834244224422
 1  11.79881155115511  0.83204405930593 -3.08176086508651
 1 -11.22815721672167  2.19086465056506 -2.50790151115112
 1 -9.89550552855285  1.18164218331833 -2.53680964796480
 1 -10.00434461846184  2.44683733783378 -1.35373852985298
 1  14.80683981198120 -3.10123545064506 -0.21020274027403
 1 -15.13789848284828  1.69691699179918  1.51393248924892
 1  10.24083000200020  2.17074398239824 -0.09886306130613
 1 -8.65722045804580  0.48124272537254 -0.37454808080808
 1  8.95926361336134  4.13049643164316  0.63600944194419
 1  7.31175756275627  4.35847070807081 -0.10360670667067
 1  7.39946920692069  3.80258132613261  1.60398723672367
 1 -8.04666746074608 -3.35307996589659 -0.27321261026103
 1 -8.38026239723972 -2.85747575047505 -1.85527741674167
 1 -6.66779255125513 -3.19186372627263 -1.42687812181218
 1  6.89711556655666  0.18608182318232 -0.01317919291929
 1 -6.56906388238824  0.36245374047405 -0.18551367636764
 1  5.49997770277028  3.00386605860586  0.59320582958296
 1 -4.99241971297130 -2.25879355735574 -0.60650680068007
 1  4.57996118911891  0.27265201120112  0.17482541454145
 1 -4.00414181818182  0.63306267826783  0.06603788478848
 1  3.82365799379938  3.10012190219022  1.60064330533053
 1  1.92600086108611  3.35936691869187  1.16238084008401
 1  3.18490387038704  3.67676430143014  0.07209415141514
 1 -2.95793690869087 -2.96712900490049  0.03970630563056
 1 -2.67248596159616 -2.50988805080508 -1.69741848384839
 1 -1.27006739173917 -2.52685023502350 -0.49688823182318
 1  2.31835319831983 -0.22678595959596 -0.47385359735974
 1 -2.09329395239524  1.02182042604260  0.23660975397540
 1  0.20715101410141  1.99019444644464  0.76525853585359
 1  0.24473625862586 -0.95859602360236 -0.78669034303430

