%nproc=4
%Mem=2GB
# td=(NStates=1) CAM-B3LYP/6-31G(d,p) 

TD

0 1
 8  14.71373689868987 -2.16969990309031 -0.16667359035904
 8 -14.61861692569257  1.98199350445045  1.02628215921592
 6  11.11647399339934 -1.44864741684168  1.03429959095910
 6 -12.38126329032903 -1.00085170307031  0.67195083908391
 6  12.64271783778378 -1.93179247534754  1.11809670167017
 6 -13.68717543654365 -0.26893491339134  0.76696950895090
 6  13.32527056605661 -1.85130745284528 -0.27375092009201
 6 -13.38132742574257  1.33056171727173  0.97936918791879
 6  10.88080740774078 -0.20141776877688  0.08850555755576
 6 -11.19351571557156 -0.30218122502250 -0.09603727972797
 6  13.25210570157016 -0.49872835793579 -0.85551830583058
 6 -12.59075151315131  1.88452145924592 -0.17525687868787
 6  11.92858872787279  0.07525790869087 -0.78309095209521
 6 -11.35721631663166  1.08033466256626 -0.49297129312931
 6  10.76594763576358 -1.10925636663666  2.41828521252125
 6  10.30162078207821 -2.61934970297030  0.52184557455746
 6 -11.96726853285329 -1.18992868476848  2.13977010801080
 6 -12.73089958495849 -2.27338856075608  0.08071933393339
 6  9.66698193919392  0.39280823382338  0.05438939893989
 6 -10.09959553155316 -1.06417915981598 -0.37943922892289
 6  11.63199907990799  1.22727790169017 -1.81327331733173
 6 -10.46850513851385  1.72033151025103 -1.47765465546555
 6  9.33812771777178  1.68284452745275 -0.02881624162416
 6 -8.75666706370637 -0.56236818571857 -0.31656675867587
 6  8.03529263426343  2.32884886788679  0.07092786778678
 6 -7.56444447844784 -1.27921624952495 -0.56388255725573
 6  7.96927871187119  3.74449330433043  0.70100428442844
 6 -7.68412670967097 -2.71799137603760 -1.10904958995900
 6  6.81513148414841  1.58820776177618 -0.00519300430043
 6 -6.34295699269927 -0.65487374927493 -0.44946387138714
 6  5.56990770477048  2.08869310731073  0.18080504950495
 6 -5.08400694669467 -1.19606667956796 -0.72173905190519
 6  4.43759254525453  1.24955114911491 -0.11053313831383
 6 -3.96090738773877 -0.40071229522952 -0.30885370037004
 6  3.16338382938294  1.75029942094209  0.01927604360436
 6 -2.61280673667367 -0.81131121012101 -0.55698405340534
 6  2.83328489548955  2.99525721772177  0.66975463346335
 6 -2.29338810681068 -2.22790628262826 -1.21135236123612
 6  2.13468255725573  0.81066313031303 -0.29208988898890
 6 -1.60922288228823  0.08292618161816 -0.39787373837384
 6  0.70786761576158  0.91149396339634 -0.14158283028303
 6 -0.22956282628263 -0.03334093409341 -0.51401237123712
 1  12.98797737773777 -1.09092250235024  1.68899458845885
 1  12.66570006900690 -2.87742095619562  1.65316300030003
 1 -14.46681965496550 -0.43326076797680  1.48547946894689
 1 -13.95857935293529 -0.35532340424042 -0.29390124612461
 1  12.65517652465247 -2.57334664176418 -0.84677523552355
 1 -12.83889432143214  1.38516249834984  1.75510324432443
 1  14.20314490149015  0.10397297519752 -0.56599178017802
 1  13.32493805080508 -0.63404876197620 -1.87227995899590
 1 -13.38714392339234  1.68858391849185 -0.97338008100810
 1 -12.40017599059906  2.96169118921892 -0.02285124912491
 1  11.22999568856886 -1.88851728072807  3.26491118711871
 1  9.71026935393539 -0.77570736973697  2.78706546154615
 1  11.42548629062906 -0.23154202130213  2.53269665566557
 1  10.65020128312831 -3.17909268326833 -0.40236691969197
 1  10.22319132203220 -3.45305394839484  1.27326676667667
 1  9.28357567456746 -2.23600490849085  0.30071679267927
 1 -11.76676836283628 -0.25223771767177  2.71048134513451
 1 -11.08555139413941 -1.83191573547355  2.22731651565157
 1 -12.74411530453045 -1.59228664856486  2.81104168416842
 1 -13.69407985698570 -2.55518421432143  0.48981711271127
 1 -11.89975521052105 -3.26614320322032  0.21981487948795
 1 -12.85592345134513 -2.08326751865187 -1.01115385738574
 1  8.90192209520952 -0.22705711671167  0.38054517551755
 1 -10.31646641164116 -2.14759182308231 -0.72573637563756
 1  10.58110940294029  1.56439110911091 -1.83146520552055
 1  12.19390521952195  2.12796373927393 -1.38778438643864
 1  12.10088175817582  1.24352520742074 -2.88954164316432
 1 -11.01729613061306  2.42234779887989 -2.18399912091209
 1 -9.88628460646065  0.95862988208821 -2.08238420542054
 1 -9.67303148714871  2.20301295539554 -0.99834299029903
 1  14.69679880788079 -2.88581390849085  0.18175645564556
 1 -15.41725641864186  1.18487578767877  1.29301039703970
 1  10.18855477447745  2.27172408040804 -0.16156933193319
 1 -8.52477721372137  0.50423502460246 -0.17682830883088
 1  9.05571325832583  4.11523490549055  0.64216005700570
 1  7.53584997199720  4.48779364036404 -0.20035638163816
 1  7.30251951195119  3.97143821182118  1.70797763576358
 1 -8.20136293029303 -3.59953461136114 -0.56837212621262
 1 -7.97763213421342 -2.80676067896790 -2.04889677867787
 1 -6.63395916791679 -2.91597613751375 -1.16728216221622
 1  7.09270512551255  0.55791900690069 -0.22624049904990
 1 -6.07250422642264  0.41273876897690 -0.33461858685869
 1  5.35603330833083  3.16091176317632  0.47205371437144
 1 -5.10171064206421 -2.21626930493049 -1.34553070307031
 1  4.64685787878788  0.38533327932793 -0.41432350035004
 1 -4.23526493049305  0.48181755375538  0.18178945994599
 1  3.81491711971197  3.29758164816482  1.48861210221022
 1  1.82240050105011  2.95327630963096  1.48619322132213
 1  2.66232161216122  3.84004062906291 -0.17241029902990
 1 -2.91141225622562 -2.91490378237824 -0.65008267326733
 1 -2.83635234823482 -2.52528959095910 -2.16988573057306
 1 -1.27432781778178 -2.63606115611561 -1.03339188218822
 1  2.32722408540854 -0.35807908890889 -0.72601881388139
 1 -2.00956557955796  1.04368261226123  0.00456654965497
 1  0.27183748274828  1.85485091209121  0.40571258125813
 1  0.16729851485149 -0.83203336733673 -0.99791146514651

