%nproc=4
%Mem=2GB
# td=(NStates=1) CAM-B3LYP/6-31G(d,p) 

TD

0 1
 8  14.86203172817282 -2.06483941704170 -0.16784370737074
 8 -14.90598566256626  1.91222652775278  1.08043757475748
 6  11.27363970997100 -1.40191274337434  0.99961612261226
 6 -12.32798796279628 -1.04840645854585  0.69141278527853
 6  12.72460602660266 -1.72417171327133  1.19930482248225
 6 -13.67077379637964 -0.35670369026903  0.73949676167617
 6  13.47567560656066 -1.82535485758576 -0.31619516451645
 6 -13.57867716071607  1.23467212831283  0.97928917991799
 6  11.09222854985499 -0.33442106910691  0.11358806580658
 6 -11.19150551455146 -0.19467047394739 -0.04818249424942
 6  13.30067055805580 -0.46189467456746 -0.97182993699370
 6 -12.79896233423342  1.78634164126413 -0.12248160116012
 6  11.92334820382038  0.13265364826483 -0.89900254325433
 6 -11.51322191719172  1.11859848894889 -0.41952394839484
 6  10.71164220522052 -1.01328676967697  2.45929931393139
 6  10.56138675867587 -2.79643741174117  0.55905929592959
 6 -11.77359916591659 -1.28249794169417  2.09024515551555
 6 -12.58176467146715 -2.41120234213421  0.01597285928593
 6  9.70533577457746  0.28123707670767  0.19101306130613
 6 -10.06636220822082 -0.89428217011701 -0.37042832783278
 6  11.62399827982798  1.22013718761876 -1.85629761976198
 6 -10.63045133313331  1.91653113021302 -1.43566045604560
 6  9.37710161516152  1.64258050105010  0.15885252525253
 6 -8.75346674367437 -0.40388233713371 -0.39883498549855
 6  8.03861296629663  2.32501848484848  0.21724249924992
 6 -7.57799583358336 -1.11965029292929 -0.69140530953095
 6  7.94734651865187  3.73968282328233  0.35132931693169
 6 -7.68878717571757 -2.51892146904690 -1.22120080508051
 6  6.85096506750675  1.50082902390239  0.24122163716372
 6 -6.42482517951795 -0.50915917781778 -0.47405633063306
 6  5.53686440044004  1.96787102510251  0.11146811581158
 6 -5.09228777477748 -1.12293936683668 -0.68089496749675
 6  4.50851963796380  1.12205839983998 -0.13404548954895
 6 -4.03882517951795 -0.34058628262826 -0.55202801780178
 6  3.07875536653665  1.58233262426243  0.01257537353735
 6 -2.65383083908391 -0.79541962096210 -0.68583693869387
 6  2.79534110111011  3.03228092009201  0.45785344334433
 6 -2.42007077507751 -2.20428392039204 -1.03449467546755
 6  2.04288337733773  0.58232029602960 -0.05168584858486
 6 -1.59589154915492  0.11674956395640 -0.36301025202520
 6  0.68367519651965  0.91595440944094 -0.11560023202320
 6 -0.22405227522752 -0.16259385938594 -0.39499046904690
 1  13.24674325432543 -1.02414582468247  1.73983967296730
 1  12.86623012201220 -2.70754396849685  1.60606829082908
 1 -14.25551852485249 -0.76893433533353  1.47816873787379
 1 -14.31395489048905 -0.48194606650665 -0.23879573557356
 1  13.07895890289029 -2.65291459855986 -1.04237479547955
 1 -12.92740317231723  1.47666164826483  1.89150688468847
 1  14.05807039403940  0.12657523542354 -0.51574675567557
 1  13.50295585258526 -0.62437779487949 -2.04972770377038
 1 -13.37488269726973  2.07540260036004 -1.02338508150815
 1 -12.66718269126913  2.91845686578658  0.11708274427443
 1  10.68968165716572 -1.98843727272727  3.09725442144214
 1  9.72438076507651 -0.71178097709771  2.35764251925193
 1  11.26642038403840 -0.07938680578058  2.84621800780078
 1  10.74174043704370 -3.30997577157716 -0.38682536553655
 1  10.62290129302930 -3.55477412041204  1.24327376737674
 1  9.33149046604660 -2.68184949294930  0.40067678867887
 1 -11.61520320632063 -0.44746724062406  2.72078237523752
 1 -10.74536737573757 -1.77149969386939  2.01182496649665
 1 -12.51667256025602 -1.95505292519252  2.62821340134013
 1 -13.43813426242624 -2.89720841674167  0.58908703970397
 1 -11.65674090909091 -3.23036962586259 -0.11961906390639
 1 -12.90480833983398 -2.31143033493349 -0.98221096309631
 1  8.68738064106411 -0.40582499349935  0.44457157815782
 1 -10.37545231023102 -1.79701676557656 -0.63799760176018
 1  10.62091338333833  1.14422909290929 -2.06719877887789
 1  11.84503033203320  2.14662560546055 -1.47490309830983
 1  12.33568523852385  1.04131498639864 -2.74903759275928
 1 -11.36985138613861  2.32600816491649 -2.19684040504050
 1 -9.76210218821882  1.46128014711471 -1.95917188418842
 1 -10.23459764376438  2.69165181928193 -1.03352650865087
 1  14.86162529052905 -2.97265259235924  0.47621590159016
 1 -15.36926161916192  0.95232253235324  1.45299639563956
 1  10.10160607960796  2.31873878187819  0.03792061706171
 1 -8.65992072807281  0.55143974507451 -0.22222284828483
 1  9.06470415741574  3.96964034603460  0.54012985398540
 1  7.68378476547655  4.28095295629563 -0.61105745174517
 1  7.37639689968997  4.19255032303230  1.22507934593459
 1 -8.22250504450445 -3.11232589048905 -0.38947423642364
 1 -8.23165753675367 -2.45763576647665 -2.09727161616162
 1 -6.86716248824883 -2.99552409230923 -1.24875030903090
 1  6.76842269726973  0.34535775077508  0.29987211221122
 1 -6.48883585958596  0.40940843594359 -0.16863198819882
 1  5.41022872787279  3.06622229422942  0.17618412741274
 1 -4.92245271627163 -2.07205488348835 -0.97488363836384
 1  4.68821201420142 -0.00865611961196  0.10357828982898
 1 -4.19043044704470  0.71810118211821 -0.30186890589059
 1  3.31684731273127  3.19530142014202  1.50915415641564
 1  1.76109437043704  3.40567154915492  0.41903650565057
 1  3.36479185918592  3.84177080208021 -0.12886594459446
 1 -2.68053916891689 -2.77224951695170 -0.15483314831483
 1 -2.97640635363536 -2.47223428542854 -2.04588333033303
 1 -1.36951733673367 -2.55683323332333 -1.23425196819682
 1  2.52149351235124 -0.34549783078308 -0.18763497549755
 1 -1.85050967396740  1.15671391539154 -0.27549145614561
 1  0.30473077207721  1.88489391639164  0.18350036003600
 1  0.30374215921592 -1.14547471147115 -0.59908158215822

