%nproc=4
%Mem=2GB
# td=(NStates=1) CAM-B3LYP/6-31G(d,p) 

TD

0 1
 8  14.71516704170417 -2.05445837893789 -0.72276919991999
 8 -14.63714877887789  2.11774707980798  0.77023655465547
 6  11.40274262026202 -1.42427497959796  0.98237439843984
 6 -12.41263642764276 -1.03360497839784  0.59897354135414
 6  12.84567813381338 -1.87209650575058  0.82364725672567
 6 -13.71988870787079 -0.15368338823882  0.67196000800080
 6  13.30064810381038 -1.80978330043004 -0.58421196619662
 6 -13.45387468046805  1.34540320142014  0.75197644864486
 6  10.93490281728173 -0.29027665466547 -0.00206349934994
 6 -11.32012837683768 -0.34921592849285 -0.33400107610761
 6  13.12189268026803 -0.45924440954095 -1.21441419541954
 6 -12.79888232623262  1.89125213231323 -0.51895124812481
 6  11.80696656565657  0.09767014991499 -1.00121276427643
 6 -11.47127772277228  0.97318394749475 -0.84577657365737
 6  11.05256629762976 -1.05919136013601  2.48061144514451
 6  10.53927454745475 -2.64494226222622  0.57116050605060
 6 -11.81116292229223 -1.09028872077208  1.94283041404140
 6 -12.69037553255325 -2.28544976687669  0.02854411641164
 6  9.59870511151115  0.40300925392539  0.19096305630563
 6 -10.09434500650065 -1.09347208910891 -0.48511979697970
 6  11.45712159215922  1.22367754165417 -2.03229521952195
 6 -10.47188547654765  1.72919239633963 -1.72538942894289
 6  9.28946285128513  1.67193343634363  0.12052869286929
 6 -8.83976537353735 -0.53770571947195 -0.42116721872187
 6  7.96281538653865  2.28992497549755  0.31076185118512
 6 -7.58302633663366 -1.25095342324232 -0.65506167516752
 6  7.95869765376538  3.67382623762376  0.76046023002300
 6 -7.57125542254225 -2.77848742564256 -0.84185287028703
 6  6.84165413641364  1.50076901790179  0.15144265926593
 6 -6.41026372337234 -0.61995025692569 -0.39634855985599
 6  5.54192490649065  1.97445168316832  0.38697566656666
 6 -5.07750629662966 -1.15711278417842 -0.49345622362236
 6  4.44869365536554  1.23425961996200  0.12919083408341
 6 -3.92249354635464 -0.39908213221322 -0.25212802780278
 6  3.03974146514651  1.63637802880288  0.30136425242524
 6 -2.62373782978298 -0.87866794579458 -0.33232158715872
 6  2.79052061906191  3.11107879987999  0.80080773877388
 6 -2.29136790479048 -2.34899839183918 -0.62166339233923
 6  2.09391848084808  0.73570563456346  0.13637295729573
 6 -1.58483044304430  0.13084097309731 -0.07472142314231
 6  0.70965779477948  0.91511432543254  0.09326065406541
 6 -0.23346321632163 -0.10066766676668 -0.06893786378638
 1  13.40556913691369 -1.29175258535854  1.45325101410141
 1  13.04560805980598 -2.97980119421942  1.20930861486149
 1 -14.41426439943995 -0.43468090999100  1.55162608360836
 1 -14.32823631863186 -0.41658953085309 -0.33736559255926
 1  12.83842484948495 -2.64683399049905 -1.02803336133613
 1 -12.93284371637164  1.60429441154115  1.46665439943994
 1  13.89902448944894  0.29750232813281 -0.92051723272327
 1  13.34316987398740 -0.79670502760276 -2.33981671267127
 1 -13.48255346434643  1.88257331743174 -1.31523426642664
 1 -12.50991696469647  2.91691671177118 -0.24803376737674
 1  11.66243893289329 -1.79248767776778  3.02650734673467
 1  10.08376670367037 -0.96423622262226  2.63497025202520
 1  11.49205294729473  0.00014114701470  2.56814020002000
 1  10.81491775477548 -2.92090686468647 -0.55401208420842
 1  10.73176217911791 -3.45016365936594  1.33365280528053
 1  9.47679499649965 -2.49327063506351  0.62693941494149
 1 -11.26814850085009 -0.12269476337634  2.41010130713071
 1 -10.93050588958896 -1.72203474737474  2.15100888488849
 1 -12.58669956295629 -1.55060248014801  2.62709328932893
 1 -13.37956840584058 -2.94419311521152  0.61263939493949
 1 -11.80287552255226 -2.75672226112611  0.45123802180218
 1 -12.99795765476548 -2.38145733763376 -1.14156689868987
 1  8.83642554555456 -0.23815822682268  0.40175729672967
 1 -10.44085885088509 -2.16335339923992 -0.66382018401840
 1  10.38005929792979  1.26341101110111 -2.05835789478948
 1  11.72350817981798  2.35669661256126 -1.76894250225022
 1  12.20518218821882  0.84116497139714 -2.88605129412941
 1 -10.74043844484448  2.38117368146815 -2.56410713171317
 1 -9.79635561356135  0.93830784988499 -2.18591455845585
 1 -9.74057824182418  2.45723837793779 -1.25365852185218
 1  14.93012214021402 -2.91160648774877 -0.13756547654765
 1 -15.21179587258726  1.80066736683668  1.57078817481748
 1  10.29613553255326  2.41503841184118  0.04655148014801
 1 -8.68809354535454  0.48044264536454 -0.19279990599060
 1  8.95811349834984  4.12435581758176  0.61439728072807
 1  7.22305869286929  4.17274213521352  0.01224487848785
 1  7.58119737973797  3.80379144714471  1.81707854585459
 1 -7.78430122412241 -3.38288294619462  0.06673138413841
 1 -8.46593096409641 -3.11721172407241 -1.49312120112011
 1 -6.60642641464146 -3.12037657755776 -1.20019545354535
 1  6.98741459645965  0.47909112411241 -0.15143301830183
 1 -6.57265424142414  0.43654114921492 -0.06395152015202
 1  5.35641334633463  2.90087575957596  0.73240974997500
 1 -4.85172564356436 -2.20212789078908 -0.81917806780678
 1  4.57709090209021  0.07647239323932  0.01494942694269
 1 -3.97860926492649  0.65019439143914 -0.11336005500550
 1  3.52633826182618  3.34131602160216  1.89881312231223
 1  1.75199346034603  3.04905588758876  1.02413701570157
 1  3.28619399939994  3.68490511551155 -0.07355041304130
 1 -2.46432754775477 -3.01526381838184  0.55026736173617
 1 -3.18460717371737 -2.90358742074207 -1.16603534553455
 1 -1.10782116711671 -2.43596114611461 -0.94045258825883
 1  2.41732309530953 -0.18312159315932 -0.28213442544254
 1 -1.86085070807081  1.21275951995199 -0.16604051105111
 1  0.16808710771077  1.85366079307931  0.27666967696770
 1 -0.06582479747975 -1.18563872787279 -0.37338901290129

