%nproc=4
%Mem=2GB
# td=(NStates=1) CAM-B3LYP/6-31G(d,p) 

TD

0 1
 8  14.61130665566557 -2.18807174027403 -0.26845376837684
 8 -14.80414547854785  2.03490879597960  0.92977250825083
 6  11.14291663766376 -1.43192574467447  0.99229539053905
 6 -12.32249741374137 -0.94561617951795  0.62589623362336
 6  12.59286285228523 -1.75498479457946  1.02200709270927
 6 -13.70132685168517 -0.24685270517052  0.66264907690769
 6  13.23012105110511 -1.86360868296830 -0.41509505450545
 6 -13.54945423842384  1.27940660176018  0.85295654665467
 6  10.96915624262426 -0.23790141714171  0.05230193719372
 6 -11.19989635363536 -0.27069807670767 -0.08436611261126
 6  13.26753724472447 -0.51672015711571 -1.01167392139214
 6 -12.66068850685068  1.86603961106111 -0.17337669066907
 6  11.92375824482448  0.07520790369037 -0.88447109010901
 6 -11.44319491449145  1.04934156325633 -0.48135013101310
 6  10.71164220522052 -1.11316675767577  2.41985536953695
 6  10.34218483848385 -2.60323809180918  0.44825821582158
 6 -11.77346915291529 -1.26644633653365  2.00351648264826
 6 -12.71319781478148 -2.26329755165517 -0.09522826082608
 6  9.62614785578558  0.39757871087109  0.15723968396840
 6 -10.05065063706371 -0.92337507940794 -0.45392667766777
 6  11.84139001900190  1.30096527042704 -1.77025901590159
 6 -10.52833112111211  1.70877035413541 -1.46831372137214
 6  9.41494539953995  1.72251849484948  0.15892253225323
 6 -8.72395379237924 -0.48574052295230 -0.39649475147515
 6  8.09480858585859  2.34334031703170  0.16453722872287
 6 -7.57143517751775 -1.31322965086509 -0.58078424742474
 6  7.96159794379438  3.81122997799780  0.46635081908191
 6 -7.75368366536654 -2.70094967186719 -0.91154983998400
 6  6.94725469646965  1.59095803680368  0.07494500950095
 6 -6.39834253125313 -0.65859412131213 -0.48288721372137
 6  5.57810852485249  2.10274451245125  0.18799576857686
 6 -5.12315086108611 -1.18245531843184 -0.63954083208321
 6  4.54641342734273  1.23272946694669  0.08738665366537
 6 -3.92551384838484 -0.34395661966197 -0.41072388738874
 6  3.15763325432543  1.60186457745775  0.13509762576258
 6 -2.57300275627563 -0.82981306030603 -0.59935829082908
 6  2.69391095809581  3.10240793279328  0.51293895189519
 6 -2.30774954295430 -2.27556104810481 -0.95297652365237
 6  2.15236432543254  0.61665372937294 -0.08014869486949
 6 -1.51295325532553  0.00815870487049 -0.28452240324032
 6  0.77181401040104  0.74795760976098  0.02790411841184
 6 -0.19643951395140 -0.26804440444044 -0.28465943594359
 1  13.02294087408741 -1.02925633573357  1.75279096809681
 1  12.33104660366037 -2.82910612471247  1.45783346734673
 1 -14.35159813281328 -0.84753219511951  1.36060698169817
 1 -13.95102859785979 -0.26551442334233 -0.26316817281728
 1  12.66932793979398 -2.61758106520652 -1.12909346734673
 1 -13.14579501150115  1.42979696179618  1.91471920592059
 1  14.07827241424142  0.06040861876188 -0.31158633963396
 1  13.78268382538254 -0.48212356945694 -2.09862259325933
 1 -13.11633684268427  2.14630969106911 -1.28199094209421
 1 -12.24313028602860  2.79397441754175  0.26296733273327
 1  11.02435512451245 -1.96782521152115  3.07177187318732
 1  9.60736906390639 -0.78949874887489  2.45372212721272
 1  10.90708445044504 -0.04745361246125  2.50198358435844
 1  10.52301856485649 -2.69549432343234 -0.58852553555356
 1  10.52416141904190 -3.54788343134313  0.86177561756176
 1  9.23693101010101 -2.19341064906491  0.37760448144815
 1 -11.44446613261326 -0.31456395029503  2.73874417141714
 1 -10.91501434043404 -1.97939048294830  1.94588837283728
 1 -12.77497839083908 -1.60693811371137  2.51164174417442
 1 -13.49231968096810 -2.91223991989199  0.57495562656266
 1 -11.97232246724672 -2.94847143604360  0.01534443244324
 1 -13.03802166116612 -2.25463465536554 -1.07955069706971
 1  8.79365126812681 -0.34524893589359  0.48820594159416
 1 -10.01956672167217 -1.99819688358836 -0.49510331233123
 1  10.62471376337634  1.49095376537654 -1.89448150715072
 1  12.14750057905791  2.14871581448145 -1.25981158915892
 1  12.26326799679968  1.14567542244224 -2.79269195819582
 1 -11.09791419241924  2.41326689078908 -2.20681140214021
 1 -9.79068504650465  1.24309832893289 -2.07548351535153
 1 -9.88953313731373  2.37176983108311 -0.64307746374637
 1  14.62562169016902 -3.07102242934293  0.22039031903190
 1 -15.19076376937694  1.68154545464547  1.95995709170917
 1  9.95301122012201  2.31291819981998  0.03487031203120
 1 -8.60437517351735  0.54120872197220 -0.29027965396540
 1  9.00495818281828  4.26675005700570  0.08604444544454
 1  7.05655204220422  4.32813767476748 -0.22901924792479
 1  7.83416267626763  4.10083115111511  1.59954679267927
 1 -7.91921471547155 -3.30407506540654 -0.09681497049705
 1 -8.36842121312131 -2.90304030693069 -1.66376826582658
 1 -6.78286405840584 -3.16357089698970 -1.34575000900090
 1  7.20657651265127  0.47643085808581 -0.06170404540454
 1 -6.46423339933993  0.52139963506351 -0.34831995699570
 1  5.66848455345535  3.23452912491249  0.10925743474347
 1 -4.96968743974397 -2.11131880988099 -1.02477862786279
 1  4.63173636663666  0.03934868086809 -0.09995206320632
 1 -4.11130253425343  0.91546091809181 -0.37821654065407
 1  2.66341196919692  3.36178806880688  1.65562880388039
 1  1.49449771077108  3.10940192219222  0.11848645064506
 1  3.09343472347235  3.82703932893289  0.00467740974097
 1 -2.50962207720772 -3.00656294829483 -0.01942960796080
 1 -3.02987170017002 -2.38547560956096 -1.78842758475848
 1 -1.27579796479648 -2.41842939293929 -1.24804334733473
 1  2.42064342734273 -0.33820710171017 -0.45000121212121
 1 -1.71326594959496  0.91881012501250  0.17892398539854
 1  0.46758705770577  1.81510693769377  0.50011202120212
 1  0.04279606460646 -1.08527869186919 -0.75040671467147

