%nproc=4
%Mem=2GB
# td=(NStates=1) CAM-B3LYP/6-31G(d,p) 

TD

0 1
 8  14.74078960396040 -2.24397733083308 -0.27241416441644
 8 -14.55071013501350  2.15487079217922  0.93431296229623
 6  11.21044339033903 -1.52280483258326  1.00502666366637
 6 -12.35654081808181 -0.96461807970797  0.64710835483548
 6  12.74320788678868 -1.75799509560956  0.95755064706471
 6 -13.67680439943994 -0.07348536843684  0.54972778477848
 6  13.25429346834684 -1.82259458155816 -0.43751729672967
 6 -13.33338263126313  1.32882154325433  0.89429068006801
 6  10.95681500850085 -0.25435306230623  0.04468117511751
 6 -11.32269863386339 -0.27122812971297 -0.20448812481248
 6  13.23420391139114 -0.36475496059606 -0.95494824882488
 6 -12.50966340434043  1.86207921502150 -0.21356070907091
 6  11.88824469346935  0.24607499039904 -0.83779642264226
 6 -11.41502209720972  1.03406003510351 -0.66194819081908
 6  10.72703374437444 -1.15331077207721  2.37577096109611
 6  10.38143876387639 -2.64545231323132  0.32567595759576
 6 -11.83100490649065 -1.11664135603560  2.02579871087109
 6 -12.69784627962796 -2.31918314021402 -0.08817755575558
 6  9.76276151715171  0.42330128312831  0.12371633163316
 6 -10.04639021102110 -1.03188593049305 -0.40650193519352
 6  11.64569044904490  1.37216239013901 -1.82673466346635
 6 -10.39508779677968  1.70372985008501 -1.56178306830683
 6  9.24876878187819  1.73630987398740  0.11476811681168
 6 -8.80994239123912 -0.51184313321332 -0.32897799979998
 6  8.02824192919292  2.33878986198620  0.27415819081908
 6 -7.58447648164816 -1.33300162806281 -0.62324849384938
 6  7.85200698469847  3.84357321232123  0.56120030403040
 6 -7.74886318331833 -2.71765134203420 -0.99787847284728
 6  6.88574854585459  1.59088802980298  0.15611312631263
 6 -6.30980367736774 -0.70377863976398 -0.39982890789079
 6  5.53079379337934  2.07578181618162  0.18024499349935
 6 -5.05272381838184 -1.33725079797980 -0.42106898489849
 6  4.43235202120212  1.19984617861786 -0.11080316531653
 6 -4.02313361036104 -0.50452267626763 -0.20199301430143
 6  3.11838932993299  1.63593798479848  0.08475259125913
 6 -2.65903135913591 -1.01390146914691 -0.31232958795880
 6  2.74246581358136  3.01435912791279  0.67135479347935
 6 -2.39886865486549 -2.34592808480848 -0.74032525852585
 6  2.07025611461146  0.74844690869087 -0.29425010501050
 6 -1.64585654565457 -0.02735484648465 -0.18842279327933
 6  0.74653148214821  0.89995280928093 -0.16913558555856
 6 -0.27947781778178 -0.10916851685169 -0.39665063506351
 1  13.36354493449345 -1.21833524362436  1.65648133713371
 1  12.86718021702170 -2.74844805890589  1.53837152115212
 1 -14.45569854285429 -0.55835327722772  1.27263818481848
 1 -14.12827632263226 -0.26309418131813 -0.38282013801380
 1  12.90819182618262 -2.42750205730573 -1.26962752075208
 1 -12.91311174317432  1.65482946504650  1.80712844684468
 1  14.12753734073407  0.30681325922592 -0.46405158615862
 1  13.66652220922092 -0.45387074417442 -2.04974770577058
 1 -13.19038424742474  2.06038109820982 -1.11912465546555
 1 -12.21085705870587  2.95477049714972  0.00964200020002
 1  10.99571226022602 -2.04138256725673  3.07178187418742
 1  9.78615694269427 -1.01213101210121  2.48716547154716
 1  11.30246398839884 -0.39813868096810  2.80665405140514
 1  10.79896615961596 -2.81417619161916 -0.67333401640164
 1  10.66944594749475 -3.66050469346935  0.83721316131613
 1  9.27782509950995 -2.57050835883588  0.48168488948895
 1 -11.68760044604460 -0.02136463036304  2.66184648164817
 1 -10.88615145414541 -1.90415295919592  2.02711649564956
 1 -12.75464635763576 -1.54365178507851  2.36384696469647
 1 -13.71615206420642 -2.60628932483248  0.21694982598260
 1 -11.87667290229023 -2.84294088298830  0.06784968296830
 1 -12.78109596859686 -2.40501969386939 -1.17543028502850
 1  8.86952885588559 -0.25408981998200  0.20732785378538
 1 -10.02380714571457 -2.11545860976098 -0.68857265926593
 1  10.67845913791379  1.62140681068107 -2.02826488548855
 1  12.15114094309431  2.13814475737574 -1.39539514751475
 1  12.33486515651565  1.08117897279728 -2.62160484948495
 1 -11.13099750075007  2.32484804890489 -2.08474919591959
 1 -10.04685066306631  1.15629964906491 -2.03822978997900
 1 -9.77213139713971  2.40367302140214 -0.76779993599360
 1  14.69989911791179 -3.23720904800480 -0.14603632363236
 1 -15.24851954495449  1.77195449554955  1.61161225722572
 1  10.12004792379238  2.41054796279628 -0.05482865786579
 1 -8.65069980598060  0.60003460456046 -0.09388001400140
 1  8.82286997399740  4.27144052605260  0.47968380938094
 1  7.27147353435344  4.26740160116012 -0.26633297929793
 1  7.25452471247125  4.09979104710471  1.53310014801480
 1 -8.43049584358436 -3.27627228512851 -0.35186047504751
 1 -8.28240261126113 -2.88893889678968 -2.10777266626663
 1 -6.83209898189819 -3.24521906180618 -1.25609104310431
 1  7.22195805080508  0.57333054805481 -0.13945182018202
 1 -6.27469444544454  0.25580307540754 -0.09854497949795
 1  5.38581628662866  3.01915758775878  0.41110761976198
 1 -5.03841431243124 -2.23601127912791 -0.79174532453245
 1  4.56110930393039  0.17454220022002 -0.52056412441244
 1 -4.03993539753975  0.52913228522852  0.31041232223222
 1  2.72360798879888  3.16331822182218  1.82084532553255
 1  1.67939620062006  3.13367434943494  0.45616021802180
 1  3.48420380038004  3.79086571157116  0.16001294329433
 1 -2.85350646564656 -2.99869216121612  0.03416575157516
 1 -2.92769148214821 -2.42026908890889 -1.86331507350735
 1 -1.28365875087509 -2.68448599859986 -0.92640118311831
 1  2.11446280928093 -0.38358163916392 -0.64890110211021
 1 -2.01741636463646  0.84154239823982  0.46328242124212
 1  0.09540983998400  1.78037346434643  0.51557356735674
 1  0.26039782478248 -0.84723488748875 -0.97868954295430

