%nproc=4
%Mem=2GB
# td=(NStates=1) CAM-B3LYP/6-31G(d,p) 

TD

0 1
 8  14.61498702370237 -2.32909584268427  0.10512358935894
 8 -14.68059312331233  1.88858416351635  1.43557308830883
 6  11.08387073307331 -1.49651220332033  1.05590175117512
 6 -12.40182534653465 -1.05881749964997  0.71296494049405
 6  12.56888045404540 -1.94601389748975  1.26062095409541
 6 -13.65638235723572 -0.30053807370737  0.78946175817582
 6  13.29175721472147 -2.03803612571257 -0.06174971997200
 6 -13.44831412441244  1.09485814691469  1.20959221022102
 6  10.94492381938194 -0.27127475447545  0.17183389038904
 6 -11.29429579357936 -0.26430743764376  0.01227355135514
 6  13.35163565456546 -0.70167865296530 -0.76643939793979
 6 -12.80515295329533  1.61656466356636 -0.05243459645965
 6  11.90039590859086  0.06879726262626 -0.63749639263926
 6 -11.46962755775577  0.92702933203320 -0.37567956395640
 6  10.49541058205821 -1.13470891189119  2.42517590159016
 6  10.07731835183518 -2.60166793479348  0.43899728972897
 6 -11.89376118211821 -1.38066775867587  2.26391252225223
 6 -12.68683517851785 -2.37224844674467  0.12324358635864
 6  9.63229847084708  0.39389834283428  0.19694365436544
 6 -10.03187875987599 -0.99422216411641 -0.47376866186619
 6  11.80227610761076  1.28041321522152 -1.54340633063306
 6 -10.59308759675968  1.79345882298230 -1.28843573357336
 6  9.43512741774177  1.76358260126013 -0.02899625962596
 6 -8.76034743174317 -0.43574552345235 -0.54337943994399
 6  8.12606171117112  2.44613059605961 -0.02572179717972
 6 -7.52628066206621 -1.15795412331233 -0.68672484148415
 6  8.08740052405241  3.80147900290029  0.44216840084008
 6 -7.55815411241124 -2.62076165306531 -1.25078376337634
 6  6.92361233223322  1.68348728972897 -0.06291877687769
 6 -6.31275397239724 -0.45003326522652 -0.52929185418542
 6  5.56189690369037  2.16888112611261 -0.04801783278328
 6 -5.12307085308531 -1.04749182208221 -0.83607048504850
 6  4.49426821282128  1.38696489048905 -0.24640672567257
 6 -3.97333863086309 -0.36445866986699 -0.67688050305031
 6  3.16205369636964  1.74581897289729 -0.09429531353135
 6 -2.59218467446745 -0.63466354535454 -0.86245460046005
 6  2.80874244124412  3.05914360636064  0.34628228622862
 6 -2.17730649864987 -2.04543803580358 -1.30732195819582
 6  2.15593468246825  0.75627769176918 -0.33114379437944
 6 -1.54006596659666  0.20403829282928 -0.46654060506051
 6  0.75607243624362  0.84661747574757 -0.22069074107411
 6 -0.14903477347735 -0.11640924092409 -0.63657462746275
 1  13.04842342234223 -1.17890130023002  1.88322401140114
 1  12.60046354535454 -2.68553176727673  2.06501418541854
 1 -14.54661763476348 -0.70371781368137  1.54940586158616
 1 -14.24049754475448 -0.41958983088309 -0.09326118211821
 1  12.80825183218322 -2.72350165726573 -0.65663622162216
 1 -12.89606003800380  1.09517349944995  2.26498423242324
 1  14.19311389838984 -0.31273869596960 -0.39087426842684
 1  13.70564612161216 -0.88864422152215 -1.83519625062506
 1 -13.48281349034903  1.32850791089109 -0.99496223922392
 1 -12.67050302330233  2.87142216231623 -0.12654161816182
 1  10.30752344134413 -2.02543097209721  2.99716441244124
 1  9.49269759675968 -0.48535833483348  2.43053980898090
 1  11.23483722572257 -0.41632049914991  2.90537392339234
 1  10.44059032203220 -2.71092586658666 -0.57179386238624
 1  10.31652065496550 -3.45265390839084  1.04084352435244
 1  8.97860517751775 -2.45413672167217  0.43310003100310
 1 -11.63975566156616 -0.39900239413941  2.80371066806681
 1 -11.00003284228423 -1.90005254915492  2.12487627162716
 1 -12.67534842784278 -1.87956537643764  2.80613119311931
 1 -13.60721117011701 -2.56274497039704  0.57407553855386
 1 -11.97183241824183 -3.15814240314031  0.11213411141114
 1 -12.69787764676468 -2.16789598149815 -0.97768051005101
 1  8.78961086408641 -0.18291270227023  0.43299042004200
 1 -10.26544130913091 -2.03887095099510 -0.45550935293529
 1  10.73712500450045  1.21917658765877 -1.92097415641564
 1  11.76249207820782  2.32027297019702 -0.97949355735574
 1  12.50534220422042  1.43064391929193 -2.43989667866787
 1 -11.18258265926593  2.37829339343934 -1.99510023102310
 1 -9.85624160216022  1.27528154725473 -2.02413838083808
 1 -10.12506669066907  2.61758441254125 -0.65761891789179
 1  14.59039816781678 -3.38039336643664  0.39387766776678
 1 -15.35096978997900  1.23399069916992  1.91176227222722
 1  10.41194711371137  2.51832874087409 -0.01919509450945
 1 -8.60118485448545  0.61029563066307 -0.44575520152015
 1  9.15152283928393  4.36282966496650  0.20574641564156
 1  7.51729811681168  4.48656351735174 -0.28456480248025
 1  7.93670293029303  3.98762983098310  1.44923176117612
 1 -7.57559035303530 -3.33912857075708 -0.37598288728873
 1 -8.39804417541754 -2.77221722462246 -2.06567845684568
 1 -6.50789656165617 -2.83157769766977 -1.90300573457346
 1  6.78314416941694  0.64178739373937 -0.30096797179718
 1 -6.25741271727173  0.44190168526853 -0.23966909190919
 1  5.47068477347735  3.21614728672867  0.23657016601660
 1 -5.06595706670667 -1.99253693169317 -1.12024817481748
 1  4.70891408440844  0.19750449644964 -0.07306937493749
 1 -4.09255065906591  0.75474484648465 -0.28407712671267
 1  2.84356998499850  3.19672156215622  1.43347658865887
 1  1.67555581658166  3.41146212821282  0.31777637963796
 1  3.43046842684268  4.03311993699370  0.00079702170217
 1 -2.83472458745875 -2.69902219421942 -0.32388005300530
 1 -2.53548226122612 -2.40578764076408 -2.26460520252025
 1 -1.23949433443344 -2.47550510051005 -1.38138668166817
 1  2.56921828482848 -0.19903318431843 -0.61335754775478
 1 -1.87954257725773  1.07498574257426 -0.13299720672067
 1  0.34973527252725  1.83613904090409  0.39316132613261
 1  0.03769555455546 -1.19637980198020 -0.76757843184318

