%nproc=4
%Mem=2GB
# td=(NStates=1) CAM-B3LYP/6-31G(d,p) 

TD

0 1
 8  14.74567009200920 -2.26831976507651 -0.61704862786279
 8 -14.76542160616061  1.96994229932993  0.72046157715772
 6  11.27225957195719 -1.48402095419542  0.92338849984998
 6 -12.43728889288929 -0.95517713561356  0.54058770277028
 6  12.90995456145614 -1.62586188228823  0.94002889488949
 6 -13.77247396639664 -0.14531255115512  0.38251106310631
 6  13.38587662666267 -1.84869719181918 -0.48393193819382
 6 -13.53714300730073  1.25126378747875  0.75014626562656
 6  10.95904523152315 -0.20036766376638 -0.06570986398640
 6 -11.28233459745975 -0.20322132903290 -0.27131480748075
 6  13.21377186818682 -0.55879436453645 -1.19369212321232
 6 -12.72100453845384  1.87110011711171 -0.27375672867287
 6  11.90007587658766  0.14379476237624 -0.98901154415442
 6 -11.48353894889489  1.10962759185919 -0.68457045304530
 6  10.98500954195420 -1.01428686968697  2.33569695369537
 6  10.42050267026703 -2.59098686668667  0.50409379937994
 6 -12.10517232323232 -1.13353304520452  2.01866799779978
 6 -12.80631712671267 -2.31647286918692 -0.23431216921692
 6  9.65437067806781  0.43976292929293  0.18447240724072
 6 -9.99833540554055 -1.04858760066007 -0.42446373137314
 6  11.57121300130013  1.27876305020502 -1.94044603460346
 6 -10.56672496049605  1.74164364146415 -1.65254214421442
 6  9.41539544454445  1.72765900890089  0.03655029502950
 6 -8.73100449744975 -0.47836978587859 -0.29919502150215
 6  8.09466857185718  2.30151613461346  0.15649642464246
 6 -7.57307534153415 -1.16682501040104 -0.47866403540354
 6  8.04678646264627  3.80950980598060  0.42414659865987
 6 -7.75840413741374 -2.72782235913591 -0.66907559255926
 6  6.95135510651065  1.52167110811081  0.10745826082608
 6 -6.32076477347735 -0.62762102400240 -0.41625055005501
 6  5.56988770277028  1.95601983998400  0.48011498049805
 6 -5.08255680168017 -1.17562463536354 -0.42798967696770
 6  4.45653443944394  1.27522371637164  0.29409732473247
 6 -3.94239553655366 -0.47504972897290 -0.48577139213921
 6  3.09130662166217  1.67369176017602  0.42409652565257
 6 -2.55693114911491 -0.90225030403040 -0.47477583258326
 6  2.77005857285729  3.01196888888889  0.81906956495650
 6 -2.31756052405241 -2.34826831883188 -0.76410763676368
 6  2.09407849684969  0.64301636563656  0.25902522252225
 6 -1.51242320232023 -0.03378548954895 -0.11273522452245
 6  0.74133096209621  0.81499431343134  0.26217754575458
 6 -0.17268713871387 -0.18668626862686 -0.09670064006401
 1  13.38856743674367 -0.69367277737774  1.26995268426843
 1  13.14093759275928 -2.37782099619962  1.78077576157616
 1 -14.56454942794279 -0.54040148204820  1.18731965296530
 1 -14.37062055705571 -0.09794766666667 -0.67884974097410
 1  12.56796780378038 -2.38090739783978 -1.05268582658266
 1 -13.08768920092009  1.38162214431443  1.79333706770677
 1  13.89260384738474  0.05751832973297 -0.69607478847885
 1  13.62639819681968 -0.56204156125613 -2.22280501150115
 1 -13.40441565056506  1.86407146724672 -1.12355509850985
 1 -12.55840181318132  2.86720174027403 -0.08005696969697
 1  11.21344403340334 -1.88589701870187  2.96308100410041
 1  9.73425175217522 -0.91305110411041  2.29445620062006
 1  11.71596533853385 -0.15385425252525  2.60688407440744
 1  10.80693695669567 -3.13657843184318 -0.64711139413941
 1  10.57785678857886 -3.51232987598760  1.13464290429043
 1  9.37893521052105 -2.43522483048305  0.52179890089009
 1 -12.18783046904690 -0.19710220412041  2.61259155615562
 1 -10.91671451045105 -1.25476802070207  1.99860364436444
 1 -12.74735562856286 -1.87400482038204  2.63914449444945
 1 -13.74420486948695 -2.66106480238024  0.05968409940994
 1 -12.17067230223022 -3.18244483338334  0.13871676967697
 1 -12.61385924492449 -2.42555174707471 -1.37509025102510
 1  8.72682458545855 -0.38471288228823  0.32706982798280
 1 -10.30200496549655 -1.98680574447445 -0.74722852485249
 1  10.49422071407141  1.71303597359736 -2.02473453245325
 1  12.19296512551255  2.18432937583758 -1.75814142214221
 1  11.91287295729573  0.89308016291629 -2.93603629262926
 1 -11.22823722472247  2.03720928502850 -2.47108782978298
 1 -9.84904088208821  1.19793381248125 -2.02590855785579
 1 -10.23566775077508  2.61005365946595 -1.30701385738574
 1  14.81823095109511 -3.01967729482948 -0.09811153115312
 1 -15.57396208920892  1.45353265336534  1.41054215021502
 1  10.32475839483948  2.24053096109611 -0.17262043704370
 1 -8.60238497449745  0.44639924102410  0.11234060806081
 1  9.11838952595260  4.30668405040504  0.20369621062106
 1  7.36279266626663  4.20642550355035 -0.30368671467147
 1  7.78995825582558  3.98511957995800  1.27709454745475
 1 -8.47769056305631 -3.14195885378538  0.12400711171117
 1 -8.19559393039304 -2.74584458735874 -1.69721161016102
 1 -6.98402417441744 -3.39182372227223 -0.60438587258726
 1  6.89761561656166  0.55262847784778 -0.25407328232823
 1 -6.25663263926393  0.47450494559456 -0.37821294629463
 1  5.40129783478348  2.82405807780778  0.85837234623462
 1 -4.96800727172717 -2.23263094109411 -0.36612276227623
 1  4.44621781478148  0.17931267726773 -0.12401446944694
 1 -4.03047445144514  0.70781015301530 -0.22477119611961
 1  3.42924855285529  3.13322521252125  1.62106534753475
 1  1.84835309630963  3.13728471047105  1.01346594859486
 1  3.28452383238324  3.74582120712071  0.10896783878388
 1 -2.79476059105911 -2.96864915691569  0.04279661466147
 1 -2.83822253525353 -2.74910197219722 -1.62652139413941
 1 -1.40829121412141 -2.73570112011201 -0.73578212121212
 1  2.55083644664466 -0.34811809280928 -0.01401761376138
 1 -1.79107373037304  0.99937818181818  0.26872296529653
 1  0.22991329032903  1.82755818281828  0.51087309730973
 1  0.02078386338634 -1.19249941394139 -0.29761143514351

