%nproc=4
%Mem=2GB
# td=(NStates=1) CAM-B3LYP/6-31G(d,p) 

TD

0 1
 8  14.62401792679268 -2.40491342444244 -0.39497642064206
 8 -14.73489855385538  2.00530583568357  0.79514904590459
 6  11.17286963296329 -1.41424397649765  0.88773493449345
 6 -12.45414057805780 -1.02148376627663  0.54771841584158
 6  12.67313087908791 -1.80830012611261  0.95767065906591
 6 -13.72342906190619 -0.24649266916692  0.59105191719172
 6  13.33918195719572 -1.88720104220422 -0.40759430443044
 6 -13.57184647764777  1.30578924002400  0.84575582658266
 6  10.98055738273827 -0.23144077107711  0.00875758275828
 6 -11.29885624962496 -0.24624563146315 -0.20846852285229
 6  13.31459195019502 -0.58762724782478 -1.09820257425743
 6 -12.61649408740874  1.97708071517152 -0.27063641664166
 6  11.94103997299730  0.14466484938494 -0.86378902190219
 6 -11.42143273827383  1.00700732983298 -0.60854285028503
 6  10.62536357735774 -1.10578601960196  2.32171555555556
 6  10.43120374037404 -2.52149991799180  0.28261165116512
 6 -11.96980878687869 -1.25658535043504  1.97492362336234
 6 -12.78374486948695 -2.42423364526453 -0.10397913591359
 6  9.69800504150415  0.45606455945595  0.17587154715472
 6 -10.11515708770877 -0.99907264916492 -0.38123940894089
 6  11.69739561956196  1.22330750465046 -1.90659264926493
 6 -10.47739602760276  1.70594007110711 -1.48690558055806
 6  9.33775768076808  1.79480572357236  0.15702234223422
 6 -8.75430682768277 -0.52024397329733 -0.44331943394339
 6  7.98247735273527  2.24298028102810  0.30181095609561
 6 -7.52850088408841 -1.26766509440944 -0.56058222722272
 6  7.95040682468247  3.72206106110611  0.57840202420242
 6 -7.55223352035203 -2.71984156105611 -0.98004668966897
 6  6.90213018401840  1.48078701970197 -0.00579306430643
 6 -6.32215491249125 -0.63098136003600 -0.34321324632463
 6  5.60317103110311  2.09457369536954  0.30605757475748
 6 -5.04021256725673 -1.21036810971097 -0.39998687668767
 6  4.47722650865087  1.30660685468547  0.05806372137214
 6 -3.91757305430543 -0.44201642564256 -0.33094590959096
 6  3.11340883188319  1.69760415141514  0.23403751975198
 6 -2.54506996299630 -0.86261634063406 -0.36382473747375
 6  2.77347891489149  3.12665035703570  0.46569422742274
 6 -2.16890565856586 -2.32149564156416 -0.59107033303330
 6  2.16172526152615  0.77838990299030 -0.08186886688669
 6 -1.50504246424642  0.13230111911191 -0.14913886488649
 6  0.69386621562156  0.98659147314731  0.06629795779578
 6 -0.17326719671967 -0.03955155515552 -0.14851582158216
 1  12.92693127312731 -1.03931734183418  1.73585927492749
 1  12.61841534053405 -2.64697791189119  1.52170985498550
 1 -14.30975394839484 -0.64402184408441  1.24342526352635
 1 -14.23239673467347 -0.52091996389639 -0.49860171617162
 1  12.92352335933593 -2.52666197329733 -1.27921847984799
 1 -12.86824725672567  1.40060404250425  1.73895162916292
 1  14.10676526352635  0.06742932083208 -0.93792897389739
 1  13.38296385338534 -0.59203456055606 -2.00142287328733
 1 -13.23254846384638  2.08263332343234 -1.08723146614661
 1 -12.17141311431143  2.83133815391539  0.00900193619362
 1  10.70581327032703 -1.88520694969497  2.89899459545955
 1  9.49767809480948 -1.12399219821982  2.43404015901590
 1  10.97160090209021 -0.15514438153815  2.64254764076408
 1  10.76352261526153 -2.87113188718872 -0.70686736973697
 1  10.59626862976297 -3.26107475047505  1.08897833783378
 1  9.29240655765576 -2.26703801180118  0.23692041304130
 1 -12.00396208220822 -0.33437593149315  2.55291558855886
 1 -10.95843868286829 -1.84169671357136  2.22270605460546
 1 -12.77130802380238 -2.04598201810181  2.54903548354835
 1 -13.68054850385039 -2.58724742064206  0.29156728772877
 1 -12.10415565056506 -3.17027361626163  0.00884378237824
 1 -12.86076393539354 -2.20653984588459 -1.31276401840184
 1  8.70878278127813 -0.27573198419842  0.50748786978698
 1 -10.18249301430143 -2.15896296019602 -0.35065886788679
 1  10.57529882188219  1.50540521052105 -2.23033509250925
 1  11.96367219621962  2.35006594949495 -1.54781038903890
 1  12.22854452445244  0.97517837273727 -2.82641533053305
 1 -10.92809721072107  2.61775733983398 -2.25355607660766
 1 -9.84562054005400  1.10509452855286 -2.09379534653465
 1 -9.76654083808381  2.28916157025703 -0.94409756575658
 1  14.72844197219722 -3.15861118821882  0.22077035703570
 1 -15.45979067206721  1.49564686478648  1.37032812881288
 1  10.06022194119412  2.67940484848485 -0.08757193219322
 1 -8.62565730173017  0.75126972807281 -0.41654228022802
 1  9.06948463546355  4.08645202720272  0.99665550655065
 1  7.48857524452445  4.35061992299230 -0.21283762976298
 1  7.04611387138714  3.92180324832483  1.43131996999700
 1 -8.06917971197120 -3.34428908680868 -0.20154544354435
 1 -8.10232460346035 -2.86365636853685 -2.04034592359236
 1 -6.52484825682568 -3.22287682758276 -1.01009644364436
 1  7.00972682768277  0.50877409240924 -0.46012388738874
 1 -6.54589156515652  0.39857735283528  0.00905578057806
 1  5.50061776677668  3.14793046504650  0.65222173117312
 1 -4.89410988198820 -2.20225790379038 -0.87830398039804
 1  4.55544873787379  0.27891263726373 -0.50376244424442
 1 -4.04850625462546  0.54135350735073 -0.08865758475848
 1  3.03742937093709  3.49830172017202  1.60334357535754
 1  1.68905716671667  3.25507648964896  0.49035363736374
 1  3.52706808680868  3.80733735873587 -0.09675273327333
 1 -2.44614572957296 -3.16189848184818  0.36233856885689
 1 -2.93234194719472 -2.54284134613461 -1.40546928892889
 1 -1.12661304630463 -2.44250180018002 -0.98805734873487
 1  2.36828819181918 -0.27277055805581 -0.34062027402740
 1 -1.96987161016102  1.13821206520652 -0.08698260526053
 1  0.25006530553055  1.92225765276528  0.47267927792779
 1  0.12176396139614 -1.13972413641364 -0.14338601260126

