%nproc=4
%Mem=2GB
# td=(NStates=1) CAM-B3LYP/6-31G(d,p) 

TD

0 1
 8  14.70990651565157 -2.27419035213521 -0.65225214821482
 8 -14.87149221322132  2.06503180828083  0.71750128112811
 6  11.15727807380738 -1.49856240834083  0.88375453645365
 6 -12.36319148314831 -0.96705832373237  0.68692233623362
 6  12.65610917691769 -1.72754205030503  0.87904279627963
 6 -13.69746646564657 -0.20542856275628  0.66122893489349
 6  13.29244728372837 -1.93820614271427 -0.45109865486549
 6 -13.64523381638164  1.30230889198920  0.76858810981098
 6  10.97594692169217 -0.18354598159816 -0.05175846884688
 6 -11.29457582158216 -0.24934594149415 -0.17297497349735
 6  13.22798328932893 -0.54071255635564 -1.09766252025203
 6 -12.75977841584158  1.80241324842484 -0.52278163116312
 6  11.88109397839784  0.18031841474147 -0.98476111911191
 6 -11.47881847684768  1.00337696679668 -0.72825482148215
 6  10.76201724272427 -1.09256469746975  2.24706809080908
 6  10.38815943594359 -2.79765753375338  0.50126351635164
 6 -11.84746655265526 -1.09981967386739  2.12402853385339
 6 -12.58235473047305 -2.46025724762476  0.11133239523952
 6  9.67308254925493  0.36634558755876  0.12504646464646
 6 -10.01685725772577 -0.98422116401640 -0.50574185918592
 6  11.61644752475248  1.27131230513051 -1.89985197519752
 6 -10.59343763176317  1.69749922702270 -1.68991588158816
 6  9.32719662466247  1.69617586058606  0.12258889888989
 6 -8.72443384038404 -0.55327727662766 -0.41569667166717
 6  8.02521162616262  2.19968595159516  0.30947172217222
 6 -7.57118515251525 -1.27998632653265 -0.62509867886789
 6  7.96624840884088  3.58091694669467  0.80064424842484
 6 -7.45368366536654 -2.81576115301530 -0.89212789778978
 6  6.92863283428343  1.47367630863086  0.15423293829383
 6 -6.37474017101710 -0.64696295819582 -0.50858978397840
 6  5.60323103710371  2.07732197019702  0.32769973897390
 6 -5.11834038003800 -1.19280635353535 -0.57497437543754
 6  4.49560834683468  1.39984617861786  0.18501641664166
 6 -3.98021931893189 -0.33412563656366 -0.38644145914591
 6  3.08509600060006  1.73335772677268  0.40822493849385
 6 -2.57592304830483 -0.89646972597260 -0.33673202820282
 6  2.89787135413541  3.26937462946295  0.54286194419442
 6 -2.27384615261526 -2.25102859485949 -0.69667089308931
 6  2.15714480348035  0.83212527652765  0.12965228522852
 6 -1.55305726572657  0.14008189718972 -0.08234218521852
 6  0.74978180718072  0.90459327332733  0.19412074007401
 6 -0.17939780978098 -0.08828642864286 -0.12586355635564
 1  13.23334191419142 -0.93947735783578  1.60261595059506
 1  12.81092459145915 -2.80876409050905  1.34850253425342
 1 -14.35024799779978 -0.57394483638364  1.50583150415041
 1 -14.23857735273527 -0.48385625752575 -0.21259311531153
 1  12.77548855585558 -2.63707301440144 -1.19077963596360
 1 -13.00487091909191  1.43969795189519  1.70315804980498
 1  14.10280486748675  0.16094867276728 -0.66888206920692
 1  13.55336089308931 -0.51512686978698 -2.27819055005501
 1 -13.55049025802580  1.56338139823982 -1.48227097009701
 1 -12.48525449844985  2.97255227532753 -0.33271223522352
 1  10.98652134113411 -1.85738416741674  2.83029772577258
 1  9.62100042704270 -0.77383718271827  2.54172092709271
 1  11.21838558055806 -0.31873074017402  2.62813619961996
 1  10.45732199519952 -2.99959473347335 -0.69019570257026
 1  10.77814681758176 -3.40194883788379  1.23159259925993
 1  9.51451876887689 -2.33793510151015  0.71198791979198
 1 -11.53934562056205 -0.12403489738974  2.58559885688569
 1 -10.90346318531853 -1.52868541244124  1.91238502250225
 1 -12.46240713371337 -1.59765718561856  2.74021460146015
 1 -13.42870331933193 -2.94115281118112  0.58181631263126
 1 -11.81192642764277 -3.12905949484949  0.27605050305030
 1 -12.75394325332533 -2.44719391129113 -1.03166590859086
 1  8.85495739873988 -0.28081249224922  0.45191231223122
 1 -10.27422218721872 -1.96411347524753 -0.70007380938094
 1  10.46172746474647  1.26472114211421 -2.13634569356936
 1  11.67010283928393  2.23369431233123 -1.31859746774677
 1  12.14807647764776  0.99623047794779 -2.80078276727673
 1 -11.27371177217722  2.10337590169017 -2.38912963396340
 1 -9.96690266826683  0.87428144724472 -2.09147511451145
 1 -9.79013319731973  2.51602425652565 -1.16604976097610
 1  14.93011213921392 -3.14261958905891 -0.53414513451345
 1 -15.24310900390039  1.97593489358936  1.56418751475148
 1  9.97877379637964  2.43475038303830 -0.15481865686569
 1 -8.48640337633763  0.55303990509051 -0.27277790379038
 1  8.88719640664066  4.20762414441444  0.72794863586359
 1  7.22343873087309  4.11469633063306  0.06934058805881
 1  7.58625788578858  3.69030009800980  1.81021785978598
 1 -7.85918871287129 -3.56440109800980 -0.19735502450245
 1 -8.04112848384838 -3.03394339723972 -1.60859274827483
 1 -6.40794656665667 -3.19972451235124 -1.07629306330633
 1  7.04776063106311  0.45920913591359  0.07013913891389
 1 -6.30777775377538  0.41671916701670 -0.28656378137814
 1  5.66345405040504  3.25926159815982  0.61286779577958
 1 -4.92651312231223 -2.29370704870487 -0.84819096909691
 1  4.57618081108111  0.28733347934794  0.08835676767677
 1 -4.07712911691169  0.73797316931693 -0.19998871787179
 1  3.36129175717572  3.42421431143114  1.47291053205321
 1  1.75186344734473  3.65757673967397  0.32015661766177
 1  3.48831421142114  3.70467709270927 -0.28398145614561
 1 -2.66046716171617 -2.83026531853185  0.16350868586859
 1 -3.10090880388039 -2.49264632663266 -1.62988173017302
 1 -1.25590597559756 -2.51840939093909 -1.06328487148715
 1  2.43273463646365 -0.17112039303930  0.24427821582158
 1 -1.90058468146815  1.13376162016202  0.00622671567157
 1  0.25942624162416  1.87754318131813  0.31799380938094
 1  0.20932271727173 -0.93445360936094 -0.27481915591559

