%nproc=4
%Mem=2GB
# td=(NStates=1) CAM-B3LYP/6-31G(d,p) 

TD

0 1
 8  14.64744026902690 -2.28399133223322 -0.32565948894889
 8 -14.78185324932493  2.00522582768277  0.74126365736574
 6  11.21467381338134 -1.33522607470747  1.02487864886489
 6 -12.41860702470247 -1.01118273617362  0.61716536053605
 6  12.75039860586059 -1.76200549664966  0.97795268726873
 6 -13.73066978597860 -0.15234325422542  0.54685749774978
 6  13.32404044304431 -1.82723504560456 -0.49594313931393
 6 -13.53854314731473  1.26564522562256  0.82640389138914
 6  10.94927425442544 -0.18317594459446 -0.01613490649065
 6 -11.27632399639964 -0.25956696359636 -0.17006468246825
 6  13.27387787878788 -0.48580706580658 -1.08748150215022
 6 -12.58620105810581  1.97246025312531 -0.14800415341534
 6  11.93712958195820  0.18376875977598 -0.90219286228623
 6 -11.40273086808681  1.06391302040204 -0.59145114111411
 6  10.94609565056506 -0.91916735773577  2.45304868886889
 6  10.42984360436044 -2.70722849084909  0.65222861286129
 6 -12.04347615361536 -1.37470716261626  2.06460259125913
 6 -12.72902939793979 -2.28026924882488 -0.25286402440244
 6  9.68987422842284  0.44152310531053  0.14628858885889
 6 -10.08289386138614 -0.95539828172817 -0.43278456345635
 6  11.71035691569157  1.23099827372737 -2.04210620062006
 6 -10.35388367636764  1.80803028012801 -1.37117400740074
 6  9.39296320132013  1.73302954595460  0.16388302830283
 6 -8.88264966196620 -0.55658760766077 -0.17520262226223
 6  8.04106321132113  2.24317030003000  0.20356113111311
 6 -7.62378041204120 -1.29240756865687 -0.46307247624762
 6  7.92133391739174  3.68428728372837  0.65230941494149
 6 -7.62128042504250 -2.67197677457746 -1.08515720072007
 6  6.90079005000500  1.52642158315832 -0.04518700370037
 6 -6.37881057805781 -0.82845110701070 -0.23385231023102
 6  5.53005371937194  2.04927916591659  0.05960292929293
 6 -5.05545409140914 -1.16178325122512 -0.55108198619862
 6  4.44210299629963  1.23361955595560 -0.09997208220822
 6 -3.94573587058706 -0.44984720872087 -0.25465828082808
 6  3.08940643164316  1.62240663166317  0.18787290329033
 6 -2.53484894089409 -0.87704778377838 -0.37582593759376
 6  2.77252881988199  3.00192788478848  0.58787644564456
 6 -2.30410917891789 -2.25178867086709 -0.91267249324933
 6  2.04200328932893  0.58267033103310 -0.07356803680368
 6 -1.55402736273627  0.10206809580958 -0.19416336733673
 6  0.74309113811381  0.92439525352535  0.10825215321532
 6 -0.26098596859686 -0.14093169316932 -0.28468943894389
 1  13.34430301030103 -1.07426083618362  1.49635532453245
 1  13.02566606560656 -2.75370858495850  1.53305098909891
 1 -14.51403437643764 -0.63451089298930  1.32162308330833
 1 -14.10860435543554 -0.22995086698670 -0.35791764776478
 1  12.70062106910691 -2.46459576667667 -0.99600015801580
 1 -13.18090852285228  1.51965594769477  1.91738947294729
 1  14.10308489548955  0.23959653755376 -0.63305848684868
 1  13.54975053205320 -0.37804316141614 -2.11729446044604
 1 -13.10833604260426  2.31023608370837 -1.17392013501350
 1 -12.18780475347535  2.97804282438244  0.13477451345134
 1  11.23450613961396 -1.78881731073107  3.06747144314431
 1  9.85047337433743 -0.89484928392839  2.59356611161116
 1  11.38622236423642  0.08598973187319  2.67793117911791
 1  10.69866612961296 -3.07266204020402 -0.31178786178618
 1  10.55858486138614 -3.46263490649065  1.51388082808281
 1  9.33837115411541 -2.24363567156716  0.49463618461846
 1 -12.08262994899490 -0.55598809270927  2.65561585858586
 1 -11.09796263526353 -1.77650019391939  1.95934971897190
 1 -12.84138503150315 -1.97795521542154  2.60823140314031
 1 -13.85765621462146 -2.79486818271827 -0.23634550355035
 1 -11.95113034803480 -3.04598118701870  0.06685958395840
 1 -12.51929978897890 -1.97280647254725 -1.33305604760476
 1  9.07986988998900 -0.22656706770677  0.49472659365937
 1 -10.14018878387839 -1.95881294519452 -0.55703950595059
 1  10.54800609260926  1.30141481148115 -2.13891595059506
 1  12.21302713171317  2.12023296619662 -1.85097070507051
 1  12.21903357335733  0.99650050495050 -3.07594028302830
 1 -11.01651605260526  2.28120368446845 -2.45125584658466
 1 -9.56056203420342  1.14125814491449 -1.83696966396640
 1 -9.64072825682568  2.51784443854385 -0.73608676467647
 1  14.27520664866487 -3.09662498959896  0.28004628462846
 1 -15.36114080708071  1.87450475057506  1.50142123812381
 1  10.38375429442944  2.27007391539154  0.04017084208421
 1 -8.70442517851785  0.40575517661766  0.19777915191519
 1  8.88909659665967  4.20924430643064  0.80743658465847
 1  7.37666405340534  4.25772063306331 -0.08460480648065
 1  7.53805306530653  3.56452752075208  1.56090292829283
 1 -8.38862165616562 -3.49473413131313 -0.55639092809281
 1 -7.95868023902390 -2.61473147604761 -2.25445733473347
 1 -6.80432620462046 -3.28037257715772 -1.23972940694069
 1  6.84336019101910  0.59144235923592 -0.29272714771477
 1 -6.38323529952995  0.27758525362536 -0.11075620062006
 1  5.51264896989699  3.06549222122212  0.35184169316932
 1 -4.74884535553555 -2.25615329332933 -0.81257740774077
 1  4.84062725572557  0.31413615961596 -0.02406447444745
 1 -4.24978638263826  0.60160953295330  0.14600588158816
 1  3.25030065806581  3.39318120812081  1.52782602360236
 1  1.78821708270827  3.24126510851085  0.71223582558256
 1  3.05903128312831  3.73254987998800 -0.16470952895290
 1 -2.81242235723572 -2.93721601360136 -0.21100876587659
 1 -2.88032674567457 -2.38650571257126 -1.86720546254625
 1 -1.36919730473047 -2.53990154015402 -1.02028057105711
 1  2.39220058305831 -0.42404568556856 -0.66733294529453
 1 -1.99314393739374  1.18128637263726 -0.15906981398140
 1  0.45236553555356  2.09426485348535  0.32291430143014
 1  0.14974675967597 -1.04083424742474 -0.57818949294930

