%nproc=4
%Mem=2GB
# td=(NStates=1) CAM-B3LYP/6-31G(d,p) 

TD

0 1
 8  14.71017654265427 -2.32198513161316 -0.51928885188519
 8 -14.75981104510451  1.99684498959896  1.03336286728673
 6  11.13177552355235 -1.44401695379538  1.07559372037204
 6 -12.47888305230523 -1.08978059595960  0.58550219421942
 6  12.67429099509951 -1.77175647174717  1.05551044304430
 6 -13.76498321732173 -0.18065608550855  0.64358717071707
 6  13.31852989198920 -1.86092841494149 -0.35304884988499
 6 -13.50899019201920  1.29823848494849  0.96175742674267
 6  10.95915524252425 -0.21096872387239  0.10051675867587
 6 -11.30841720572057 -0.31976298319832 -0.08793646964696
 6  13.10547103810381 -0.60405889098910 -1.11147390139014
 6 -12.69112155015502  1.87394040114011 -0.15750510351035
 6  11.84547041604161  0.06686706960696 -0.88525116811681
 6 -11.38744933993399  0.99994662376238 -0.50369236523652
 6  10.84122516351635 -1.03143858485849  2.51751513551355
 6  10.35841646164616 -2.73766153415342  0.78596198619862
 6 -12.03319512551255 -1.34325401730173  2.00555668666867
 6 -12.83065956095609 -2.36764798669867 -0.13795253325333
 6  9.67840308130813  0.43367232023202  0.29334329432943
 6 -9.99389496149615 -1.06061880378038 -0.32005329032903
 6  11.63311919191919  1.33042821672167 -1.87242923292329
 6 -10.49870815881588  1.86393587068707 -1.43204009400940
 6  9.41263516851685  1.73734997799780  0.20755739573957
 6 -8.76385778277828 -0.60170211911191 -0.35117021902190
 6  8.04271337633763  2.32000798379838  0.28342911791179
 6 -7.48412644664466 -1.27480580848085 -0.50483665266527
 6  8.02247403140314  3.77710656565657  0.53288747274727
 6 -7.56665496249625 -2.79236881378138 -0.81283996899690
 6  6.89062903390339  1.57471641264126  0.16279379437944
 6 -6.32463516051605 -0.53802206410641 -0.52796172117212
 6  5.59864057805781  2.06769100710071  0.21561853085309
 6 -5.00213875987599 -1.10725779867987 -0.72061893989399
 6  4.52188097409741  1.23054924892489 -0.00024210921092
 6 -3.89896119311931 -0.36588881288129 -0.37460027502750
 6  3.19317680868087  1.66831122212221 -0.02921880588059
 6 -2.61797725372537 -0.81483156215622 -0.64930328532853
 6  2.89937150415042  3.08359605160516  0.39781743974397
 6 -2.36768553655366 -2.29025251725173 -1.09686091209121
 6  2.10188927792779  0.77473953795380 -0.22677335733573
 6 -1.55979793979398  0.11754964396440 -0.37059101010101
 6  0.76097292629263  0.88682149614962 -0.16814548654865
 6 -0.17367723772377 -0.11046864686469 -0.48052902290229
 1  13.14303288328833 -0.89175258535854  1.69759544854486
 1  12.71005450445045 -2.73771698579858  1.80339802380238
 1 -14.42960593359336 -0.79714715661566  1.25742666366637
 1 -14.15664915991599 -0.21657952985299 -0.28999085508551
 1  12.60614162116212 -2.72061136823682 -0.77138769676968
 1 -13.02140257225722  1.46255023712371  1.95600333433343
 1  13.87295188218822  0.04315689358936 -0.85824100510051
 1  13.31208676567657 -0.74622998009801 -2.20012274327433
 1 -13.35441065006501  2.09333439353935 -1.09634237723772
 1 -12.38492446544655  2.70120514061406  0.42006304230423
 1  11.03260594959496 -1.74600302930293  3.32946764276428
 1  9.75383371037104 -1.14137393639364  2.65896265126513
 1  11.30105384738474 -0.17958682578258  2.77719110511051
 1  10.66167243024302 -3.08964373837384 -0.19931661466147
 1  10.54566356925693 -3.46279492249225  1.47905734573457
 1  9.21517883488349 -2.61746305430543  0.86130285128513
 1 -12.05646733273327 -0.36529902380238  2.75405570257026
 1 -10.91607444644464 -1.86336888078808  1.77826161016102
 1 -12.59551044404440 -1.92723014291429  2.63072365236524
 1 -13.61801225022502 -2.79162785868587  0.43886201720172
 1 -12.10906614161416 -3.05327191609161 -0.01136823882388
 1 -13.05773363236323 -2.33805299719972 -1.31173391539154
 1  8.89142104510451 -0.26995140614061  0.57768488948895
 1 -10.16901166616662 -2.24067113101310 -0.49494329632963
 1  10.57591888388839  1.44228889888989 -2.00939299829983
 1  11.79898572757276  2.30343128602860 -1.21831743974397
 1  12.43599526952695  1.49704055895590 -2.61599428842884
 1 -10.89342374337434  2.63798936303630 -2.27365808680868
 1 -9.72961893989399  1.17317133623362 -1.77336330333033
 1 -9.95884006800680  2.54577723182318 -0.98772192819282
 1  14.75571469946995 -3.13781910901090 -0.21391311131113
 1 -15.25392008500850  1.85886318641864  1.87369846584658
 1  10.47291321032103  2.32683959195920  0.30127695269527
 1 -8.64118885488549  0.61298589968997 -0.05062568856886
 1  8.87703539053905  4.30465384738474  0.88012385338534
 1  7.59042542954295  4.47184204520452 -0.39883622962296
 1  7.27072633263326  3.80267133513351  1.54786162416242
 1 -8.50563335733573 -3.29622428032803 -0.36170145914591
 1 -8.16425079607961 -2.87899790269027 -1.85118700770077
 1 -6.56497226922692 -3.07507204710471 -0.88326376037604
 1  7.00670652565257  0.59681289628963  0.01868399339934
 1 -6.40472744874487  0.50114760986099 -0.16615174017402
 1  5.34970267526753  3.19998567056706  0.09142565156516
 1 -4.89016948794879 -2.16109378737874 -0.95485163516352
 1  4.73045623862386  0.16633137913791 -0.06286835483548
 1 -3.89743114711471  0.66721609360936 -0.16771549054905
 1  2.77979360736074  3.22053394339434  1.49410265126513
 1  1.98336659765977  3.55366634863486  0.19937453945395
 1  3.82683806380638  3.85951257625763 -0.01156421442144
 1 -2.52726384138414 -2.87986027802780 -0.17376504150415
 1 -3.08010672367237 -2.46218328032803 -1.83959270127013
 1 -1.20808119311931 -2.13028057805781 -1.56951549454946
 1  2.56602796579658 -0.32180546154615 -0.36694290629063
 1 -1.84912953595360  1.22986123012301 -0.30336424342434
 1  0.29581988098810  2.01263669066907  0.12754476447645
 1  0.06926871187119 -1.07709787378738 -0.53833550755075

