%nproc=4
%Mem=2GB
# td=(NStates=1) CAM-B3LYP/6-31G(d,p) 

TD

0 1
 8  14.75382090709071 -2.24913784688469 -0.13448037103710
 8 -14.86852191619162  1.77965327042704  1.05953548454845
 6  11.27991033703370 -1.48214076617662  1.06265242624262
 6 -12.33854901890189 -1.07374899279928  0.79781342534253
 6  12.74070763676368 -1.94224352045205  1.11698659065907
 6 -13.65949266826683 -0.27777579747975  0.83661647364736
 6  13.36618465746575 -1.84316663876388 -0.29756330133013
 6 -13.48731802480248  1.16986564766477  1.05286653765377
 6  10.98977830483048 -0.32187981498150  0.04451115811581
 6 -11.29276564056406 -0.26456746364636 -0.03236091209121
 6  13.34847533853385 -0.45569405450545 -0.82796555055506
 6 -12.81212365036504  1.80391339843984 -0.13713306630663
 6  11.91948781778178  0.06367675057506 -0.86074871787179
 6 -11.61342193719372  1.02340896999700 -0.56818881488149
 6  10.83062410341034 -1.04111955295530  2.46267965196520
 6  10.43399401940194 -2.64825259325933  0.62348573857386
 6 -11.64614642064206 -1.26724641654165  2.15822195319532
 6 -12.71087758275828 -2.46420764266427  0.26404766676668
 6  9.74702994399440  0.27861681468147  0.23531749174917
 6 -10.09354492649265 -1.02704544644464 -0.42443372837284
 6  11.74499037903790  1.11321649554956 -1.97737972797280
 6 -10.77143543154315  1.79848932603260 -1.50765765576558
 6  9.38139204420442  1.58236447944794  0.06164280428043
 6 -8.81123252025202 -0.41891384028403 -0.44784988698870
 6  8.07554665966597  2.22554853785378  0.16689746474647
 6 -7.65190322432243 -1.13288161606161 -0.84656082508251
 6  8.00861264526453  3.68000685568557  0.57451163516352
 6 -7.67714601160116 -2.60081965886589 -1.20559924492449
 6  6.86013598459846  1.57149609060906 -0.01421390639064
 6 -6.43171586858686 -0.53603186508651 -0.71359028402840
 6  5.60230094409441  2.06083032103210  0.25722269126913
 6 -5.02610115611561 -1.04878195109511 -0.89397627562756
 6  4.40716950295029  1.31951814581458  0.11134904990499
 6 -3.99775107210721 -0.18536076007601 -0.63325614061406
 6  3.06670416141614  1.78860325132513  0.12039615561556
 6 -2.65445090109011 -0.79979005800580 -0.67594594959496
 6  2.83854542154215  3.18834652665267  0.48017567556756
 6 -2.40580934893489 -2.17195068706871 -1.02552377837784
 6  2.13694278327833  0.84137620162016 -0.13277395739574
 6 -1.64790675067507  0.18635652465247 -0.38810276127613
 6  0.72556938593859  0.92050486448645 -0.08480715271527
 6 -0.24633450345035 -0.03280088008801 -0.43680465046505
 1  13.18733731373137 -1.03433684378438  1.64706039503950
 1  12.59646314531453 -2.73452666676668  1.54917260126013
 1 -14.41229420242024 -0.58956639853985  1.77227814881488
 1 -13.99992348734873 -0.44801267316732 -0.23480533653365
 1  12.83264427142714 -2.47521682878288 -0.99705026302630
 1 -12.98072850485048  1.42347632973297  2.03104083808381
 1  14.12660724772477  0.02209478737874 -0.06305148614861
 1  13.66150170717072 -0.56582193929393 -1.83518624962496
 1 -13.44081929092909  1.89055411551155 -1.08497124012401
 1 -12.38278425142514  2.88590361046105  0.10904194019402
 1  11.17529021802180 -1.80165859485949  3.23229792579258
 1  9.71695002200220 -0.95637543654365  2.47716447144715
 1  11.33621736373637 -0.21615048214822  2.85950933693369
 1  10.97866412941294 -3.03733850785079 -0.30349703270327
 1  10.35965496839684 -3.52323096609661  1.34667410741074
 1  9.32481979897990 -2.65880718871887  0.30357707870787
 1 -11.62341402740274 -0.27141963586359  2.61055135213521
 1 -10.64403724272427 -1.65802834673467  2.23811759575958
 1 -12.26750764376438 -1.90556797669767  2.71788236823682
 1 -13.44169461846185 -2.90628932483248  1.09312744374437
 1 -11.87197243224323 -3.15577216611661  0.25288818681868
 1 -12.79287714671467 -2.58648784068407 -0.75905864786479
 1  9.10316221922192 -0.37676208720872  0.73213033403340
 1 -10.33601836683668 -2.05074213811381 -0.91050485248525
 1  10.61394268626863  1.40093476347635 -2.27691975097510
 1  11.93147897689769  2.13252419531953 -1.56912252025202
 1  12.29562123212321  1.11729258415842 -3.08014070307031
 1 -11.40257465846584  2.36576214031403 -2.21260198119812
 1 -9.99009498749875  1.33379739883988 -2.23298926592659
 1 -10.09374355835583  2.59643229732973 -1.11609476547655
 1  14.74687381538154 -3.25498082518252 -0.02120384038404
 1 -15.24826951995199  1.75457275737574  1.95135623162316
 1  10.17475339433943  2.35532244024402 -0.20005318031803
 1 -8.34711944794479  0.63178777987799 -0.01779240524052
 1  9.16914460146014  4.10441382338234  0.48802464346435
 1  7.41413780078008  4.24854971597160 -0.24523086908691
 1  7.79249850985098  3.80369143714371  1.58804564256426
 1 -8.04646744074407 -3.37256191409141 -0.50049533853385
 1 -8.44766913791379 -2.70131013391339 -1.94162605160516
 1 -6.62128790079008 -2.91282582248225 -1.58521395539554
 1  7.01942779777978  0.34030724572457 -0.23833170817082
 1 -6.46477345334533  0.52827032213221 -0.39769489448945
 1  5.43913161816182  3.01198687068707  0.50018652765277
 1 -4.71896236723672 -2.00803848184818 -1.21561771177118
 1  4.88639183218322  0.24529927592759 -0.22256432443244
 1 -4.22737414141414  0.72017138913891 -0.25170388938894
 1  3.71542717071707  3.65734762476248  1.28174141514151
 1  1.80038829982998  3.30918190019002  1.08162276427643
 1  2.84442982298230  3.84296092109211 -0.56485954395439
 1 -2.65024613961396 -3.08585087708771 -0.27669533453345
 1 -3.07467618061806 -2.38203526552655 -1.87790653265327
 1 -1.28275866086609 -2.45091264126413 -1.17978652165217
 1  2.56997836083608 -0.14511779277928 -0.62608882088209
 1 -1.91676629962996  1.15483372737274 -0.13894780178018
 1  0.32575287428743  1.84418984598460  0.18208021802180
 1  0.28651043604360 -1.10745090909091 -0.52782445644564

