%nproc=4
%Mem=2GB
# td=(NStates=1) CAM-B3LYP/6-31G(d,p) 

TD

0 1
 8  14.68597412241224 -2.34475740884088 -0.19232615561556
 8 -14.89295435943594  1.75268057315732  1.06696622762276
 6  11.21744409040904 -1.42569512161216  1.10885704670467
 6 -12.25908107210721 -1.07592921082108  0.77629127312731
 6  12.65785935193519 -1.88956825292529  1.20775566756676
 6 -13.71036775577558 -0.34984300420042  0.85177798979898
 6  13.32251029002900 -1.90529285138514 -0.28195174017402
 6 -13.53664295729573  1.13794245534553  1.05399665066507
 6  11.02980230723072 -0.27625525252525  0.13754046104610
 6 -11.35900226422642 -0.21016202310231 -0.07660533653365
 6  13.37984847584758 -0.56527501260126 -0.95901865586559
 6 -12.81540397839784  1.72739574667467 -0.05164451745175
 6  11.98581445044505  0.01338172107211 -0.89404204720472
 6 -11.65777637263726  1.06390301940194 -0.42382437843784
 6  10.84535557655765 -1.10228566956696  2.45917930193019
 6  10.36433705370537 -2.58227599559956  0.66452984298430
 6 -11.64182598859886 -1.37426711861186  2.13640977197720
 6 -12.51458795379538 -2.45905712761276  0.18861012301230
 6  9.67376261726173  0.35242419541954  0.24005796579658
 6 -10.11267683968397 -0.90836357825783 -0.45680696569657
 6  11.80243612361236  1.17170234413441 -1.86846883688369
 6 -10.73500178817882  1.74863434053405 -1.57724461446145
 6  9.39236314131413  1.70428667166717  0.04396103610361
 6 -8.85743714071407 -0.41033298219822 -0.52337743974397
 6  8.05980508550855  2.39082506550655  0.21728250325033
 6 -7.61017905190519 -1.15048337623762 -0.82610877987799
 6  7.97538932293229  3.81970082508251  0.51334551855186
 6 -7.64838313531353 -2.56694627152715 -1.27539622462246
 6  7.03292326332633  1.53987292829283 -0.02164464946495
 6 -6.43093579057906 -0.41680994289429 -0.54191311631163
 6  5.65247596159616  1.95887012501250  0.11173814281428
 6 -5.10822936893689 -0.96605367826783 -0.65524240224022
 6  4.46782556855686  1.20147634163416 -0.09453153815382
 6 -3.97331862886289 -0.25469769376938 -0.44760757575758
 6  3.16671416241624  1.66782117311731  0.10285440144014
 6 -2.66298175417542 -0.71278135713571 -0.61853020802080
 6  2.85359692669267  3.12036972897290  0.49426708470847
 6 -2.42012078007801 -2.12464595659566 -1.14822604860486
 6  2.12116120512051  0.70929299329933 -0.17120780078008
 6 -1.58452041204120  0.20746863586359 -0.35287923892389
 6  0.75649247824782  0.92136495049505 -0.07495616761676
 6 -0.26547641764176 -0.01527912791279 -0.53161413141314
 1  13.27543612361236 -1.24191760186019  1.97370305930593
 1  12.57785128412841 -2.80178339243924  1.55163284728473
 1 -14.34464743774378 -0.91680912281228  1.73101402240224
 1 -14.07048054305431 -0.60445831773177 -0.24208606460646
 1  12.77587859485949 -2.63258256535654 -0.94093465146515
 1 -12.96059649164916  1.47900188228823  1.98258599259926
 1  14.21873646064607  0.09108168606861 -0.49454463546355
 1  13.71226678367837 -0.55132048914891 -1.90375310631063
 1 -13.42149735873587  1.73800886098610 -1.03025576857686
 1 -12.59773574657466  2.80345536563656 -0.14345330933093
 1  11.11792448144815 -2.10880930993099  3.10197489348935
 1  9.78275660266027 -0.88017781678168  2.74782153715372
 1  11.33523726572657 -0.23171203830383  3.05490887688769
 1  10.53369963296330 -3.09420419441944 -0.37588427142714
 1  10.45426442934293 -3.40901954495450  1.36874631463146
 1  9.28796611361136 -2.37386869486949  0.77131385238524
 1 -11.54530621662166 -0.36339883378338  2.71871216821682
 1 -10.51208404740474 -1.65010755465547  1.99726351035104
 1 -12.24121501450145 -1.97084450435043  2.75143572357236
 1 -13.51566201520152 -2.70442913881388  0.61996012701270
 1 -11.79755499049905 -3.19554614351435  0.49714261226123
 1 -12.62383024202420 -2.27188638053805 -0.82748549054906
 1  8.84147605060506 -0.22176658765877  0.43061018201820
 1 -10.11005577057706 -2.01079814371437 -0.78861266326633
 1  10.66438773077308  0.85033970397040 -2.21118317731773
 1  11.50264609360936  2.27556849974997 -1.46614222222222
 1  12.49649131913191  1.16452730763076 -2.71859454845485
 1 -11.24528892989299  2.33974953905391 -2.21142186318632
 1 -10.35050102810281  0.96243026212621 -2.29497546454646
 1 -9.75160934493449  2.21473412751275 -1.36253940994099
 1  14.76316544454446 -3.17236256335634  0.32797107710771
 1 -15.34244893789379  1.77573487358736  1.98379947594759
 1  10.19444536353635  2.50452736073607  0.04158098309831
 1 -8.60542527852785  0.71801640274027 -0.13376400240024
 1  8.86531421842184  4.31498488048805  0.70474631563156
 1  7.47596398339834  4.67403226422642 -0.23799014501450
 1  7.26146540654065  3.99629069706971  1.26897373537354
 1 -8.45218801280128 -3.15554021192119 -0.53264855385539
 1 -8.03775814681468 -2.50198020092009 -2.17239912891289
 1 -6.71678745074508 -3.27221176107611 -1.35866130013001
 1  6.97035289028903  0.39507272227223 -0.38514638963896
 1 -6.64403137913791  0.55955345044504 -0.35337046204621
 1  5.61394909990999  3.14056972897290  0.17041355035504
 1 -4.94416488748875 -1.90591826982698 -1.12397854785479
 1  4.61061425442544  0.26869161516152 -0.44139620762076
 1 -4.16947835183518  0.87560693269327 -0.36206492549255
 1  3.82723835183518  3.62158404840484  1.16460970197020
 1  1.71214947594759  3.14652563456346  1.19663426542654
 1  2.66012139213921  3.91297792279228 -0.55279833783378
 1 -3.56821793679368 -2.61134342634263 -0.73301096609661
 1 -2.38036674967497 -1.99663672567257 -2.40739948194819
 1 -1.29033941894189 -2.41417896789679 -0.76720526352635
 1  2.42222358535854 -0.39268254925493 -0.61741795379538
 1 -1.83951857485749  1.25895413941394 -0.00733464046405
 1  0.32953325232523  1.74697012401240  0.03047505750575
 1  0.11831361636164 -0.97579774377438 -0.86315798979898

