%nproc=4
%Mem=2GB
# td=(NStates=1) CAM-B3LYP/6-31G(d,p) 

TD

0 1
 8  14.58630415541554 -2.39249218231823 -0.19298622162216
 8 -14.77100216421642  1.92336764186419  1.00646017701770
 6  11.10972331833183 -1.53762631473147  1.12391855285529
 6 -12.35598076207621 -1.08163978187819  0.69230287428743
 6  12.57887145314531 -1.89152844894489  1.09860475247525
 6 -13.69830654965497 -0.14571259115912  0.75765857785779
 6  13.23561160016002 -1.98854117621762 -0.25924946994699
 6 -13.50453974697470  1.29068772987299  1.04980623162316
 6  10.97274660166017 -0.31467909490949  0.13791049804980
 6 -11.22665902990299 -0.24902590949095 -0.03257093309331
 6  13.21587207820782 -0.52658114321432 -0.80729348334833
 6 -12.66709914791479  1.76211921902190 -0.03613296629663
 6  11.95768163716372  0.18327871077108 -0.75685832883288
 6 -11.35092568756876  1.07810443954395 -0.36194819081908
 6  10.69705074607461 -1.33822926392639  2.53133651765177
 6  10.36688730873087 -2.72951071907191  0.57424081408141
 6 -11.79041084708471 -1.41896158805881  2.08650478147815
 6 -12.56972346734673 -2.45691691359136 -0.06765550355035
 6  9.65586082708271  0.34918387138714  0.23067702770277
 6 -10.03046861886189 -1.04356709860986 -0.35825711071107
 6  11.69116499649965  1.31180635453545 -1.72913490349035
 6 -10.37201548954895  1.81529100620062 -1.37260415041504
 6  9.30052395739574  1.71287753075308  0.07660430043004
 6 -8.82230362736274 -0.57143909280928 -0.32434753675368
 6  8.00820992599260  2.39706568956896  0.11006178117812
 6 -7.54253228722872 -1.36649497739774 -0.63991016001600
 6  7.99951173517352  3.83409226422642  0.36233041704170
 6 -7.64286258325833 -2.80399997689769 -1.05571425642564
 6  6.86519649064907  1.66588552955296 -0.08436092109211
 6 -6.41148384538454 -0.60320858275828 -0.44666359135914
 6  5.58749946394639  2.16129036703670  0.01588855785579
 6 -5.01821036703670 -1.12215928882888 -0.56303318131813
 6  4.40492927892789  1.42371856585659 -0.09997208220822
 6 -3.96700799779978 -0.34253647764777 -0.56152896789679
 6  3.11583907490749  1.92425681668167  0.06261037703770
 6 -2.56245170117012 -0.74238431743174 -0.65915427042704
 6  2.83069463646365  3.28863655565557  0.54528218621862
 6 -2.25670443844384 -2.13126661866187 -1.24611583758376
 6  2.05704479347935  0.91968403240324 -0.29137981798180
 6 -1.61594355435544  0.08951684068407 -0.35722967396740
 6  0.69272610161016  1.08066088008801 -0.33373204520452
 6 -0.12735260526053 -0.05847344734473 -0.48882985298530
 1  13.06606518651865 -1.17458086818682  1.74265995499550
 1  12.56260975997600 -2.66607982208221  1.88986667066707
 1 -14.24028700170017 -0.61186862876288  1.30301122212221
 1 -14.19495299029903 -0.19895776767677 -0.34759661566157
 1  12.63441444844485 -2.61773108020802 -0.97645820382038
 1 -13.04600503250325  1.55069905200520  1.92222995699570
 1  13.85750033703370  0.08630120802080 -0.20483566456646
 1  13.40317587458746 -0.52296765386539 -2.00228295929593
 1 -13.28952416141614  1.79294435453545 -0.86647939093909
 1 -12.32032800580058  2.83102812291229  0.07599863586359
 1  10.97220990999100 -2.13151158015802  3.06627132313231
 1  9.57884621162116 -1.16728652765277  2.60105686068607
 1  11.26487022902290 -0.43907277437744  3.11205459145915
 1  10.45265152815282 -3.11539631363136 -0.52684936793679
 1  10.56795579847985 -3.51406004900490  1.27393683368337
 1  9.23876119311931 -2.60174148214822  0.47457417841784
 1 -11.58394008000800 -0.48637113101310  2.64028432543254
 1 -10.87738057705771 -2.03769631353135  2.16295007900790
 1 -12.50029092209221 -1.94518193809381  2.69912049204920
 1 -13.48040848984899 -2.81247994389439  0.22547067806781
 1 -11.59475471047105 -3.02871946084608 -0.13863096509651
 1 -12.73744160316032 -2.45315450735073 -1.21253399539954
 1  8.66485838883889 -0.36639105010501  0.57102422342234
 1 -10.15675044004401 -2.09317638153815 -0.65271907390739
 1  10.47624891689169  1.36785145514551 -1.89390144914492
 1  12.20188601760176  2.16731767466747 -1.13977958595860
 1  12.21919358935894  0.95917677257726 -2.59691238023802
 1 -11.10882528352835  2.41686725082508 -2.02099282028203
 1 -9.73629960796080  1.17245126422642 -1.92457842484248
 1 -9.85845002900290  2.54920757485749 -0.84404756075608
 1  14.60756988498850 -3.43384871197120 -0.03787550755075
 1 -15.48306299929993  1.55972327242724  1.67726882288229
 1  10.11404732373237  2.36963387138714 -0.10153332833283
 1 -8.56404114011401  0.45062966406641  0.13176255025503
 1  9.08336602360236  4.30193357535753  0.06868270927093
 1  7.19899628662866  4.18996385738574 -0.21217756375638
 1  7.74779403940394  3.92467353535354  1.54960179817982
 1 -7.85157795179518 -3.43115777367737 -0.13033832283228
 1 -8.30960533153315 -2.88982898579858 -1.84887677667767
 1 -6.55945171717172 -3.25139967986799 -1.30933636763676
 1  6.94987084208421  0.37192040704070 -0.39395727072707
 1 -6.42707968396840  0.43188068316832 -0.27145227022702
 1  5.50862856785679  3.12724839683968  0.42805931493149
 1 -4.96971744274428 -2.19037671567157 -0.89291544154415
 1  4.62909610261026  0.54427917391739 -0.56935900390039
 1 -4.16203760776078  0.64519389138914 -0.32854157315732
 1  3.46991261926193  3.36055794579458  1.27648088908891
 1  1.73385164616462  3.40865184718472  0.85058966096610
 1  3.15456083608361  3.85377200220022 -0.45708876687669
 1 -2.58486960196020 -3.01790408240824 -0.64509217421742
 1 -2.90126883988399 -2.28880594259426 -2.12465120712071
 1 -1.32020240524052 -2.45005255525553 -1.77907645064506
 1  2.35405676867687 -0.18841212221222 -0.52190840284028
 1 -1.97149177217722  1.10905914991499 -0.21097500450045
 1  0.13219351835184  2.00661608860886 -0.21591958195820
 1  0.42228401340134 -0.89370953495350 -0.88896057005701

