%nproc=4
%Mem=2GB
# td=(NStates=1) CAM-B3LYP/6-31G(d,p) 

TD

0 1
 8  14.81423694869487 -2.10379331243124 -0.29645656865687
 8 -14.71112617661766  2.08688399349935  0.72528205920592
 6  11.23333567956796 -1.56138869096910  0.83498965996600
 6 -12.38634379837984 -0.98705032293229  0.63109675367537
 6  12.69350291629163 -1.84848414451445  0.78799369136914
 6 -13.77254397339734 -0.07369538943894  0.57143995599560
 6  13.42792083108311 -1.77867018911891 -0.50173371837184
 6 -13.50200949394940  1.37011567266727  0.79276052705271
 6  10.92484181118112 -0.28411603860386 -0.00529382238224
 6 -11.31258762276228 -0.25240624752475 -0.19972764876488
 6  13.32033252425243 -0.40983946904690 -1.06568932293229
 6 -12.69683212121212  1.82683569066907 -0.42335168816882
 6  11.92645851485149  0.13995437833783 -0.94987763076308
 6 -11.37861845684568  0.93150978007801 -0.76435843184318
 6  10.69271031203120 -1.20215565656566  2.29089247324732
 6  10.43758437843784 -2.64173194119412  0.28237162716272
 6 -11.94072587858786 -1.04899459135914  2.10408653965397
 6 -12.78076457145714 -2.36311753365337  0.06308757075708
 6  9.68340358135814  0.35525447844784  0.09466342634263
 6 -10.10213578557856 -1.05877861976198 -0.41366265126513
 6  11.66277215721572  1.32727790169017 -1.90809279927993
 6 -10.40571885988599  1.67845732283228 -1.67748463846385
 6  9.27964186918692  1.67988423142314  0.12897953795380
 6 -8.77529892689269 -0.56057800670067 -0.26231133313331
 6  8.01071017601760  2.25466144914491  0.26891766676668
 6 -7.54257229122912 -1.31410973887389 -0.54190035903590
 6  7.99421120512051  3.75517437243724  0.59346353035304
 6 -7.73729202620262 -2.73425300220022 -1.05292397739774
 6  6.87640761176118  1.48539748074807  0.20474798979898
 6 -6.38434113111311 -0.75612387428743 -0.32756168116812
 6  5.60052076607661  2.04734897289729  0.33645061406141
 6 -5.08043658965897 -1.23894096699670 -0.43902078007801
 6  4.45365415141514  1.30310650465047  0.24340225522552
 6 -3.90019131613161 -0.48019024302430 -0.21275409040904
 6  3.02726021702170  1.72345673667367  0.28053216921692
 6 -2.56399185518552 -0.85561564056406 -0.41769012401240
 6  2.84561612861286  3.19416710871087  0.48306596459646
 6 -2.28166693469347 -2.27278077007701 -0.79685091109111
 6  2.12486157515752  0.74511657565757  0.03541286128613
 6 -1.66050801080108  0.10430831983198 -0.12209616061606
 6  0.72418924792479  0.88440125412541  0.17232856085609
 6 -0.24976484648465 -0.04480208020802 -0.17727869786979
 1  13.22191077107711 -1.25466887698770  1.74502019101910
 1  12.80154365336534 -2.78193140724072  1.26003368736874
 1 -14.60987396039604 -0.40575801770177  1.31213213421342
 1 -14.12638613361336 -0.50235810771077 -0.47054891089109
 1  12.88918992599260 -2.55441474857486 -1.10292085008501
 1 -12.96638707070707  1.40883486558656  1.73578131213121
 1  14.03107769476948  0.31706428432843 -0.51820700170017
 1  13.53872942994299 -0.38911426852685 -2.13205593659366
 1 -13.37918312731273  1.73705876597660 -1.17701044404440
 1 -12.29551552455245  3.02541756185619 -0.58925788978898
 1  10.83107579657966 -2.13276170517052  2.96752144814481
 1  9.51745007200720 -1.11430122912291  2.17306406140614
 1  11.29595333733373 -0.38373724082408  2.89441282728273
 1  10.68783504650465 -3.17720249424943 -0.63835051805181
 1  10.40693969686969 -3.39368801180118  0.98362780278028
 1  9.37448476547655 -2.48248955695570  0.16105282628263
 1 -11.89011069706971 -0.16745923982398  2.56022631963196
 1 -11.05424826382638 -1.61452399629963  2.29990377437744
 1 -12.71649254225423 -1.52072949284928  2.81563214321432
 1 -13.55347579657966 -2.83657235313531  0.61680981198120
 1 -12.03846908190819 -3.11775836473647  0.08679157715772
 1 -13.13992185118512 -2.33001219311931 -0.95962870487049
 1  8.87223912691269 -0.23624803580358  0.43389051005101
 1 -10.09804456945695 -2.18357542144214 -0.30868467046705
 1  10.46626791879188  1.38379304930493 -1.98768082708271
 1  12.23542937193719  2.36297724062406 -1.67126273427343
 1  12.14399606960696  1.02820367526753 -2.79484217321732
 1 -11.14520892189219  2.10114567866787 -2.27144786578658
 1 -9.65952193019302  0.97147116621662 -2.23257922492249
 1 -9.56359054305431  2.38847150125013 -1.12749590559056
 1  14.91779090709071 -3.22566789388939 -0.20413213321332
 1 -15.22032672567257  1.74980228032803  1.28261935793579
 1  10.00943686268627  2.44015092309231 -0.07468064306431
 1 -8.73571830783078  0.45468006910691  0.05197457145715
 1  9.09216690369037  4.04935831783178  0.49416525752575
 1  7.23987037403740  4.19679454045404 -0.02308865486549
 1  7.67691695169517  3.88365943394339  1.74724156215622
 1 -7.84869766376638 -3.41513617151715 -0.24883017201720
 1 -8.52460683168317 -2.74918492139214 -1.92922481148115
 1 -6.71419719171917 -3.13849838973897 -1.42587802180218
 1  6.93317917291729  0.45678889388939 -0.13442131713171
 1 -6.49026600260026  0.15347284238424  0.24250912591259
 1  5.50223792879288  3.08135380738074  0.37225373437344
 1 -4.99794026502650 -2.32777045504550 -0.91089723972397
 1  4.63178637163716  0.24557930393039  0.22217014901490
 1 -3.92912431643164  0.55162453445345  0.05845712671267
 1  3.06699232723272  3.44769665966597  1.54105734673467
 1  1.90782904390439  3.65142612461246  0.13317791979198
 1  3.71818719871987  3.93357998299830 -0.09047210521052
 1 -2.50512162716272 -3.08673096509651 -0.07706537153715
 1 -2.72262097509751 -2.49284634663466 -1.72789153115311
 1 -1.11709209420942 -2.30471802180218 -0.99461800480048
 1  2.47387875087509 -0.30662394339434 -0.13836004800480
 1 -2.19034365736574  0.99682792679268  0.37034312731273
 1  0.37703800280028  1.79155458245825  0.50405241524152
 1  0.22286407140714 -1.01763192719272 -0.50947262126213

