%nproc=4
%Mem=2GB
# td=(NStates=1) CAM-B3LYP/6-31G(d,p) 

TD

0 1
 8  14.64599012401240 -2.33843677677768 -0.27961488448845
 8 -14.71064612861286  1.96786209130913  0.91501103210321
 6  11.11056340234023 -1.40621317341734  1.02289845084508
 6 -12.35162032603260 -0.98663028092809  0.60668431243124
 6  12.70847441344134 -1.71978127422742  1.03209810181018
 6 -13.67096381538154 -0.18373639353935  0.60007281928193
 6  13.28753679267927 -1.89623194529453 -0.33665721072107
 6 -13.57088638163816  1.25688434953495  1.01515276627663
 6  11.05230455745575 -0.20056768376838  0.11281798879888
 6 -11.28372473647365 -0.23025403230323 -0.11740941694169
 6  13.26105659665967 -0.49765825092509 -0.98098085208521
 6 -12.60402284028403  1.85727873497350 -0.06312566556656
 6  11.89380524952495  0.21359174207421 -0.82706534953495
 6 -11.50218081308131  1.04289091819182 -0.54034603060306
 6  10.79627066806681 -1.03275871687169  2.45016840084008
 6  10.32633325332533 -2.60520828882888  0.54917830783078
 6 -11.97491929792979 -1.31072076397640  2.11664779577958
 6 -12.63547004200420 -2.29393061496150 -0.02748148614861
 6  9.60853609460946  0.38135708870887  0.14227818781878
 6 -10.02573814581458 -1.01631437333733 -0.39984126912691
 6  11.70550643064306  1.33113828772877 -1.88177016701670
 6 -10.58335662366236  1.71870134723472 -1.27269415941594
 6  9.40311421642164  1.79173541654165  0.15995263526353
 6 -8.79646104310431 -0.45667761666167 -0.46476157815782
 6  8.12831193619362  2.33860984398440  0.13630440544054
 6 -7.65223325732573 -1.21846017391739 -0.63638980798080
 6  8.01574335833583  3.77788664366437  0.53470765476548
 6 -7.74677297429743 -2.70142971987199 -0.86763544854485
 6  7.03771374237424  1.46753569456946  0.08487600260026
 6 -6.37147984498450 -0.63072133403340 -0.59512843784378
 6  5.64870558455846  2.03458769676968  0.06575354435444
 6 -5.11959050505051 -1.11434850775078 -0.74152103010301
 6  4.53689247524752  1.14356055005501  0.11900981598160
 6 -3.88792008900890 -0.35385760976098 -0.60743355835584
 6  3.18609610061006  1.52480687168717  0.20945506150615
 6 -2.62923837983798 -0.85168524752475 -0.77938629362936
 6  2.82392395939594  3.08011570357036  0.55510316831683
 6 -2.37060582858286 -2.28420191219122 -0.91441266726673
 6  2.05000408940894  0.64314637863786 -0.10763144314431
 6 -1.56535849584958  0.07976586558656 -0.41253520452045
 6  0.68499532853285  0.88454126812681 -0.11319999199920
 6 -0.18121799179918 -0.08430603060306 -0.42469343934393
 1  13.19307788778878 -0.95294870497050  1.65860154915492
 1  12.80609410841084 -2.62159537363736  1.66893457745775
 1 -14.43257623062306 -0.72493993589359  1.30681160216022
 1 -14.32425592059206 -0.12687055895590 -0.51180303630363
 1  12.55855686268627 -2.45606491359136 -0.91123168116812
 1 -13.13094352635263  1.26845082718272  2.13074080808081
 1  14.04926951395139  0.04220679857986 -0.48075325632563
 1  13.53573913091309 -0.46599195629563 -2.05315804680468
 1 -13.36962217121712  2.39817487758776 -0.73815655865587
 1 -12.27465343834383  2.87982300240024  0.52399343534353
 1  11.36404909390939 -1.75035346434643  3.15600029602960
 1  9.56164449144914 -0.87891769076908  2.78736549154916
 1  11.25052879487949 -0.00629949704971  2.67796118211821
 1  10.67349361236124 -2.94272904690469 -0.47266394939494
 1  10.61114011691169 -3.37512615561556  1.24234367436744
 1  9.13226054305431 -2.40983229122912  0.57943466446645
 1 -11.39242092809281 -0.37975046894689  2.62544284128413
 1 -11.16235907490749 -2.07090963486349  2.11299508350835
 1 -12.59877077007701 -1.77209462936294  2.71817239723972
 1 -13.62725317431743 -2.66116481238124  0.47887601860186
 1 -11.79555479047905 -3.16639322822282  0.14096699469947
 1 -12.96710456945694 -2.45640483238324 -1.09228197019702
 1  8.75046694969497 -0.19812422342234  0.31254837583758
 1 -10.06160092509251 -2.03888095199520 -0.57559136113611
 1  10.74506579857986  1.61428609860986 -1.95744780378038
 1  12.17317314631463  2.18289923282328 -1.29574518251825
 1  12.29320099009901  0.93962481738174 -2.72886557555756
 1 -11.23744814581458  2.53081864596460 -1.92887360836084
 1 -10.11582756075608  0.85885990509051 -2.12949891689169
 1 -9.63560774477448  2.40354300840084 -0.76653980998100
 1  14.47708683668367 -3.20836616371637  0.07490577057706
 1 -15.34271896489649  1.53007030713071  1.58019911591159
 1  10.24195011401140  2.48315522352235  0.27750457545755
 1 -8.74324906090609  0.63709831093109 -0.31296192219222
 1  9.10449813681368  4.22642602460246 -0.05488964796480
 1  6.94733112011201  4.28016287728773  0.13615726972697
 1  8.03158241824182  3.98226929492949  1.80598743674367
 1 -8.54468726272627 -2.96675133303330 -0.13817910691069
 1 -8.00111448244824 -2.90570057295730 -1.78228011701170
 1 -6.68523429542954 -3.33971851175117 -0.68088352235223
 1  7.12996885188519  0.47512072707271 -0.10870874587459
 1 -6.36114309030903  0.44310180528053 -0.45902102710271
 1  5.67068477347735  2.94822049404941  0.67721423042304
 1 -4.88998946994700 -2.20849852785278 -0.93320947094709
 1  4.61309450245025  0.13874862086209  0.00320825282528
 1 -3.88211961596160  0.74179355135514 -0.32687140614061
 1  3.65516114411441  3.36725861586159  1.20912415341534
 1  1.77711597259726  3.14528551055105  0.97164176617662
 1  2.75365074507451  3.67832445744575 -0.58197125512551
 1 -3.01397251225123 -2.91837412941294 -0.19686735173517
 1 -2.70351906490649 -2.71959902190219 -1.92851159315932
 1 -1.32404278927893 -2.67272482248225 -0.77666620962096
 1  2.37682904590459 -0.24063734473447 -0.53720993299330
 1 -1.97916253925393  1.07098534253425  0.06949304230423
 1  0.08806910591059  1.77886331333133  0.21546355635564
 1  0.27114889988999 -1.02453261726173 -0.76321799579958

