%nproc=4
%Mem=2GB
# td=(NStates=1) CAM-B3LYP/6-31G(d,p) 

TD

0 1
 8  14.77589311431143 -2.16750968406841 -0.30435735873587
 8 -14.82618768276828  1.94286959205921  0.88148767976798
 6  11.20417276327633 -1.43382593469347  1.00820698169817
 6 -12.37715287928793 -0.93828544644464  0.67853149714971
 6  12.75877944394439 -1.84464376047605  1.02011690369037
 6 -13.75057177617762 -0.25355337523752  0.79225203720372
 6  13.36105414441444 -1.83481580368037 -0.28987253225323
 6 -13.67366665966597  1.32937159825983  0.82845409640964
 6  11.00160948794879 -0.16850447744774  0.06592329932993
 6 -11.24760112411241 -0.17115812271227 -0.14930260626063
 6  13.35880637163716 -0.41216970207021 -0.95123787778778
 6 -12.82695513351335  1.77961096819682 -0.33592294529453
 6  11.95960182918292  0.23585396829683 -0.81465410841084
 6 -11.48970956595659  1.00017664676468 -0.58383037903790
 6  10.79128016901690 -1.04492993399340  2.39436282028203
 6  10.34345496549655 -2.68070583858386  0.49742313231323
 6 -11.92427423342334 -1.10946063796380  2.19396552755276
 6 -12.74664115911591 -2.35717693959396  0.02583384538454
 6  9.76234147514751  0.43460241324132  0.01044500450045
 6 -10.10722629462946 -0.95081782368237 -0.22688397339734
 6  11.85102098209821  1.38006318021802 -1.82968495849585
 6 -10.60251853985399  1.72401187828783 -1.45564245424542
 6  9.37370127512751  1.79241548454845  0.06390303030303
 6 -8.78569996699670 -0.46047799669967 -0.32042714471447
 6  8.13345245024502  2.22819880288029  0.18457923292329
 6 -7.56136417041704 -1.19814814271427 -0.63806997599760
 6  7.83482526652665  3.63592244724472  0.51161534553455
 6 -7.70339863686369 -2.66408598549855 -1.13446213121312
 6  6.93133310431043  1.43215215621562 -0.07316980198020
 6 -6.38897159415942 -0.51311957385739 -0.61662058705871
 6  5.57559827382738  1.83866810481048  0.19048601760176
 6 -5.04576312231223 -1.13242031493149 -0.68747562556256
 6  4.47832661866187  1.16154234823482 -0.09902198719872
 6 -3.96077737473747 -0.38645086908691 -0.36737955295530
 6  3.19196668766877  1.53185757675768  0.19165328132813
 6 -2.62347780378038 -0.82872295129513 -0.56876523152315
 6  2.91756332333233  3.05278297029703  0.78072573057306
 6 -2.36835560356036 -2.30148364036404 -0.94130535653565
 6  2.11633072207221  0.65797786178618 -0.06353703370337
 6 -1.64798675867587  0.06835472447245 -0.31274522552255
 6  0.71779860886089  0.80464327832783  0.00057138513851
 6 -0.15989585958596 -0.15227282728273 -0.40957192719272
 1  13.21037961796180 -1.12138554865487  1.75128081708171
 1  12.92866636563656 -2.85882909700970  1.48885656965697
 1 -14.52721569456946 -0.54669211111111  1.49413033403340
 1 -14.25906940194019 -0.47812568446845 -0.19711156715672
 1  12.83853486048605 -2.66017532463246 -0.82544310231023
 1 -12.95169560156016  1.59446342844284  1.78446618061806
 1  14.32576716371637  0.07590016791679 -0.26930211121112
 1  13.66290184718472 -0.36652200930093 -1.99347207820782
 1 -13.62005721472147  1.83910897099710 -1.10195293829383
 1 -12.70088606160616  2.85097011711171 -0.10070903490349
 1  11.10867355635563 -1.80122855185519  3.26293098909891
 1  9.77058538553855 -1.09738953795380  2.44569132413241
 1  11.23472721472147 -0.08016688378838  2.65657904390439
 1  10.41686794979498 -2.88012278627863 -0.67161384438444
 1  10.78869787268727 -3.50629927292729  1.09642908290829
 1  9.26490380738074 -2.72707401540154  0.76148286928693
 1 -12.05435712171217 -0.28809130303030  2.92104240124012
 1 -10.78325116411641 -1.34755729962996  2.24327811181118
 1 -12.61168206120612 -1.87836525642564  2.53701428142814
 1 -13.62848329732973 -2.86714541044104  0.69372750375037
 1 -11.85049028402840 -3.13743033193319  0.20805370337034
 1 -13.04526238523852 -2.41581077297730 -0.98645138713871
 1  8.85855775877588 -0.13635804680468 -0.02096497549755
 1 -10.02986775177518 -2.00429749364937 -0.31439524152415
 1  10.76927821982198  2.00440511051105 -2.05989804880488
 1  12.62209803880388  2.06712765566557 -1.52816842484248
 1  12.06387805780578  0.98407926282628 -2.85547823682368
 1 -11.18033243424342  2.42402796689669 -2.25299602060206
 1 -9.78632461046105  1.08286230533053 -1.82541850885088
 1 -10.34491867586759  2.61542419651965 -0.80392354835484
 1  14.91955108310831 -3.10380570767077  0.27003528352835
 1 -15.20123481648165  1.76147344744474  1.60809190519052
 1  10.28149406840684  2.66611351935193  0.40140696569657
 1 -8.77185192119212  0.57358195929593 -0.27344797079708
 1  8.86435412241224  4.28345172717272  0.74352019301930
 1  7.51977836483648  4.38015287628763 -0.30223656965697
 1  7.11478073807381  3.73869493749375  1.39426626462646
 1 -7.91845463946395 -3.33108776667667 -0.22996828582858
 1 -8.43041741274127 -2.71478148104811 -1.87988987798780
 1 -6.74082985498550 -3.00143468336834 -1.48560399439944
 1  7.07016287128713  0.42838605360536 -0.68889676467647
 1 -6.19205618161816  0.50933842894289 -0.23939906490649
 1  5.41696940194019  2.84009968196820  0.63317982698270
 1 -5.18636910791079 -2.14757243524352 -1.02255840584058
 1  4.69904309730973  0.20706545254525 -0.46810887888789
 1 -4.16360776477648  0.49705907790779  0.01263254425443
 1  2.92811843984398  2.99124101410141  2.04070731173117
 1  1.87691595259526  3.33887486948695  0.39420402240224
 1  3.69119449944994  3.65148177317732  0.33623056505651
 1 -2.54463557855786 -2.98880117211721 -0.12123978897890
 1 -2.93025173817382 -2.67233429542954 -1.83888263026303
 1 -1.29528991399140 -2.44811236123612 -1.28263680668067
 1  2.63407477047705 -0.39846312731273 -0.38752496449645
 1 -2.10025464846485  0.88725696969697  0.03020911391139
 1  0.37632793179318  1.77260268726873  0.54590660066007
 1  0.28697048204820 -1.14129429342934 -0.60023169716972

