%nproc=4
%Mem=2GB
# td=(NStates=1) CAM-B3LYP/6-31G(d,p) 

TD

0 1
 8  14.71139666466647 -2.23708664176418  0.00804388138814
 8 -14.83110817481748  1.89315462056206  0.95206473747375
 6  11.16734908090809 -1.50103265536554  0.95519168016802
 6 -12.41214637863786 -0.98614023192319  0.66390003400340
 6  12.57063062906291 -1.81847114321432  1.17485237723772
 6 -13.67448416741674 -0.24986300620062  0.80184299629963
 6  13.35810384938494 -1.92566488858886 -0.24043758875888
 6 -13.57529682268227  1.17727638873887  0.95143639463946
 6  11.01845117211721 -0.26534416141614  0.03402010901090
 6 -11.33497986198620 -0.16820782768277 -0.09427710371037
 6  13.34821531253125 -0.45910439553955 -0.80944369836984
 6 -12.72991542954295  1.83967697479748 -0.16040539353935
 6  11.98018388738874  0.17535791869187 -0.82247489048905
 6 -11.50257085208521  1.09868649774978 -0.56058805480548
 6  10.54916595759576 -1.15213065406541  2.30694407840784
 6  10.32292291229123 -2.62267003500350  0.26239962996300
 6 -11.82955476147615 -1.31078076997700  2.03849998099810
 6 -12.54099059405941 -2.45982720462046  0.04418568056806
 6  9.64747998899890  0.36643559655966  0.14470843084308
 6 -10.13343891589159 -0.94112685458546 -0.48248953395340
 6  11.86507238723872  1.16599177307731 -1.82559454945495
 6 -10.52798108610861  1.85717519461946 -1.27101399139914
 6  9.43457736273627  1.73462970597060  0.14269090909091
 6 -8.86009740674067 -0.44386633553355 -0.28951405340534
 6  8.04384348934893  2.35968195119512  0.19794056905691
 6 -7.54410244424442 -1.18099642754275 -0.75177134613461
 6  7.91022280628063  3.76394524952495  0.65151933593359
 6 -7.75883418041804 -2.54083366026603 -1.23157184218422
 6  6.89413938493849  1.56623556455646 -0.05255774077408
 6 -6.36772946994699 -0.56528479037904 -0.44636356135614
 6  5.62471318531853  2.03645788378838  0.01652862186219
 6 -5.08850739673967 -1.22522959585959 -0.52927980598060
 6  4.46364515051505  1.31809800380038 -0.12998508350835
 6 -3.84841613861386 -0.50786301030103 -0.25369818481848
 6  3.09128661966197  1.82318670967097 -0.08941482548255
 6 -2.58029348534853 -0.90444052305231 -0.46260461546155
 6  2.73939550655065  3.10743843584358  0.35597325532553
 6 -2.34241300930093 -2.35425891789179 -0.87250847684768
 6  2.16431552055206  0.82463452745275 -0.35146582658266
 6 -1.54709666966697  0.02143003200320 -0.31074502550255
 6  0.78521535053505  0.95442825682568 -0.22772144414441
 6 -0.07006687668767 -0.10832843284328 -0.37839880988099
 1  13.14575315531553 -1.08749215931593  1.78062375137514
 1  12.51839533853385 -2.76462967706771  1.76537422142214
 1 -14.18977195019502 -0.82141958385839  1.84464538553855
 1 -14.25608910391039 -0.51875974787479 -0.28994085008501
 1  13.09704071107111 -2.60117942504250 -1.08102866086609
 1 -12.92086251825183  1.22532651475148  1.96009374337434
 1  14.02766735373537  0.13992657055706 -0.20596577757776
 1  13.65594115111511 -0.58785414251425 -1.75529826082608
 1 -13.36534174317432  2.07001206130613 -0.86238898189819
 1 -12.38544451745175  2.88082310241024  0.29448048404840
 1  10.71332402140214 -1.93313174217422  3.06437113311331
 1  9.54631295829583 -0.88852865186519  2.38951570657066
 1  11.09437317931793 -0.33124199129913  2.85854924092409
 1  10.64037030003000 -2.98172294629463 -0.68772545554555
 1  10.14834383728373 -3.72887153015302  0.84367380738074
 1  9.36101341834184 -2.38580988898890  0.20937765876588
 1 -11.85479716571657 -0.39318181208121  2.61994229122912
 1 -10.69850268926893 -1.64858740264026  2.06089987398740
 1 -12.53547444044404 -2.01286870677068  2.46136671667167
 1 -13.38186863586358 -2.82426112201220  0.53087121812181
 1 -11.64040927592759 -2.96949353825383  0.29294219221922
 1 -12.80213807280728 -2.43767295919592 -1.12130487248725
 1  8.83005490849085 -0.31914632563256  0.26052317331733
 1 -10.21294605960596 -1.82238930283028 -0.95640944294429
 1  10.82378367036704  1.40421509150915 -1.95050710971097
 1  12.35837166616662  1.99211015391539 -1.33075868386839
 1  12.43014468446844  0.89624047894789 -2.71340402940294
 1 -11.15086948794879  2.88280384448445 -1.61166188718872
 1 -10.07187316531653  1.34572859195920 -2.22290825782578
 1 -9.67852203620362  2.20126278037804 -0.71081423742374
 1  14.46223535153515 -3.13342866996700  0.40219849984999
 1 -15.27626231923192  1.64487178727873  1.98188928492849
 1  10.42312823182318  2.38968587658766  0.28928575357536
 1 -8.72430716671667  0.40692529362936  0.53046242024202
 1  8.88650633763376  4.17850123212321  0.49717555855586
 1  7.04092047904790  4.46645150615061 -0.04954130013001
 1  7.55033429342934  3.77329839783978  1.66925376337634
 1 -8.19571236523652 -3.06442110001000 -0.37788307730773
 1 -8.38257262826283 -2.65237524042404 -2.16228811781178
 1 -6.88111388338834 -3.08382292219222 -1.64929036303630
 1  7.13949980498050  0.47097031203120 -0.45460333533353
 1 -6.29369634563456  0.33145064016402  0.19421429642964
 1  5.30289799479948  3.16612228422842  0.20196670567057
 1 -4.92274274527453 -2.08243592159216 -1.06909305930593
 1  4.53202639563956  0.41093583958396 -0.53214528252825
 1 -4.02044344834483  0.43250262226223  0.07086836783678
 1  2.75498112611261  3.18606049604960  1.39832307330733
 1  1.70343860486049  3.25903688568857  0.09516411841184
 1  3.39430481048105  4.13806043104311 -0.11775483348335
 1 -3.28319943494349 -3.00882317431743 -0.65207287228723
 1 -2.22853156615662 -2.23413047504750 -2.13024176617662
 1 -1.19093947894789 -2.83122067206721 -0.40021856485649
 1  2.49204056705671 -0.07544082508251 -0.67150336233623
 1 -1.80490511351135  0.96931517551755 -0.06534044104410
 1  0.33672397139714  2.00772619961996  0.15851786178618
 1  0.21049283428343 -1.04331449544955 -0.94037571157116

