%nproc=4
%Mem=2GB
# td=(NStates=1) CAM-B3LYP/6-31G(d,p) 

TD

0 1
 8  14.62397792279228 -2.37416034913491 -0.48803572657266
 8 -14.85684074807481  1.86730203530353  0.39649918091809
 6  11.09256160216021 -1.67552010411041  0.80149631063106
 6 -12.33688885288529 -0.97814943284328  0.61058470247025
 6  12.62399596559656 -1.94844414051405  0.75037992999300
 6 -13.74212093109311 -0.27244526442644  0.48538135013501
 6  13.26517455645565 -1.87332965506551 -0.58267181218122
 6 -13.62216150915092  1.20110877197720  0.53937518851885
 6  10.94015334233423 -0.26160378737874 -0.09556284928493
 6 -11.26583294729473 -0.32667367426743 -0.19625730173017
 6  13.34243473447345 -0.37276576167617 -1.09171192519252
 6 -12.86361879987999  1.63429643674367 -0.73189254225423
 6  11.93546941594160  0.17044742764276 -1.00780342334233
 6 -11.50260085508551  0.88966559565957 -0.86285828182818
 6  10.56422746374637 -1.51053649464947  2.23171655565557
 6  10.27157777777778 -2.81222899089909  0.04013740374037
 6 -12.06219802580258 -1.04472416431643  2.21122725372537
 6 -12.51152764776478 -2.47083830573057  0.06652791479148
 6  9.59765500650065  0.37282623562356  0.02399635963596
 6 -9.94620019201920 -1.07711045294529 -0.24556584158416
 6  11.72249812981298  1.46927210111011 -1.71048303830383
 6 -10.49827811581158  1.53053253035304 -1.80339722972297
 6  9.33021692669267  1.62792903590359  0.12723936393639
 6 -8.73578497549755 -0.45238718761876 -0.28466356835684
 6  8.06516562156215  2.30801678467847  0.19338011301130
 6 -7.45247328132813 -1.26215454335434 -0.42419858885889
 6  8.04007579157916  3.86879573457346  0.32474665866587
 6 -7.50142843984398 -2.67481705860586 -0.80626931193119
 6  6.92208217921792  1.55671461246125  0.15141265626563
 6 -6.33308600560056 -0.52504076597660 -0.24859378437844
 6  5.61027174117412  2.15938017601760  0.41732870187019
 6 -5.01108965496550 -1.01739881278128 -0.27808468646865
 6  4.49992877887789  1.34179037303730  0.28021593659366
 6 -3.89998129512951 -0.18274049804981 -0.15169798479848
 6  3.18722621362136  1.75951034203420  0.44586870287029
 6 -2.53586904290429 -0.63752383138314 -0.20201855685569
 6  2.94616618361836  3.18009570157016  0.77182484048405
 6 -2.28686745474547 -2.10840433243324 -0.49042026802680
 6  2.11279036803680  0.80987305130513  0.23073239323932
 6 -1.50551251125113  0.20170805980598 -0.00537448844884
 6  0.78264509350935  0.93375618961896  0.40525185318532
 6 -0.20876074607461  0.08080048004800 -0.09203017301730
 1  13.04284286428643 -1.32418582868287  1.47065275427543
 1  12.75286878587859 -2.77222043614361  1.33803148714871
 1 -14.49899287228723 -0.74013145504550  1.28177909890989
 1 -14.32906640164016 -0.49014688658866 -0.44160601660166
 1  12.65262626962696 -2.44835414251425 -1.42839339733973
 1 -13.26719715171517  1.67079106120612  1.48103583758376
 1  13.94453904090409  0.12373495139514 -0.28366354735474
 1  13.79112466946695 -0.16864222132213 -2.08512124312431
 1 -13.55240044904490  1.49869492959296 -1.61946468946895
 1 -12.70279625262526  2.86991201130113 -0.69908887288729
 1  10.58641133013301 -2.53573200220022  2.71844654065407
 1  9.47493582058206 -1.19182898189819  1.95292204720472
 1  11.22573631563156 -0.62700156725673  2.83244663066307
 1  10.50908717171717 -3.10113488748875 -1.02593927692769
 1  10.83899290219022 -3.76905554855486  0.55759519951995
 1  9.11252856985699 -2.74127543554355  0.40554727572757
 1 -12.12731441744174  0.08851635773577  2.43879417641764
 1 -11.07866070507051 -1.54831737563756  2.40910469446945
 1 -12.69831072407241 -1.41675909580958  2.89720030003000
 1 -13.33939438843884 -2.95363405930593  0.64407253825383
 1 -11.84176941194120 -3.01136772567257  0.13462636063606
 1 -12.94690254925492 -2.66010520242024 -0.86329907190719
 1  8.81572347534754 -0.41587599859986 -0.04407728672867
 1 -9.86922168716872 -2.32280934483448 -0.27390119211921
 1  10.66643793579358  1.63145781578158 -2.22125418441844
 1  12.05911174017402  2.41190213311331 -1.24574018201820
 1  12.16274794479448  1.31467232213221 -2.70632332133213
 1 -11.10191459245925  2.14157972207221 -2.72536325732573
 1 -9.81946792479248  0.68582260136014 -2.07374334133413
 1 -9.81761594559456  2.37448010211021 -1.36398955495550
 1  14.61131025902590 -3.38617394449445 -0.29351107110711
 1 -15.46259095209521  1.48065536563656  1.01756285228523
 1  10.35122104110411  2.24646155415542  0.06613343834383
 1 -8.75696043204320  0.61679628072807 -0.30214084008401
 1  9.03257094409441  4.32338572057206  0.20123596459646
 1  7.35593198019802  4.27239210021002 -0.47953429942994
 1  7.60080934093409  4.05194626262626  1.41718855685569
 1 -8.24401719571957 -3.25710036793679 -0.14270955995600
 1 -7.96027039803981 -2.74208421132113 -1.70554244324432
 1 -6.55517128912891 -3.16911145104510 -0.74897033103310
 1  6.94365022002200  0.47912112711271 -0.17228510351035
 1 -6.33642061806181  0.58104559965997  0.17746262126213
 1  5.46050375537554  3.21227689968997  0.51043755275528
 1 -4.79398986998700 -2.06703438143814 -0.45092124212421
 1  4.63277647064707  0.35962070807081 -0.08637070507051
 1 -4.12715411941194  0.66471584358436  0.27748902990299
 1  3.67860348834883  3.54198608860886  1.59087232823282
 1  1.72271053205321  3.38651963396340  1.12592719471947
 1  2.91458683868387  4.05301192619262 -0.25391844984498
 1 -2.90891200620062 -2.59888218021802  0.31123345834583
 1 -2.69757847084708 -2.39966702870287 -1.60061880388039
 1 -1.23212359735974 -2.22824037403740 -0.58948749174917
 1  2.63816517951795 -0.17195047604760  0.15284907290729
 1 -1.87459208220822  1.26426467046705  0.18884497749775
 1  0.45557585658566  1.89796522352235  0.69835184518452
 1  0.19016080108011 -0.81262142614261 -0.60802247624763

