%nproc=4
%Mem=2GB
# td=(NStates=1) CAM-B3LYP/6-31G(d,p) 

TD

0 1
 8  14.58660418541854 -2.34644757785779 -0.34894181718172
 8 -14.60171523552355  1.87629293439344  0.95483501450145
 6  11.08905125112511 -1.47776032813281  0.94794095509551
 6 -12.29282444644464 -1.08455007290729  0.67154079807981
 6  12.62047561356136 -1.88122741884188  0.97009190119012
 6 -13.60307702670267 -0.24733275317532  0.79111192319232
 6  13.13433147214722 -2.03630595269527 -0.35227877287729
 6 -13.40902019501950  1.21593025412541  0.98916016701670
 6  11.00931025802580 -0.27810543754375  0.10429713671367
 6 -11.19929629362936 -0.29269027592759 -0.23634131013101
 6  13.11383187418742 -0.63789227432743 -0.99514226822682
 6 -12.58667110511051  1.76717972507251 -0.13852320532053
 6  11.78947481648165  0.01960234313431 -0.92968561156116
 6 -11.43516411141114  0.96958358745875 -0.70974297029703
 6  10.62147318831883 -1.08823426442644  2.40801418541854
 6  10.24419503950395 -2.68697646564656  0.48540193019302
 6 -11.70082188818882 -1.25995568746875  2.00000613161316
 6 -12.67409390439044 -2.45743696559656 -0.05702444044404
 6  9.62623786478648  0.41520047304730  0.24836879687969
 6 -9.99355492749275 -0.97675041694169 -0.59096038103810
 6  11.60985686568657  1.01302647654765 -2.01304329432943
 6 -10.58068635663566  1.66817629472947 -1.71047793779378
 6  9.38550245524553  1.76859310231023  0.24473111311131
 6 -8.70282167916792 -0.48396034493449 -0.36767186918692
 6  7.99306841184118  2.39868585158516  0.30173094809481
 6 -7.47471550555055 -1.13653198109811 -0.69038520752075
 6  7.89739152315232  3.96729558455846  0.45020920492049
 6 -7.61700999799980 -2.57903748064806 -1.05361404640464
 6  6.85250522152215  1.66834577557756  0.13290080508051
 6 -6.33101579857986 -0.51388965086509 -0.44305323032303
 6  5.52076279027903  2.25202944094409  0.14687165616562
 6 -5.09743828982898 -1.03880095299530 -0.66224310231023
 6  4.47622640864086  1.42751894589459 -0.05961804680468
 6 -3.95934723172317 -0.43164538853885 -0.23714652965297
 6  3.07334482548255  1.90249464046405  0.20555467146715
 6 -2.61706716271627 -0.83445352435244 -0.46592494749475
 6  2.82357392439244  3.21662935493549  0.61063872187219
 6 -2.22370113811381 -2.29479297129713 -0.89407063306331
 6  2.15309439843984  0.79835189918992 -0.11760244024402
 6 -1.48462042204220  0.09612750175018 -0.09572352335234
 6  0.70922775177518  0.91563437743774  0.08168949694970
 6 -0.20458032803280 -0.11548914891489 -0.07218818881888
 1  13.04057263726373 -1.06195960606061  1.39068475747575
 1  12.91786528552855 -2.65533874797480  1.58385606960696
 1 -14.34692766576658 -0.59334677657766  1.53688460946095
 1 -14.02486598159816 -0.34682255415542 -0.11096295229523
 1  12.66983799079908 -2.77975728282828 -1.01939249724972
 1 -12.83299373137314  1.37986196829683  1.98699643364336
 1  13.90544513151315  0.01825440334033 -0.73475865686569
 1  13.33009856685669 -0.84462982008201 -2.12172490349035
 1 -13.29037424642464  2.01491655175518 -1.06688943194319
 1 -12.20738671167117  2.81262628272827  0.00370140614061
 1  10.83840652965297 -2.09890831983198  2.92404710071007
 1  9.46596492349235 -0.88910870987099  2.54977173217322
 1  11.09062280428043 -0.30241910901090  2.81272465846585
 1  10.57885414841484 -3.06604137813781 -0.35403208620862
 1  10.45642464536454 -3.53175181818182  0.99929936993699
 1  9.16498381538154 -2.54004531253125  0.66516323732373
 1 -11.56422810881088 -0.30777327122712  2.34552484948495
 1 -10.82584542354235 -1.75201774567457  1.97097088108811
 1 -12.41838273127313 -1.87619503940394  2.67736831683168
 1 -13.40141059005900 -3.00194889078908  0.82017014801480
 1 -11.90490572557256 -3.17922451135113 -0.25871297329733
 1 -13.14889274827483 -2.38000719261926 -1.10452319431943
 1  8.85165706870687 -0.28446285728573  0.36686380738074
 1 -9.97155192019202 -2.21807887178718 -0.90587438943894
 1  10.54727601960196  1.27257192719272 -2.06854891389139
 1  12.00814664366437  1.90667161006101 -1.82795840384038
 1  12.29741141114111  0.62051290619062 -2.99196188518852
 1 -11.14666906790679  2.40900646474647 -2.52619334033403
 1 -9.97354333233323  0.98192221132113 -2.32807877487749
 1 -9.85247943194319  2.24622727682768 -1.25185834183418
 1  14.76387551555156 -3.37858318541854 -0.43584530453045
 1 -15.01638633163316  1.61177847794780  1.86356745274527
 1  10.28127404640464  2.71027793579358 -0.08053122812281
 1 -8.69962469846985  0.48548314941494  0.11160053405341
 1  9.03621130813081  4.32529591159116  0.47325316631663
 1  7.37424381138114  4.35064992599260 -0.22417876387639
 1  7.37160642064206  4.01513258125813  1.44430126812681
 1 -7.70198299229923 -3.43257791569157 -0.10285557455746
 1 -8.63060743174317 -2.83743374627463 -1.64007589658966
 1 -6.80258603060306 -3.14038857875788 -1.70340577457746
 1  6.92646850185019  0.70900411541154 -0.11460933593359
 1 -6.65198217421742  0.54999249434944 -0.14371949694969
 1  5.56393409840984  3.23997966996700  0.56655316431643
 1 -4.95511598259826 -2.10448812681268 -0.99563571357136
 1  4.81112430543054  0.33637838383838 -0.45009707770777
 1 -3.97425882988299  0.67635700770077  0.22390367136714
 1  3.54668029602960  3.70152204220422  1.34025726672667
 1  1.63345160616062  3.23529451145115  0.99435403740374
 1  3.04931031103110  3.90915754075408 -0.28977203520352
 1 -2.73887500250025 -3.14361665366537 -0.40526819181918
 1 -2.68184689768977 -2.34649171117112 -2.00901964396440
 1 -1.17376776177618 -2.35981353135313 -0.89934847784778
 1  2.73807517051705 -0.06077935893589 -0.44872108410841
 1 -1.79178380138014  1.12288053205321 -0.02614652165217
 1  0.28391869086909  1.92183761076108  0.18707071707171
 1  0.18730051505151 -1.24459462346235 -0.02269394339434

