%nproc=4
%Mem=2GB
# td=(NStates=1) CAM-B3LYP/6-31G(d,p) 

TD

0 1
 8  14.69352487748775 -2.34175710881088 -0.56008293129313
 8 -15.03137820182018  1.60876618171817  0.49638916991699
 6  11.30017236323632 -1.38623117521752  0.90223638463846
 6 -12.40078524252425 -1.08299991789179  0.50287393139314
 6  12.78658222422242 -1.75854515061506  0.96348124012401
 6 -13.74090080908091 -0.31023904380438  0.56311912391239
 6  13.31478951795180 -1.98841116321632 -0.50763430843084
 6 -13.72438173117312  1.19421808290829  0.67042829382938
 6  10.94497382438244 -0.30055768276828 -0.14163745674567
 6 -11.34493085708571 -0.25129613651365 -0.29184686068607
 6  13.26980747174717 -0.63301178627863 -1.24658741274127
 6 -12.76547898589859  1.73453646074607 -0.52548190119012
 6  11.83153902290229  0.07960834373437 -1.07659030203020
 6 -11.55789638463846  0.95789241834183 -0.67328932493249
 6  10.88970001100110 -0.98013345434543  2.30721410541054
 6  10.49018963896390 -2.67133490149015  0.57428081808181
 6 -11.87780958695870 -1.17335702760276  1.92915904690469
 6 -12.63066956195619 -2.49057027892789 -0.09217795579558
 6  9.72077731873187  0.36100505350535  0.08922288228823
 6 -10.02221779377938 -0.86549929182918 -0.30564184918492
 6  11.62580846084608  1.19916509040904 -2.06910890089009
 6 -10.56515480348035  1.73190266736674 -1.51948883888389
 6  9.38377228222822  1.67714395739574 -0.01390475047505
 6 -8.77110850785079 -0.34557650655065 -0.44048915091509
 6  8.08016712171217  2.15464144714471  0.11245202020202
 6 -7.55306334033403 -1.22146047394739 -0.48491466046605
 6  8.08968075207521  3.59539839483948  0.46814099809981
 6 -7.64953325032503 -2.68283786068607 -0.76776546154615
 6  6.85088505950595  1.42891183218322  0.13145066006601
 6 -6.34390708770877 -0.49450771267127 -0.20764968996900
 6  5.67321803580358  1.97626186418642  0.44675164416442
 6 -5.05909445544554 -0.95802287518752 -0.39184606260626
 6  4.47024581058106  1.21066726072607  0.28566648164816
 6 -3.93938523552355 -0.17841006500650 -0.22679549454945
 6  3.18272576357636  1.62419681068107  0.44376849284928
 6 -2.56731218721872 -0.57573765276528 -0.29808816381638
 6  2.94204577157716  3.02883057505751  0.80568822682268
 6 -2.28983775177518 -2.07663115511551 -0.65398662466247
 6  2.03909299829983  0.82322438643864  0.09493881388139
 6 -1.55173713371337  0.36526441544154 -0.04928887988799
 6  0.67423425242524  1.04896771077108  0.34022535053505
 6 -0.26172604260426  0.13244564456446 -0.05302627262726
 1  13.47640622062206 -0.89101251135114  1.43800948994900
 1  12.81085458445845 -2.83448666276628  1.46331401540154
 1 -14.56607958095810 -0.49763720562056  1.39639056005601
 1 -14.28267176217622 -0.63851172307231 -0.45458731473147
 1  12.77678868586859 -2.66608591569157 -1.03287384538454
 1 -13.37730816281628  1.32275625772577  1.70562829682968
 1  14.05668025502550  0.20715329322932 -0.89899508050805
 1  13.41121667866787 -0.64181953905391 -2.17255998699870
 1 -13.43325853485348  1.61121618171817 -1.46665940894089
 1 -12.67054302730273  2.89308432853285 -0.52253121712171
 1  11.10292298129813 -1.71900032903290  3.01856655265527
 1  9.84904323132313 -0.88208800780078  2.36586334133413
 1  11.44796853885389 -0.17912677977798  2.59348273427343
 1  10.75483174617462 -2.82422719671967 -0.56722340534053
 1  10.91451045394539 -3.57554619761976  1.11280072007201
 1  9.49626694369437 -2.45408671667167  0.66222294329433
 1 -11.81156284228423 -0.24633712761276  2.50689098609861
 1 -10.96524936393639 -1.39329187308731  1.95648943294329
 1 -12.39464035703570 -2.12272969286929  2.47745832583258
 1 -13.50346079507951 -3.10939963586359  0.27204533553355
 1 -11.76312154715472 -3.29708629752975  0.08792169016902
 1 -12.36007386638664 -2.31484067596760 -1.29450219221922
 1  8.86045794879488 -0.23166757775778  0.43087020802080
 1 -10.16743150815081 -1.90701776567657 -0.82610641264126
 1  10.60517180918092  1.43820849084908 -2.34046610561056
 1  12.15513134213421  1.95461640454045 -1.79364497249725
 1  12.18988065806581  0.90686154105411 -2.94416710571057
 1 -11.16147054805480  2.13834939903990 -2.19992071307131
 1 -9.81764774277428  1.13179719881988 -2.26949291629163
 1 -10.02444662866287  2.63157581168117 -0.91098425442544
 1  15.07922705070507 -3.05351067816782  0.13171145114511
 1 -15.54605929892989  1.43903120322032  1.18221931793179
 1  10.12778869786979  2.42691959996000 -0.30367354235424
 1 -8.38503323932393  0.74832943404340 -0.11670229622962
 1  8.99433712071207  4.07763114511451  0.55352119311931
 1  7.38790517751775  4.17860272127213 -0.13779012501250
 1  7.65592485248525  3.94926599459946  1.37862470047005
 1 -8.30269306330633 -3.01032569046905 -0.24000928992899
 1 -8.13965833683368 -2.85423542644264 -1.83638552755276
 1 -6.56220199219922 -3.21468600850085 -0.48535396939694
 1  6.81230708570857  0.42300551555156 -0.22854072907291
 1 -6.36102307830783  0.63521101620162 -0.04243936893689
 1  5.70442814781478  2.96528220022002  0.84172068106811
 1 -4.91595206620662 -1.88455613361336 -0.98483463346335
 1  4.61454464746475  0.14245899189919  0.00766869886989
 1 -4.10555195919592  0.72279165116512  0.46466774777478
 1  3.57251287928793  3.03172506250625  1.61299454045405
 1  1.86882514351435  3.09295027702770  0.86015061706171
 1  3.24820020002000  3.70170679567957  0.08093503550355
 1 -2.57012812781278 -2.75445773777378  0.04581691669167
 1 -2.98918763176318 -2.49183624562456 -1.46541528352835
 1 -1.22115250025002 -2.41108865886589 -0.87911645464546
 1  2.23817518051805 -0.27179046004600 -0.24112032403240
 1 -2.11582620562056  1.39999824382438  0.33253934693469
 1  0.31725202420242  2.02309773677368  0.67418942894289
 1  0.23689547454745 -0.83888405240524 -0.59042071607161

