%nproc=4
%Mem=2GB
# td=(NStates=1) CAM-B3LYP/6-31G(d,p) 

TD

0 1
 8  14.93078860386039 -1.96591952505251 -0.12648957195720
 8 -14.92517758175818  1.81158646374637  1.03182271327133
 6  11.35590793679368 -1.49845239733973  0.98517467846785
 6 -12.34266943094309 -0.94229584748475  0.68572221622162
 6  12.72661622762276 -1.61653094919492  1.12730762276228
 6 -13.67355407440744 -0.22842086198620  0.66830964296430
 6  13.42282032103210 -1.78077039913991 -0.19462300730073
 6 -13.57298659165917  1.26307496859686  0.98595984698470
 6  10.94831415841584 -0.23906153315332  0.03010971797180
 6 -11.27923428742874 -0.20750175707571 -0.17253492949295
 6  13.24605509650965 -0.51127961306131 -1.02065481948195
 6 -12.87956039403940  1.88397140424042 -0.22508186118612
 6  11.90279614861486  0.10112049494950 -0.87427007000700
 6 -11.59720031503150  1.08433506260626 -0.63264526052605
 6  10.71187222822282 -1.09638507950795  2.37539092309231
 6  10.61060168016802 -2.69871763976398  0.45332872287229
 6 -11.77087889388939 -1.05625531743174  2.08899503050305
 6 -12.60363685868587 -2.46445766766677  0.15554681668167
 6  9.61629687068707  0.23824277727773  0.01398535853585
 6 -10.03175874787479 -0.97267000890089 -0.47890917591759
 6  11.61975785578558  1.20968614251425 -1.80611260126013
 6 -10.58802709070907  1.77680715781578 -1.49739662966297
 6  9.35960986598660  1.55348159115912  0.08901554155416
 6 -8.86454785178518 -0.48270021892189 -0.41878698069807
 6  8.05737484248425  2.26300228322832  0.28590936593659
 6 -7.60710874487449 -1.12906123402340 -0.54715088408841
 6  7.98575035903590  3.70080893589359  0.64166835083508
 6 -7.76130442744274 -2.64190376727673 -0.91640032503250
 6  6.89016898789879  1.56382532353235  0.03669118411841
 6 -6.43762645964596 -0.46410467236724 -0.47697662266227
 6  5.56964767876788  1.86825106310631  0.06348331733173
 6 -5.11155970197020 -1.03260033293329 -0.69332621062106
 6  4.50232901890189  1.13518971297130 -0.07603968896890
 6 -3.97594889188919 -0.34311653565357 -0.37718053305331
 6  3.11026851785179  1.51888627962796  0.13010712671267
 6 -2.58844430043004 -0.78997907690769 -0.60559891489149
 6  2.82690425742574  2.88919661166117  0.70711836983698
 6 -2.33426219421942 -2.14520801280128 -1.17868909490949
 6  2.16353544254425  0.69794185818582 -0.13089376937694
 6 -1.53716567656766  0.11348923792379 -0.29494344534453
 6  0.76539336833683  0.87690050405040 -0.08348702070207
 6 -0.20330020002000 -0.07876547654765 -0.43332430243024
 1  13.14795337533753 -0.81100451055106  1.83347903690369
 1  13.03563706270627 -2.42681589568957  1.79073675767577
 1 -14.36120909390939 -0.63311075297530  1.40682160316032
 1 -14.26670016501650 -0.42382025392539 -0.28105996199620
 1  12.83812481948195 -2.63233254035404 -0.72436299429943
 1 -12.86233666566657  1.46239022112211  1.82170990499050
 1  13.96698128512851  0.32631520942094 -0.62901808280828
 1  13.58414397139714 -0.62480783788379 -2.09596232723272
 1 -13.57364257325733  1.80121518161816 -1.04378712171217
 1 -12.67990396339634  3.03429844994499 -0.10174913891389
 1  10.86681937093709 -1.80348877787779  3.31259595559556
 1  9.58680700770077 -1.10165996499650  2.17137389238924
 1  11.25437917991799 -0.09961882898290  2.66511989798980
 1  11.04026028902890 -3.02248702270227 -0.47275395839584
 1  10.87539654255425 -3.47721636463646  1.30870031003100
 1  9.42372968996900 -2.59059036703670  0.33231995299530
 1 -11.55157684368437 -0.18988148204820  2.59500979797980
 1 -10.64681752075207 -1.55832837673767  1.88062184618462
 1 -12.36776766976698 -1.60339775967597  2.59179975997600
 1 -13.40658110711071 -2.88316701260126  0.71743987498750
 1 -11.69993522852285 -2.92848943784378  0.25773867186719
 1 -12.90850870987099 -2.23450264216422 -0.86353909590959
 1  8.81055295829583 -0.52657706870687  0.15078219921992
 1 -10.03658842384238 -2.12136920082008 -0.69387318931893
 1  10.62886417841784  1.14343901390139 -2.24819687868787
 1  11.88509433843384  2.18303924682468 -1.31004661266127
 1  12.26988865886589  0.89278013291329 -2.74761745074507
 1 -11.26496089708971  2.24356992109211 -2.27360808180818
 1 -10.17246322432243  1.06713073217322 -2.17556352335234
 1 -9.74830901490149  2.46344899899990 -0.90583373937394
 1  14.94597372537254 -2.84377970507051  0.07458573857386
 1 -15.38426311931193  1.59287658775878  1.88724982098210
 1  10.10303622262226  2.17125403340334 -0.15330850585058
 1 -8.44524926092609  0.56235083618362 -0.38312893889389
 1  8.97251493849385  4.23645702770277  0.45319116011601
 1  7.44917130413041  4.26620148114811 -0.05898224422442
 1  7.49942920292029  3.66624769276928  1.69573641164116
 1 -8.35983877787779 -3.21543620152015 -0.29528481748175
 1 -8.22717708870887 -2.65957596049605 -2.00213210221022
 1 -6.80185595759576 -3.11360590049005 -0.76818225222522
 1  7.01718757375738  0.47836105110511 -0.53648152315232
 1 -6.71107808380838  0.58513600870087 -0.25619074407441
 1  5.54462216721672  2.83899957195720  0.48528503750375
 1 -5.20888135913591 -2.08111578957896 -1.07543369336934
 1  4.59082227522752  0.08345309130913 -0.64531659965997
 1 -3.97642904690469  0.78803817581758 -0.17845656465647
 1  3.04759038703870  2.95315720572057  1.84137737873787
 1  1.82972123312331  2.88646962896290  0.49371397339734
 1  3.32229760976098  3.76384300930093  0.30860780278028
 1 -2.00547166216622 -2.95693798579858  0.02897523252325
 1 -3.60823953695370 -2.47082414441444 -1.76162490449045
 1 -1.18786917191719 -2.22216976697670 -1.97336587958796
 1  2.31656301930193 -0.22801608260826 -0.57628384038404
 1 -1.93780840384038  1.03727197119712  0.12034812781278
 1  0.17576787578758  1.78911433843384  0.29893190319032
 1  0.12030381538154 -1.09423958795880 -1.05537721172117

