%nproc=4
%Mem=2GB
# td=(NStates=1) CAM-B3LYP/6-31G(d,p) 

TD

0 1
 8  14.72527805280528 -2.26916985008501 -0.46159308230823
 8 -14.79173423742374  2.03359866496650  0.54639417041704
 6  11.14554690069007 -1.54971752385239  0.72017817881788
 6 -12.38036320032003 -0.99310092799280  0.54238788278828
 6  12.75192875887589 -1.84863415951595  0.81659655165517
 6 -13.62734945394539 -0.25191321122112  0.55522833483348
 6  13.39087712671267 -1.94191651375138 -0.54319786478648
 6 -13.61439073207321  1.27696635773577  0.63443469446945
 6  11.01336066306631 -0.25173280028003 -0.11839513251325
 6 -11.22113847784778 -0.26645765266527 -0.32654033003300
 6  13.24733522452245 -0.44888337343734 -1.19899265326533
 6 -12.75438787678768  1.76415942304230 -0.53821317431743
 6  11.94443031203120  0.18707909080908 -0.95402804580458
 6 -11.47394798979898  1.00819744884488 -0.74832682868287
 6  10.68027906890689 -1.22878831983198  2.21390477447745
 6  10.22705332533253 -2.76848461646165  0.27652104210421
 6 -11.94931673767377 -1.13315300720072  1.90144627562756
 6 -12.67904439943994 -2.40888211011101  0.04103536553655
 6  9.67002224322432  0.35479443244324  0.04465842584258
 6 -10.01352692469247 -0.99614235613561 -0.41841312631263
 6  11.82278815881588  1.47133230713071 -1.80459244924492
 6 -10.47349563756375  1.69616909400940 -1.74505139513951
 6  9.38199210421042  1.65324156715672  0.01668830883088
 6 -8.72527392439244 -0.56008795769577 -0.25550065206521
 6  8.01359046404640  2.25510149314931  0.19146992199220
 6 -7.55376341034103 -1.37143547144714 -0.41662783178318
 6  7.86217800180018  3.65730458545855  0.51780596459646
 6 -7.62686098309831 -2.83883346024602 -0.75208389338934
 6  6.84227419841984  1.50100904190419  0.08712622762276
 6 -6.37973067006701 -0.67229549144914 -0.31389031403140
 6  5.65301601560156  1.95365960396040  0.44474144314431
 6 -5.07402594859486 -1.19547662056206 -0.38596547454745
 6  4.44847363336334  1.21165735973597  0.28574648964896
 6 -3.93885518251825 -0.29679190319032 -0.27387020202020
 6  3.09982747374737  1.83837822882288  0.38673278927893
 6 -2.59952540854085 -0.76288636763676 -0.18051640664066
 6  2.89235080208021  3.26260395239524  0.63843150115012
 6 -2.27827659565957 -2.25125861786179 -0.55137636363636
 6  2.06225531453145  0.92224428842884  0.05425474547455
 6 -1.63019497949795  0.15922381138114  0.10825687468747
 6  0.68104493349335  1.05707852185219  0.31267259525953
 6 -0.21894176417642  0.06857925792579 -0.00677164716472
 1  13.15423400340034 -0.87537094719472  1.17437312631263
 1  12.86791029002900 -2.77367058115812  1.40115779977998
 1 -14.44913788678868 -0.60823826572657  1.23376429742974
 1 -14.24952844784479 -0.45623349524953 -0.29568142414241
 1  12.69777078407841 -2.71809111621162 -1.26499705770577
 1 -12.78400883288329  1.57820180228023  1.48897663166317
 1  14.04425901290129  0.13177575547555 -0.65285046604660
 1  13.44706026302630 -0.53444880198020 -2.27079981098110
 1 -13.24752996199620  1.64379944004400 -1.35269801280128
 1 -12.74361033403340  2.89285430553055 -0.29559852385239
 1  10.64163685268527 -2.18202663166317  2.85023971997200
 1  9.56171449844985 -0.89820961996200  2.32541929692969
 1  11.25052879487949 -0.37912677977798  2.71978536453645
 1  10.60335659865987 -3.15951072507251 -0.74451113411341
 1  10.65857486038604 -3.48665730873087  1.15707514751475
 1  9.24134145114511 -2.45500680868087  0.28382510351035
 1 -11.89352103810381 -0.26443893779378  2.51645194219422
 1 -10.95667850685069 -1.77650019391939  2.05029881388139
 1 -12.76170706370637 -1.96451387128713  2.54916549654966
 1 -13.39301975097510 -2.82712140804080  0.55318344934493
 1 -11.81044627962796 -3.09631622052205  0.18236113411341
 1 -12.85103296229623 -2.34039323122312 -1.02534527652765
 1  8.92471437443744 -0.61637604860486  0.23609073007301
 1 -9.96383114811481 -2.05097216111611 -0.42274607660766
 1  10.72090338233823  1.55257992799280 -2.17974003300330
 1  12.23793962296230  2.33188413131313 -1.40275588358836
 1  12.59214088408841  1.26953780868087 -2.65485817481748
 1 -10.99649405040504  2.48928449254925 -2.35615633663366
 1 -9.83385936393639  1.16012003110311 -2.10233620062006
 1 -9.75727991199120  2.37587024112411 -1.05213836983698
 1  14.81954108210821 -3.36389171627163 -0.28750047004700
 1 -15.33931862486249  1.64648194829483  1.22478357435744
 1  10.05910182918292  2.31506841484148  0.19459628462846
 1 -8.47937267326733  0.52963756485649 -0.16519714571457
 1  8.73097078407841  4.17987136913691  0.40283612461246
 1  7.17216360336034  4.01622648364836  0.01108476247625
 1  7.39496875687569  3.86860792879288  1.57667450545055
 1 -8.51702449644965 -3.21273593149315 -0.10382567156716
 1 -7.89719409040904 -3.10614061696170 -1.96781867086709
 1 -6.47685345734573 -3.39131367126713 -0.40884631863186
 1  7.08173402840284  0.52550576557656 -0.06179405440544
 1 -6.46429340534053  0.35130262536254 -0.24513963896390
 1  5.56048375337534  2.96352202420242  1.00697720672067
 1 -4.99383985498550 -2.12421009900990 -0.83459960996100
 1  4.66657985098510  0.23128787478748 -0.23059512751275
 1 -4.03833523752375  0.81954132613261  0.09646092709271
 1  3.36357198519852  3.29160105010501  1.67622086308631
 1  1.87778603960396  4.03061404340434  0.40492509450945
 1  3.74352973297330  3.88835546054605  0.09004594659466
 1 -3.18627974297430 -2.81096338833883  0.05166750175018
 1 -2.32905161816182 -2.34019108110811 -1.72779152115211
 1 -1.16917730273027 -2.55949349934993  0.13683514051405
 1  2.34496585958596 -0.23183646464646 -0.03274948694870
 1 -2.03118774177418  1.01434967896790  0.41361745474547
 1  0.47787808680868  1.95492091909191  0.89572158215822
 1  0.26058784378438 -0.85686585058506 -0.48156983098310

