%nproc=4
%Mem=2GB
# td=(NStates=1) CAM-B3LYP/6-31G(d,p) 

TD

0 1
 8  14.66456198119812 -2.28779171227123 -0.44095101810181
 8 -14.74165922992299  2.01748705380538  0.93378290929093
 6  11.34205655165517 -1.34437698979898  1.10379654065407
 6 -12.43222838683868 -1.03322494039404  0.45034867886789
 6  12.75915948194819 -1.82385168126813  0.96572146414641
 6 -13.74744146314631 -0.31159917981798  0.53969678167817
 6  13.27560559955996 -1.89909223132313 -0.40669421442144
 6 -13.61175046804681  1.23867252835284  0.84635588658866
 6  10.97024635163516 -0.26033366036604  0.07993470047005
 6 -11.23319968396840 -0.20323133003300 -0.14829250525052
 6  13.17295778677868 -0.53145163026303 -1.09169192319232
 6 -12.66235867386739  1.85842884998500 -0.22993234623462
 6  11.79989585858586  0.14112449534953 -0.89249189218922
 6 -11.40689128412841  1.07893452255226 -0.52708470447045
 6  10.96272731373137 -0.90529597059706  2.58271165516552
 6  10.41540216021602 -2.49812758075808  0.66368975897590
 6 -11.90801260726073 -1.50826051795180  1.94273040404040
 6 -12.66973346834683 -2.33067428932893 -0.29019775777578
 6  9.66795203620362  0.40834978797880  0.20101406140614
 6 -10.04623019501950 -0.97034977687769 -0.41276256125613
 6  11.47590347034703  1.17309248314832 -2.08667065706571
 6 -10.47150543854385  2.07186666376638 -1.29730662066207
 6  9.36201010601060  1.66783302630263  0.00010665066507
 6 -8.76969836683668 -0.48678062696270 -0.35279038103810
 6  8.00492959795980  2.28940492349235  0.09169994499450
 6 -7.54187222122212 -1.25506383428343 -0.50250641964196
 6  7.94036582058206  3.72207106210621  0.26615079907991
 6 -7.73839213621362 -2.62676225312531 -1.12860154515452
 6  6.85133510451045  1.49544848584858  0.03337085208521
 6 -6.30704340134013 -0.67614587648765 -0.40489941494149
 6  5.52596331033103  2.02934717271727  0.15837280628063
 6 -5.00117866386639 -1.19598667156716 -0.61771864986499
 6  4.37168595459546  1.17755394939494 -0.02140422542254
 6 -3.88527982498250 -0.40656288028803 -0.26759957495750
 6  3.09873736473647  1.63978836983698  0.19070318631863
 6 -2.51212666866687 -0.85030510951095 -0.29947830283028
 6  2.79838140514051  3.10142783478348  0.44542220022002
 6 -2.22170093809381 -2.16473996599660 -0.91566279227923
 6  2.12457154615462  0.64974703870387  0.07249656965697
 6 -1.54982694269427  0.14272216121612  0.06364241324132
 6  0.75461229022902  0.84013682768277  0.20900222822282
 6 -0.16309617961796 -0.15929352935294  0.04300333033303
 1  13.44030261026103 -1.02042545264526  1.34117980698070
 1  13.01061456045605 -2.70062327642764  1.46493417741774
 1 -14.45270824382438 -0.82656009790979  1.11229215021502
 1 -14.28489198419842 -0.32144001590159 -0.46616847284729
 1  12.46582758975897 -2.46939624672467 -1.08708926692669
 1 -13.13463389538954  1.38575255735574  1.88968670267027
 1  13.91056564356436  0.01773435133513 -0.50069525052505
 1  13.36435199219922 -0.61797715481548 -2.17687041804180
 1 -13.06148135713571  1.81098615871587 -1.30326306930693
 1 -12.53431940494049  3.08762378247825 -0.15222418641864
 1  11.27983067206721 -1.84448287728773  3.14679937593759
 1  10.05543387038704 -0.48264806380638  2.80843759875988
 1  11.55231897389739 -0.13975284238424  2.77924131013101
 1  10.44747101010101 -2.75832060606061 -0.49022570557056
 1  10.33827283018302 -3.26789543254325  1.47108654865487
 1  9.24555187218722 -2.31532284028403  0.67468418941894
 1 -11.55252693869387 -0.67702019591959  2.52558285528553
 1 -11.21497433643364 -2.36762930683068  1.83823760776078
 1 -12.73796468946895 -2.01904932483248  2.44717529752975
 1 -13.45136558555856 -2.91057975387539  0.12005013601360
 1 -11.90874610961096 -2.94664125302530 -0.58443554555456
 1 -13.16816467546755 -1.95300449234924 -1.26123886588659
 1  8.75155705870587 -0.20420483148315  0.52667978897890
 1 -10.33113787878788 -1.90870793469347 -0.84494829682968
 1  10.43417470947095  1.21968663866387 -2.31038309730973
 1  11.64221005000500  2.19575051795180 -1.60594620262026
 1  12.19276094609461  0.93879473437344 -2.89387207620762
 1 -11.11297569856986  2.51664722882288 -2.08693941494149
 1 -9.97776375437544  1.43600761986199 -2.02831879887989
 1 -9.84810899489949  2.56882953705371 -0.49352250825082
 1  14.81270039803981 -3.13046837393739  0.21920020002000
 1 -15.15453014601460  1.51653895399540  1.70055115111511
 1  10.11456737573758  2.40004691269127 -0.04245742074207
 1 -8.34209894589459  0.51492609370937  0.04504387838784
 1  8.95669335633563  4.05999938193819  0.43441928292829
 1  7.42671905890589  4.29156401740174 -0.57776412241224
 1  7.40358961896190  3.86792786078608  1.26286312431243
 1 -8.60629342334233 -3.10537519541954 -0.59921521052105
 1 -8.17853222422242 -2.46531653455346 -2.22575446444644
 1 -6.76444221622162 -3.27489202910291 -1.25186062006201
 1  7.12248810381038  0.33391660666067 -0.15576345134513
 1 -6.34116109210921  0.31069856495650 -0.01996712171217
 1  5.55787349234924  3.09129480148015  0.41147765676568
 1 -4.92265273627363 -2.12721039903990 -1.19286543654365
 1  4.32114530753075  0.04686943294329 -0.19656172417242
 1 -3.99575097909791  0.60135950795080  0.21485276627663
 1  3.66529215721572  3.62916480648065  1.25502874387439
 1  1.69557781878188  2.95909689168917  0.66050065206521
 1  2.98424380438044  3.64805143014301 -0.68058111611161
 1 -2.52080319531953 -2.96750904290429 -0.08565623062306
 1 -3.03000171317132 -2.42149921192119 -1.80269901190119
 1 -1.12104248924893 -2.44818236823682 -1.40587913091309
 1  2.62934429742974 -0.20893417441744 -0.20423663566357
 1 -2.14380900390039  1.04605284928493  0.40006609960996
 1  0.24832513151315  1.89687511451145  0.62118412841284
 1 -0.04750296529653 -1.08101826582658 -0.09969164316432

