%nproc=4
%Mem=2GB
# td=(NStates=1) CAM-B3LYP/6-31G(d,p) 

TD

0 1
 8  14.77730325532553 -2.11358429152915 -0.04862178517852
 8 -14.75544060806081  1.89916522162216  0.92694222522252
 6  11.11093343934393 -1.46124867696770  0.86163232423242
 6 -12.36471163516352 -1.06978859675968  0.68557220122012
 6  12.57134070007001 -1.91112040814081  1.13002789478948
 6 -13.66890360936094 -0.30368838873887  0.56798961096110
 6  13.47261530053005 -1.94115643774377 -0.16282982798280
 6 -13.56323561656166  1.21090975207521  0.89309056005601
 6  10.91121044804481 -0.25750337733773  0.00683739073907
 6 -11.30447681168117 -0.21569257615762  0.08484080808081
 6  13.29817030803080 -0.50635912101210 -0.81476423042304
 6 -12.78696113411341  1.79270227732773 -0.28998835183518
 6  11.89979584858486  0.09004938783878 -0.86018866186619
 6 -11.43993458845885  0.99214584368437 -0.51399339533953
 6  10.59387042804280 -1.21507694869487  2.32298568256826
 6  10.30457107710771 -2.65569333733373  0.24455784578458
 6 -11.89444125012501 -1.14506419831983  2.17088321932193
 6 -12.70014650965097 -2.50593181508151  0.05877713971397
 6  9.61339658065807  0.27245619861986  0.09545350535054
 6 -10.08891446344635 -1.01970471237124 -0.09250053505351
 6  11.76120200020002  1.33672884678468 -1.69906189618962
 6 -10.59670795879588  1.70669014611461 -1.45314220422042
 6  9.33710761576158  1.66161240424042  0.19202584258426
 6 -8.76064746174617 -0.45262721162116 -0.32784788678868
 6  8.13842294729473  2.25030101310131  0.18026880188019
 6 -7.55823385738574 -1.14680300820082 -0.55221139013901
 6  8.02195397939794  3.73451230623062  0.59286347034703
 6 -7.74981327832783 -2.58282785968597 -0.90842952795280
 6  6.88981895289529  1.53063200420042 -0.07371985698570
 6 -6.34229692669267 -0.49216747864786 -0.41138006300630
 6  5.57183789778978  2.14054829282928  0.04554152315232
 6 -5.06148469446945 -1.03116018891889 -0.67892477047705
 6  4.44392317831783  1.34699089308931 -0.17532961796180
 6 -3.89619091609161 -0.32868509250925 -0.44562737773777
 6  3.12776026702670  1.68293268426843  0.13405752175218
 6 -2.51551700770077 -0.74899497849785 -0.68335669066907
 6  2.83091465846585  3.15462315431543  0.52055971397140
 6 -2.31673044104410 -2.22224571657166 -1.16008723472347
 6  2.25340442944294  0.70993305730573 -0.17602828282828
 6 -1.52293425342534  0.16737462646265 -0.37491144214421
 6  0.82236906590659  0.86627944194419 -0.09631830383038
 6 -0.09237910791079 -0.05357295729573 -0.49327029702970
 1  13.04842342234223 -1.22043545364536  1.75041073007301
 1  12.38670216921692 -2.84617783188319  1.62506019001900
 1 -14.49141211421142 -0.95569301120112  1.02214313531353
 1 -14.39889338433843 -0.43670154205421 -0.27261911791179
 1  12.93071407840784 -2.57511681878188 -0.88198875687569
 1 -12.99794022602260  1.33159714181418  1.78473620762076
 1  13.81068565556556  0.19872245014501 -0.16463164416442
 1  13.54753031003100 -0.47496285338534 -1.90005273627363
 1 -13.52915812481248  1.78927398749875 -0.88715145814581
 1 -12.42469844284429  2.82571759185919  0.26677771377138
 1  10.97940062906291 -2.03160158915892  3.03175787178718
 1  9.34739306630663 -1.33699349834983  2.52940969596960
 1  10.95647938993899 -0.18974784188419  2.60131351735173
 1  10.77513377637764 -3.07944271827183 -0.64308099109911
 1  10.41620062296230 -3.52203084608461  0.89020846084608
 1  9.24739205620562 -2.52239354735474 -0.03410668966897
 1 -11.96534822082208 -0.20608310221022  2.73315361236124
 1 -10.75216805580558 -1.40918346224622  1.97788157215722
 1 -12.50749164216422 -1.82596001590159  2.51706228622862
 1 -13.50736118511851 -3.05727442334233  0.54809294029403
 1 -11.82747798279828 -3.24305089398940  0.18122102010201
 1 -12.78793665266527 -2.41011020292029 -0.97783052505251
 1  8.70014191719172 -0.40768517951795  0.29306642764276
 1 -10.01183594859486 -2.13941100500050 -0.03661746374637
 1  10.70088138013801  1.51896656665667 -1.82187424642464
 1  12.13478930793079  2.27652859575958 -1.15385099309931
 1  12.35880755075507  1.15676653155315 -2.69458214721472
 1 -11.41032543354335  2.08715427952795 -2.21694241524152
 1 -10.07418339633963  0.99978399749975 -2.09753572057206
 1 -9.96900108410841  2.54736739083908 -1.16029918591859
 1  15.07470659865987 -2.98905423252325  0.35608388838884
 1 -15.22485717871787  1.71880918101810  1.68379947594759
 1  10.28287420642064  2.22301920992099  0.19245607060706
 1 -8.46072080808081  0.68228282938294 -0.29025965196520
 1  8.88046573357336  4.22541592359236  0.49010485148515
 1  7.10813720072007  4.22726758775878  0.08712236623662
 1  7.80132939293929  3.73643471147115  1.71463830183018
 1 -8.25665845984599 -3.06889154705471 -0.14996028502850
 1 -8.55958032903290 -2.65687569046905 -1.74126601560156
 1 -6.76059183118312 -2.98706324622462 -1.24986042004200
 1  6.95636149114911  0.49447266226623 -0.32397027202720
 1 -6.43511048704870  0.45620311541154 -0.35559068406841
 1  5.47735544054405  3.10496616861686  0.31182769176918
 1 -4.87308777977798 -2.18667634563456 -0.89529567956796
 1  4.53169636263626  0.20861560756076 -0.31533360136014
 1 -4.10167157115712  0.67454682668267 -0.23185190419042
 1  3.20546617461746  3.47367925792579  1.46236947794779
 1  1.86463472447245  3.17465844784478  0.85590019201920
 1  3.05700108010801  4.00473709870987 -0.08378143614361
 1 -2.71833294829483 -3.03939623162316 -0.53371103610361
 1 -2.55301401440144 -2.40066712871287 -2.22352109410941
 1 -1.33855424042404 -2.46321387138714 -1.13603214621462
 1  2.53499486248625 -0.29300258125813 -0.45037124912491
 1 -1.90304492749275  1.16388463246325  0.23064915791579
 1  0.42762306130613  1.89942536953695 -0.00562855285529
 1  0.23743552855285 -1.07187735173517 -0.61004267826783

