%nproc=4
%Mem=2GB
# td=(NStates=1) CAM-B3LYP/6-31G(d,p) 

TD

0 1
 8  14.82850837583758 -2.14034696779678 -0.34047097009701
 8 -14.59939500350035  2.20701600670067  0.99930946194619
 6  11.31079342534253 -1.25960851295130  0.97834399539954
 6 -12.42468763276328 -0.93197481538154  0.49060270427043
 6  12.79524309030903 -1.66230552665267  0.96287117911791
 6 -13.80353707270727 -0.05805382528253  0.66293910591059
 6  13.39256729572957 -1.79544186628663 -0.40338388338834
 6 -13.35703499649965  1.43665232633263  0.86303755475548
 6  11.15199452645265 -0.11214884188419  0.02360906790679
 6 -11.29680604460446 -0.12789379627963 -0.20890856685669
 6  13.27688817981798 -0.38972745784578 -1.10118287228723
 6 -12.61142358035804  1.93342634973497 -0.32723207620762
 6  11.94523039203921  0.18952933583358 -0.96424906790679
 6 -11.45611620662066  1.10700732983298 -0.63412540854085
 6  10.88080912191219 -0.83200864186419  2.42314569856986
 6  10.54603522352235 -2.58541630963096  0.48494188418842
 6 -11.99431123712371 -1.49494918681868  1.82521865286529
 6 -12.94274076907691 -2.23584480638064 -0.25840457845785
 6  9.71197643864386  0.39258821182118  0.15175913591359
 6 -10.08955452745275 -0.99639238113811 -0.45707699269927
 6  11.69394527452745  1.23841901580158 -2.00649263926393
 6 -10.52662095009501  1.87698717581758 -1.49994688468847
 6  9.39273317831783  1.69542578557856  0.01304794479448
 6 -8.78237963496350 -0.63941589048905 -0.27833293529353
 6  8.02180128512851  2.21936791979198  0.13893466846685
 6 -7.59052708670867 -1.27415574347435 -0.52889905890589
 6  7.86950873487349  3.64759361436144  0.59499368336834
 6 -7.81070936793679 -2.72860243714371 -0.98246693169317
 6  6.91072104310431  1.45908484948495  0.01812932793279
 6 -6.37645034203420 -0.62832109400940 -0.33542246724672
 6  5.57222793679368  1.96406064406441  0.22866983598360
 6 -5.11768031403140 -1.23907097999800 -0.52478935693569
 6  4.40914970097010  1.10182637663766  0.03300121512151
 6 -3.96191748874887 -0.51887411141114 -0.27880069506951
 6  3.05141263226323  1.51500589158916  0.30058417441744
 6 -2.65836129212921 -0.96495657465747 -0.39415777077708
 6  2.83149471647165  3.04064175617562  0.61799945794579
 6 -2.39514828282828 -2.45921941394139 -0.79197042304230
 6  2.03401249024902  0.55654771877188 -0.01801248124812
 6 -1.60592255225523 -0.15396750775077 -0.03665761676168
 6  0.65484231323132  0.73952676667667  0.08140946894689
 6 -0.27381725172517 -0.24670227022702 -0.15726669666967
 1  13.28010659065907 -0.80346375647565  1.43475916491649
 1  12.90364386338634 -2.62805601970197  1.52033971797180
 1 -14.61555452845285 -0.43101054295430  1.20906182718272
 1 -14.20482397739774  0.18505063316332 -0.49658151415142
 1  12.67968897589759 -2.43097240434043 -0.92538309630963
 1 -12.79268970097010  1.61164514661466  1.81547928192819
 1  14.02293688068807  0.25928850675068 -0.50353553455346
 1  13.47177273427343 -0.51638699579958 -2.09530226122612
 1 -13.34822003100310  2.21338639873987 -1.14186692969297
 1 -12.48146411941194  3.04985000510051 -0.00049901390139
 1  11.22293498249825 -1.67661609060906  2.99553424942494
 1  9.88431675867587 -0.80836063506351  2.42235899089909
 1  11.27268101010101  0.07129826272627  2.53848723472347
 1  10.59291555455546 -2.65771054505451 -0.62122880588059
 1  10.76370537343734 -3.47865650865086  1.17566700670067
 1  9.55737305430543 -2.27034834283428  0.76862358335834
 1 -11.65096678267827 -0.64866736063606  2.57424772177218
 1 -10.90713355235524 -1.92610515441544  1.86118990299030
 1 -12.62643353635363 -2.26802422232223  2.23953453345335
 1 -13.87794824382438 -2.40289898579858  0.16009414041404
 1 -12.36869210421042 -3.20314690359036 -0.20435753775378
 1 -13.04726258525852 -1.97177636953695 -1.31978472047205
 1  8.81154305730573 -0.11076548754875  0.56003312431243
 1 -10.25370013501350 -1.88491555545555 -0.81004480648065
 1  10.80155144714471  1.50902557255726 -2.27748980798080
 1  12.25885171417142  2.06891783468347 -1.77354296229623
 1  12.10211188118812  0.87927878277828 -2.77440012901290
 1 -11.14476887788779  2.27687325142514 -2.23482420342034
 1 -9.95722170017002  1.11793581268127 -1.85302126912691
 1 -10.05777996199620  2.67605025912591 -1.01467462346235
 1  14.93146227422742 -2.85752107920792  0.08167644764476
 1 -15.15084977797780  1.97384468456846  1.67444854085409
 1  10.11780769976998  2.38385529352935 -0.23932710771077
 1 -8.49335407140714  0.30617521862186  0.27110648464846
 1  8.87744543154315  4.20653403540354  0.76724256525653
 1  7.28094448144814  4.23222808380838 -0.09313565956596
 1  7.51779103910391  3.62091315931593  1.76823366136614
 1 -8.50779357335734 -3.20681533943394 -0.44535982498250
 1 -8.01228559955996 -2.77920792369237 -2.13341523052305
 1 -6.79505527752775 -3.49958449834984 -0.91709714371437
 1  6.84597045204521  0.47607082208221 -0.42320019501950
 1 -6.59390636663666  0.45770326542654 -0.16126125112511
 1  5.51764946994699  2.97032270427043  0.58551506050605
 1 -4.96765723672367 -2.23947162516252 -0.99983613361336
 1  4.47980117311731  0.07351209720972 -0.35037710571057
 1 -4.18246965096510  0.53595296729673 -0.11819053805381
 1  3.17475310331033  3.05420731073107  1.54434767576758
 1  1.70987924892489  3.06213719571957  0.51638624062406
 1  3.15086046604660  3.68847547254726 -0.31172423042304
 1 -3.04871598659866 -3.04441673367337 -0.07332499749975
 1 -2.65027374037404 -2.58448551055105 -1.96625536753675
 1 -1.26643702870287 -2.91819936993699 -0.56724526752675
 1  2.55249661266127 -0.26002928392839 -0.34667087908791
 1 -1.79815443844384  0.80504874887489  0.30738683168317
 1  0.23931423042304  1.72267769476948  0.53863587358736
 1  0.17868965396540 -1.05257542154215 -0.74684635863586

