%nproc=4
%Mem=2GB
# td=(NStates=1) CAM-B3LYP/6-31G(d,p) 

TD

0 1
 8  14.77802332733273 -2.20759369246925 -0.31454837783778
 8 -14.78101316531653  1.96240154525453  0.88746827782778
 6  11.25747809380938 -1.40641319341934  0.93596975797580
 6 -12.33508867286729 -0.93926554445445  0.67513115711571
 6  12.77448101410141 -1.70859015511551  0.97259215121512
 6 -13.72860957995800 -0.25277329722972  0.74070688268827
 6  13.39803784278428 -1.82317463956396 -0.30298384338434
 6 -13.49614890789079  1.26897555865587  0.89480073107311
 6  10.97410673767377 -0.16689431643164  0.03210991799180
 6 -11.29310567456746 -0.17457846474647 -0.08996667266727
 6  13.27417790879088 -0.47876636173617 -1.08960171417142
 6 -12.67999043704370  1.79549255635564 -0.19947930093009
 6  11.88684455345535  0.09016939983998 -0.98321096409641
 6 -11.41227182218222  1.08653528262826 -0.57554955095510
 6  10.71728276927693 -1.07101254225423  2.34567795179518
 6  10.43847446744674 -2.70425819381938  0.62221561156116
 6 -11.93601540754075 -1.16288598049805  2.15134126512651
 6 -12.66767326232623 -2.26385760766077  0.04345560756076
 6  9.70780602160216  0.41878083108311  0.24886884688469
 6 -10.03294886688669 -1.04281702360236 -0.39882116711671
 6  11.62074795479548  1.28762393629363 -1.91093308330833
 6 -10.50068835683568  1.79612909000900 -1.54247113711371
 6  9.30597450245025  1.74259050205021  0.24382102210221
 6 -8.73029442644264 -0.50929287818782 -0.34679978197820
 6  7.97784688968897  2.23180916391639  0.32626340134013
 6 -7.57685571957196 -1.24495282318232 -0.68674484348435
 6  7.84708649264927  3.65349420442044  0.72176636063606
 6 -7.74212250925093 -2.60367994489449 -1.38431711671167
 6  6.82209218021802  1.53462240324032  0.02301981698170
 6 -6.43209590659066 -0.67990625252525 -0.39672859785979
 6  5.52349306330633  1.97618185618562  0.08275524452445
 6 -5.07757630363036 -1.24539161206121 -0.61175805380538
 6  4.47593637963796  1.17478367236724 -0.05673775877588
 6 -3.99494079107911 -0.42201442544254 -0.39040185518552
 6  3.19381687268727  1.56701109210921  0.11274539053905
 6 -2.55536099209921 -0.81401148014801 -0.45620397539754
 6  2.79963153015302  3.01955964796480  0.31657931593159
 6 -2.24536330433043 -2.23986747874787 -0.84299552555256
 6  2.13189227822782  0.70158222222222 -0.14962564256426
 6 -1.56253821382138  0.14499238823882 -0.07690164116412
 6  0.69693652265227  0.86023883788379  0.05182651065107
 6 -0.19708957895790 -0.09445704570457 -0.25735670567057
 1  13.46359493949395 -0.88364177427743  1.52004769376938
 1  13.07624112311231 -2.75980919501950  1.49334701870187
 1 -14.40986395939594 -0.67161460336034  1.35490641164116
 1 -14.05083857885788 -0.45501337323732 -0.30324218021802
 1  13.01459246624662 -2.66757606470647 -0.90316087408741
 1 -13.07006743874387  1.47366134823482  1.81663939793979
 1  14.05396998399840  0.16175875377538 -0.57548272927293
 1  13.60312586958696 -0.57935329242924 -2.13870660166017
 1 -13.38199340834083  1.93804886498650 -1.10662340534053
 1 -12.27995396839684  2.86101112121212  0.24443547954795
 1  11.01010369936994 -1.79901833083308  3.15269996599660
 1  9.60585891289129 -0.70857065606561  2.45387214221422
 1  11.17877161916192 -0.10960982808281  2.60241362736274
 1  10.84448071107111 -3.17323209720972 -0.20022670567057
 1  10.62919192209221 -3.42370101310131  1.57680712071207
 1  9.48550586758676 -2.59126043404340  0.72358907990799
 1 -11.80581226722672 -0.22510500440044  2.89829012601260
 1 -11.05090792979298 -1.77971051495150  2.23223700770077
 1 -12.66572746574657 -1.77529494939494  2.54370495049505
 1 -13.37647809680968 -2.76887558345835  0.49891802280228
 1 -11.86801203620362 -3.00377696659666  0.09033193119312
 1 -13.20990884988499 -2.39114830673067 -0.81607434943494
 1  8.73254515751575 -0.13775818681868  0.71988910991099
 1 -10.33055782078208 -2.08790585448545 -0.63316711871187
 1  10.64174546654665  1.36262093209321 -2.13607566656666
 1  11.97622345134513  2.27171811471147 -1.82010761876188
 1  12.14814648464846  1.03184403930393 -2.95511820082008
 1 -11.23801820282028  2.29767533163316 -2.40813153415342
 1 -9.94501047904791  1.04471849094910 -2.10436640364036
 1 -9.76564074807481  2.49259191329133 -1.35994915091509
 1  14.50252938093809 -3.13764909200920 -0.02286400640064
 1 -15.31627632063206  1.44587188728873  1.59605070107011
 1  10.07599351835184  2.32991989999000  0.25547237223722
 1 -8.86099083508351  0.55808040914091  0.07880725472547
 1  8.87744543154315  4.16043942594259  0.82914875587559
 1  7.32676906390639  4.33670853185318 -0.02431877787779
 1  7.25381464146415  3.68891995999600  1.50818765676568
 1 -8.16122891689169 -3.18750340824082 -0.67291258025803
 1 -8.43709808080808 -2.50553055595560 -2.31574346334633
 1 -6.61673744574457 -2.88420296019602 -1.60136557055706
 1  7.08296415141514  0.34155737073707 -0.04035191019102
 1 -6.57539451545155  0.43410090519052  0.15992086708671
 1  5.54692239723972  3.05860153215322  0.31122763176318
 1 -4.84270474147415 -2.14756243424342 -1.05219136913691
 1  4.67671086408641  0.03208795479548 -0.33622569056906
 1 -4.21199260326033  0.58419779177918 -0.05663438243824
 1  3.26030165816582  3.55174706470647  1.24330757175718
 1  1.77957621862186  3.11963294529453  0.66699130113011
 1  3.12072745274527  3.63020964596460 -0.61865492349235
 1 -2.48688980398040 -2.89003129512951 -0.09041670667067
 1 -2.92135084808481 -2.50502756475648 -1.71661040304030
 1 -1.16303668866887 -2.28946649664966 -1.37872641564156
 1  2.43498486148615 -0.38051133213321 -0.33655986798680
 1 -1.88995361836184  1.14067231123112  0.11729782278228
 1  0.44978527752775  1.85475090209021  0.54038604860486
 1  0.09466125112511 -1.14226439043904 -0.28434010801080

