%nproc=4
%Mem=2GB
# td=(NStates=1) CAM-B3LYP/6-31G(d,p) 

TD

0 1
 8  14.73547907290729 -2.09589252235224 -0.25037196019602
 8 -14.74873993799380  2.01072637773777  1.01967149814982
 6  11.21038338433843 -1.37135968806881  0.99197535853585
 6 -12.33534869886989 -0.97472909080908  0.55781942594259
 6  12.69141270727073 -1.75867516361636  0.96509140114011
 6 -13.67028374737474 -0.23293131303130  0.58651146314631
 6  13.35760379937994 -1.78241056315632 -0.32616616161616
 6 -13.47816710971097  1.29704836593659  1.00098134913491
 6  10.92547187418742 -0.22594022102210 -0.03461675467547
 6 -11.24660102410241 -0.22174318121812 -0.24409208520852
 6  13.24752524352435 -0.41339982508251 -0.93954670867087
 6 -12.64070650865087  1.94595760286029 -0.08053740674067
 6  11.84571044004401  0.14754513741374 -0.94495713871387
 6 -11.49858045304530  1.09580620972097 -0.60528252425243
 6  10.83385442644264 -0.90531597259726  2.46453983798380
 6  10.32287290729073 -2.62749051705171  0.67504089408941
 6 -11.87536934293429 -1.33596328822882  1.91160729172917
 6 -12.52118861386139 -2.32200342224222 -0.18558729672967
 6  9.53293853485349  0.34716366936694  0.19228318831883
 6 -9.97822339433943 -0.89779252115212 -0.58905019001900
 6  11.58886476647665  1.11645681958196 -1.92714470447045
 6 -10.59685797379738  1.90242972007201 -1.42140903090309
 6  9.34491839683968  1.62054829782978  0.01806844684468
 6 -8.71167256425643 -0.46525847474747 -0.41993709570957
 6  8.03439254425443  2.24541052405241  0.17165794079408
 6 -7.53324135813581 -1.16969529742974 -0.58427459645965
 6  7.83443522752275  3.75700455545555  0.34379856385639
 6 -7.64889318631863 -2.64144372127213 -1.22390107510751
 6  6.85358532953295  1.57464640564056 -0.08307079207921
 6 -6.30144284128413 -0.58426668856886 -0.38210713571357
 6  5.53706442044204  1.97867210521052  0.11828879787979
 6 -4.97578612461246 -1.14220129302930 -0.53375025302530
 6  4.50678946494649  1.17197339133913  0.06710462546255
 6 -3.93526482348235 -0.45393761776178 -0.27877069206921
 6  3.13425091609161  1.49657404840484  0.16304042004200
 6 -2.66672212821282 -0.89965004400440 -0.25989434443444
 6  2.85116668366837  2.91595928792879  0.62552021002100
 6 -2.29208797679768 -2.32785627762776 -0.81390261626163
 6  2.06985607460746  0.66552861686169 -0.15394607460746
 6 -1.63520548054805  0.03539142814281 -0.07694164516452
 6  0.70028685768577  0.79193200720072 -0.02473114511451
 6 -0.24567443744374 -0.17312491249125 -0.27364833483348
 1  13.07961654165416 -0.95106851695170  1.61255694469447
 1  12.86746024502450 -2.64836805090509  1.55919360336034
 1 -14.21624459745975 -0.76437387928793  1.58330925192519
 1 -14.35790928592859 -0.40714858675868 -0.09341119711971
 1  12.83218422542254 -2.43472277937794 -1.09393995199520
 1 -13.02223265526553  1.13650763286329  2.01937967196720
 1  13.94029861686169  0.30104268216822 -0.36789197019702
 1  13.60453601060106 -0.62879823692369 -2.00079281028103
 1 -13.46183139213921  1.91467652775277 -0.86264900790079
 1 -12.39627560056006  2.95484050415042  0.03286432243224
 1  11.09516220522052 -1.69678810781078  3.17620231623162
 1  9.72523085008501 -0.67338713771377  2.61476823182318
 1  11.15447918991899  0.04093522642264  2.64737812381238
 1  10.66616287928793 -2.99009378337834 -0.36633331633163
 1  10.42954195709571 -3.55419406240624  1.39999943994399
 1  9.27376469346935 -2.44014532253225  0.65878259925993
 1 -11.83202488848885 -0.51727422132213  2.63966426342634
 1 -10.80514335333533 -1.63537608150815  1.78358214221422
 1 -12.55165605860586 -2.12607002690269  2.35092567256726
 1 -13.59963041204120 -2.68544724062406  0.35378350935094
 1 -11.70006524152415 -2.91578816771677 -0.17587468946895
 1 -12.68166602560256 -2.25480467236724 -1.38482122412241
 1  8.64842674567457 -0.41756616761676  0.50065718671867
 1 -10.22706747174717 -1.91569863376338 -0.71846564856486
 1  10.47296858885889  0.89958462846285 -2.14618667766777
 1  12.02031786078608  2.22262320522052 -1.96544215221522
 1  12.13032470247025  0.76860771567157 -2.85034772377238
 1 -10.98009241024102  2.72426799089909 -2.08974969596960
 1 -9.81075705370537  1.33816783588359 -1.99090505750575
 1 -10.21621580558056  2.70415306940694 -0.69346250225023
 1  14.82263139113911 -3.04331965906591 -0.08283000300030
 1 -15.17159185218522  1.42249955005501  1.75485658165817
 1  10.34651057005701  2.22245915391539 -0.01161433643364
 1 -8.52016675267527  0.62676727782778  0.15656503050305
 1  8.77319500650065  4.16990037203720  0.51517735873587
 1  7.34460084708471  4.10314517551755 -0.63612995899590
 1  7.06378563856386  4.09456052405241  1.16844368236824
 1 -7.94152694669467 -3.40009466736674 -0.43704899389939
 1 -8.64889926092609 -2.68428843174317 -1.98590047904790
 1 -6.77617338933893 -3.02515705560556 -1.95623105710571
 1  7.02826868186819  0.53729694469447 -0.10889876487649
 1 -6.30427740374037  0.51520901600160 -0.03223834883488
 1  5.44018172317232  3.03500917291729  0.53901041004100
 1 -4.71960243124312 -2.12687036503650 -0.69736588658866
 1  4.69862305530553  0.14021876787679 -0.39574164216422
 1 -4.17021842584258  0.59167853985399  0.15332661366137
 1  3.79213484148415  3.18660055005501  1.46204944594459
 1  1.65522378337834  2.87427840984098  1.47073167516752
 1  2.90544592459246  3.77627425242524 -0.25425848384838
 1 -3.11196231123112 -3.09097138913891 -0.33115078007801
 1 -2.37683639663966 -2.55310237223722 -1.97855659765977
 1 -1.19591997699770 -2.50552810281028 -0.55147369036904
 1  2.35629699269927 -0.40620390139014 -0.38590480248025
 1 -2.02428705170517  1.16640488448845  0.11805789878988
 1  0.17717801680168  1.79450487748775  0.36854886488649
 1  0.00809259425943 -1.12927309130913 -0.50716239023902

