%nproc=4
%Mem=2GB
# td=(NStates=1) CAM-B3LYP/6-31G(d,p) 

TD

0 1
 8  14.74614013901390 -2.26245917901790 -0.13669059205921
 8 -14.84398946294629  1.76932223732373  0.94046357735774
 6  11.11488383438344 -1.55881843394339  0.99951611261126
 6 -12.38369353335333 -1.02934455235524  0.63174681868187
 6  12.64367793379338 -1.87885718181818  1.05876076807681
 6 -13.68561528052805 -0.23566158605861  0.67343015501550
 6  13.42775081408141 -1.81808413051305 -0.29110265526553
 6 -13.62286157915792  1.27251591269127  0.89340059105911
 6  10.94676400340034 -0.28389601660166  0.04475118211821
 6 -11.29311567556756 -0.19518052495250 -0.11085876187619
 6  13.46697718871887 -0.41528001310131 -0.87718047204721
 6 -12.70858329632963  1.86632964006401 -0.18033738673867
 6  12.04657052605261  0.21131151405140 -0.80647329032903
 6 -11.46306690169017  1.04905153425343 -0.53384538053805
 6  10.68792983398340 -1.20459590059006  2.35858924292429
 6  10.21195181518152 -2.69160692869287  0.43888727872787
 6 -12.04596640264026 -1.32902259415942  2.12309844084408
 6 -12.59701619661966 -2.38618984088409 -0.13809254725473
 6  9.59954519551955  0.31953090609061  0.14321828182818
 6 -10.06771234323432 -0.96437917981798 -0.36475776077608
 6  11.84722060206021  1.33543871777178 -1.80687267726773
 6 -10.47210549854985  1.86866634373437 -1.37313420342034
 6  9.37982188718872  1.63342958595860  0.16713335333533
 6 -8.76102749974998 -0.44424637353735 -0.39991509350935
 6  8.07588669366937  2.35361134413441  0.22362313731373
 6 -7.51714974897490 -1.22824115201520 -0.52703887288729
 6  8.00490227422742  3.73998285328533  0.63134731873187
 6 -7.71052934993499 -2.61608118501850 -0.95950463546355
 6  6.88897886888689  1.59048798979898 -0.08106059105911
 6 -6.42165486248625 -0.61452971487149 -0.40654957995800
 6  5.67627834183418  2.09470370837084  0.11391836083608
 6 -5.15305385138514 -1.14278135103510 -0.44887176517652
 6  4.52542132813281  1.23555974997500 -0.17427951295130
 6 -3.89104040104010 -0.37189941394139 -0.32193500850085
 6  3.12559005000500  1.68714310531053  0.01506562256226
 6 -2.59394485048505 -0.78106818581858 -0.47197555255526
 6  2.72790435743574  3.05371306330633  0.31953961196120
 6 -2.31917068506851 -2.29454294629463 -0.93119434543454
 6  2.12001109010901  0.78432049604961 -0.26712739273927
 6 -1.62349430943094  0.12475036403640 -0.29141309230923
 6  0.74730155915592  0.96805961996200 -0.30257892989299
 6 -0.20707057705771 -0.01870947094709 -0.48761973197320
 1  13.09264784478448 -1.14730814091409  1.86227191619162
 1  12.85884938393839 -2.84480769486949  1.58671635563556
 1 -14.46283925692569 -0.79422686458646  1.31213213421342
 1 -14.06091958695870 -0.30269814171417 -0.28051990799080
 1  12.90941194819482 -2.38045735283528 -1.01525208320832
 1 -13.10044047604760  1.30643462556256  2.02620035403540
 1  14.24659924692469  0.22560513841384 -0.26161134213421
 1  13.51302685968597 -0.44849020612061 -1.96928965996600
 1 -13.18521373037304  2.02206726682668 -1.13547629062906
 1 -12.35043101610161  2.85775079517952  0.21468250425043
 1  11.07431012001200 -2.25897432643264  2.82744744074407
 1  9.63142146914691 -1.02613241224122  2.54215097009701
 1  11.44230797279728 -0.37110597769777  2.85908929492949
 1  10.46787305030503 -2.92191696569657 -0.57418410141014
 1  10.23645264816482 -3.41373001600160  1.16532597259726
 1  9.10633795079508 -2.56751805980598  0.41607832883288
 1 -11.90650233623362 -0.38744123802380  2.58602889988999
 1 -11.26797963696370 -2.04205674957496  2.26497028102810
 1 -12.94055494849485 -1.52994041394139  2.82710329032903
 1 -13.40312076107611 -2.95002369826983  0.42469060006001
 1 -11.81439667466747 -3.37336392529253  0.03882678067807
 1 -12.72095995499550 -2.46228542044204 -1.08149089108911
 1  8.97219912291229 -0.38402281328133  0.48962608360836
 1 -10.16896166116612 -2.11419848374838 -0.41258506050605
 1  10.79619091109111  1.39990466046605 -2.13831589058906
 1  12.22784861386139  2.44064500740074 -1.49129473747375
 1  12.55849751975197  1.22796365126513 -2.62384507350735
 1 -11.10342474347435  2.55054061816182 -1.89763048404840
 1 -9.96011198919892  1.25989000810081 -2.07289325632563
 1 -9.95478966296630  2.37908056215622 -0.65631878787879
 1  14.96332546054606 -3.11040636773677  0.09896817681768
 1 -15.06346103910391  1.65359265936594  1.91220231623162
 1  10.17037295629563  2.33902081008101  0.02351917691769
 1 -8.64703943994399  0.53992859395940 -0.14724535053505
 1  8.99054674167417  4.14886826882688  0.51407724872487
 1  7.43296968396840  4.41310617161716  0.05074872887289
 1  7.71653091309131  3.76423749174917  1.67178401640164
 1 -8.07574036803680 -3.24443910181018 -0.16961225022502
 1 -8.63345771677168 -2.63073307620762 -1.69099098809881
 1 -6.74193996599660 -3.06740128002800 -1.39635506950695
 1  7.13015887088709  0.52432564756476 -0.42656053105311
 1 -6.38798577457746  0.58269576467647 -0.40095522052205
 1  5.50232793779378  3.06935260726073  0.46740324932493
 1 -5.04078454945495 -2.07405508350835 -0.86751290129013
 1  4.69999319231923  0.13720846684668 -0.31884395239524
 1 -4.12734413841384  0.67269664166417 -0.10282900190019
 1  2.79053468146815  3.17443933393339  1.44037727872787
 1  1.63676193719372  3.27146812881288  0.19703430543054
 1  3.15514089408941  4.08505513051305 -0.21497455545555
 1 -3.00347146214621 -2.89132142414241 -0.26084374937494
 1 -2.50038875187519 -2.50077713971397 -1.90252899489949
 1 -1.39438982398240 -2.61665921592159 -0.60439898289829
 1  2.45589695269527 -0.17455073607361 -0.51545775777578
 1 -1.93977860086009  1.12200044404440  0.02222831583158
 1  0.32024232323232  1.81354678167817  0.24036604660466
 1  0.06324810981098 -1.05963612761276 -0.93443511751175

