%nproc=4
%Mem=2GB
# td=(NStates=1) CAM-B3LYP/6-31G(d,p) 

TD

0 1
 8  14.80507603260326 -2.05301823492349 -0.54942186518652
 8 -14.79624468846885  2.08025333043304  0.64218374937494
 6  11.26473881988199 -1.46775932803280  0.94934109510951
 6 -12.36447161116112 -1.03394501240124  0.65658930293029
 6  12.74468803480348 -1.92369166526653  0.85396028802880
 6 -13.68775549454945 -0.25533355325533  0.51174398639864
 6  13.35750378937894 -1.83029535163516 -0.48993253825383
 6 -13.58474776777678  1.31040970207021  0.81357260826083
 6  11.00621994899490 -0.20858848584858  0.04585129212921
 6 -11.33763012701270 -0.25867687458746 -0.19004668066807
 6  13.30351084208421 -0.35042352745275 -0.98664141814181
 6 -12.71213365136514  1.89940294739474 -0.35653500650065
 6  11.90265613461346  0.22360274317432 -0.84662730573057
 6 -11.53853444844484  1.07252388148815 -0.71376337233723
 6  10.90809185018502 -1.24677011801180  2.40115349934994
 6  10.48012863286329 -2.75797356535654  0.43610700070007
 6 -11.94622642864286 -1.14494418631863  2.04808093909391
 6 -12.65066156115611 -2.34630585248525  0.01612287428743
 6  9.63646888788879  0.32096104910491  0.17785174517452
 6 -10.05015058705871 -1.06473921582158 -0.42543382838284
 6  11.67128300830083  1.32200737463746 -1.85140713071307
 6 -10.61183947194719  1.69680915801580 -1.68219510951095
 6  9.37854175917592  1.60985722872287  0.06912355235524
 6 -8.80285168216822 -0.56617856675668 -0.27067216921692
 6  8.07291639663966  2.26325230823082  0.12158293329333
 6 -7.52242027602760 -1.28144647254725 -0.51949811881188
 6  7.88858064206421  3.72455131013101  0.46369055305531
 6 -7.65086338333833 -2.81790136703670 -0.82836152115211
 6  6.95087505850585  1.43943288428843  0.01754926992699
 6 -6.44404710171017 -0.63636189808981 -0.40257918291829
 6  5.60474118811881  1.90644488248825  0.28844581358136
 6 -5.09016756275628 -1.15157223012301 -0.52954983298330
 6  4.45930471647165  1.18179437343734  0.03707162216222
 6 -3.92944424142414 -0.30940316431643 -0.25107792279228
 6  3.16156364736474  1.59000339133913  0.26628074407441
 6 -2.65426088208821 -0.69950002900290 -0.37407576257626
 6  2.80982254925493  3.02726041804180  0.72910056805681
 6 -2.26014478247825 -2.17312080408041 -0.72771399739974
 6  2.07358644764476  0.77767983198320 -0.06339701970197
 6 -1.58333029302930  0.15138302730273 -0.19708365936594
 6  0.65745257425743  0.92191500550055  0.14533586158616
 6 -0.18964883488349 -0.10822842284228 -0.07569853985399
 1  13.13006158615862 -1.13185659575958  1.44988067706771
 1  12.79458295729573 -2.87029024312431  1.21553923792379
 1 -14.61368434143414 -0.67841528342834  1.20030095109511
 1 -14.16913040804080 -0.24498237013701 -0.47182903890389
 1  12.87829883688369 -2.57086639373937 -1.19521007900790
 1 -13.04329476147615  1.46148013011301  1.61908964296430
 1  13.99875446244624  0.20636321422142 -0.37005218621862
 1  13.69747530453045 -0.30257561466147 -2.06741947294729
 1 -13.38715392439244  1.98724378447845 -1.13414615761576
 1 -12.51466743974397  3.01101612171217  0.06629766576658
 1  11.19506219521952 -2.20360878987899  2.94144884088409
 1  10.03929225622562 -1.07294709370937  2.65141189618962
 1  11.35898964096410 -0.51090995809581  2.96183956995700
 1  10.55401166416642 -3.09877465146515 -0.53184986798680
 1  10.49234823772377 -3.40935957895790  1.18307774777478
 1  9.30441775877588 -2.48679998799880  0.34143086408641
 1 -11.76869855585559 -0.28994148804880  2.50874117111711
 1 -10.87109994899490 -1.49930247414742  2.12693647764777
 1 -12.66323721672167 -1.78916633653365  2.50639121912191
 1 -13.63008345734573 -2.89059775567557  0.42986111711171
 1 -11.86551178617862 -3.10844743364336  0.06503940194019
 1 -12.71776963596360 -2.28492768466847 -0.99817255925593
 1  8.75222712571257 -0.37024143514351  0.57800492149215
 1 -10.26969173417342 -2.13829089298930 -0.64561836383638
 1  10.55783707570757  1.68804347434743 -1.98507056605661
 1  11.98931476047605  2.25611655455546 -1.39475508350835
 1  12.35367703770377  1.29589044394439 -2.74718740774077
 1 -11.24728912991299  2.29890545464546 -2.41563228422842
 1 -9.91889786778678  1.19085310441044 -2.02251821882188
 1 -10.06314049804980  2.67085974007401 -1.13809696569657
 1  15.09706883488349 -3.04489981708171 -0.40291201120112
 1 -15.22374706770677  1.89829712981298  1.45418651465146
 1  10.01799771877188  2.44607151515152 -0.21727490249025
 1 -8.62977771377138  0.37550215131513  0.06824619861986
 1  8.79991767876788  4.33242662466247  0.74718055905591
 1  7.41389777677768  4.34231909290929 -0.34988133413341
 1  7.07462672267227  3.82574364236424  1.21844868286829
 1 -8.16018881288129 -3.12607726562656 -0.00459574857486
 1 -8.22531690269027 -3.09314931783178 -1.75676756575658
 1 -6.68099387138714 -3.24823936383638 -1.04772020602060
 1  7.21523737873787  0.32901611661166 -0.21715959095910
 1 -6.64670164616462  0.42733022812281 -0.00408553355336
 1  5.29598730373037  2.91861753375338  0.75577208620862
 1 -4.94517498849885 -2.24060173817382 -0.85595174517452
 1  4.50007320032003  0.09165391139114 -0.25473754175418
 1 -4.25465686968697  0.69901927392739  0.06938821982198
 1  3.10210583858386  3.30054194419442  1.86342958395840
 1  1.71283954495450  3.20187116911691  0.64996959895990
 1  3.41507688768877  3.74521114611461  0.21097803980398
 1 -2.80137125212521 -2.71320361236124  0.11432376737674
 1 -2.49868858185819 -2.44116117811781 -1.71481022302230
 1 -1.12149253425343 -2.31668921892189 -0.58550709370937
 1  2.38993035603560 -0.34608788978898 -0.32342855485549
 1 -1.72201682468247  1.21209945394539 -0.10238414541454
 1  0.22179247824782  1.95232065906591  0.23682569256926
 1  0.25587737273727 -1.05982614661466 -0.11874354835484

