%nproc=4
%Mem=2GB
# td=(NStates=1) CAM-B3LYP/6-31G(d,p) 

TD

0 1
 8  14.62222774777478 -2.38791172427243 -0.50622754575458
 8 -14.74462952695269  1.92030733583358  0.78448797979798
 6  11.13549589558956 -1.35042759485949  0.99450561156116
 6 -12.22508767276728 -1.06153777167717  0.58313195719572
 6  12.60827439343934 -1.89092838893889  0.98210310231023
 6 -13.68536525552555 -0.25127314721472  0.56073888588859
 6  13.15202324132413 -2.00892321442144 -0.44061760676068
 6 -13.49383867686769  1.20848951005101  0.74705595659566
 6  10.94932425942594 -0.17041466846685 -0.01360465346535
 6 -11.15760212421242 -0.27326833373337 -0.24907258325833
 6  13.10019051005101 -0.72943142824282 -1.27044979897990
 6 -12.69751218921892  1.72648565566557 -0.46712606560656
 6  11.84527039603960  0.03183356625663 -1.06012865586559
 6 -11.40166076107611  0.97305393449345 -0.75369736573657
 6  10.79876091709171 -0.93433887488749  2.48643202720272
 6  10.14594521452145 -2.51588935693569  0.50857424742474
 6 -11.78932073807381 -1.20647033893389  2.02935906690669
 6 -12.56495299029903 -2.39483070497050 -0.08084682268227
 6  9.59049429042904  0.41859081208121  0.13778773877388
 6 -9.95213078507851 -1.02255499739974 -0.27672895789579
 6  11.53158903890389  1.10440561446145 -2.12598458845885
 6 -10.53095138313831  1.63803328042804 -1.61948883888389
 6  9.23707761276128  1.72954919791979  0.05882252225223
 6 -8.75795719271927 -0.42856480538054 -0.30416551855186
 6  7.98492759775977  2.37513349634963  0.19761053605361
 6 -7.52253028702870 -1.16829515741574 -0.51949811881188
 6  7.92095387938794  3.83021187618762  0.54165834983498
 6 -7.73388168516852 -2.55829540644064 -0.93805249024902
 6  6.86014598559856  1.57208614961496  0.13653116811681
 6 -6.30159285628563 -0.55593385528553 -0.35385431043104
 6  5.55987670167017  2.09516375437544  0.39651662066207
 6 -4.95676422242224 -1.14829190209021 -0.58961583958396
 6  4.51519030503050  1.30591678567857  0.15497341234123
 6 -3.86954825182518 -0.41920414441444 -0.28801161616162
 6  3.07366485748575  1.73245763676368  0.30164428042804
 6 -2.55718117411741 -0.77864794379438 -0.36775513051305
 6  2.86130769776978  3.06822451445144  1.05243290129013
 6 -2.15919468746875 -2.17119061106111 -0.85661688768877
 6  2.10116920592059  0.78370043404340  0.10829014901490
 6 -1.55824778477848  0.08415630463046 -0.13223717471747
 6  0.77821465046505  0.93587640164016  0.21479280728073
 6 -0.19002887288729 -0.01975957595760 -0.25205617561756
 1  13.36488506850685 -1.09477288738874  1.52892858185819
 1  12.53839733873387 -2.81355456955696  1.47365504950495
 1 -14.30061303430343 -0.62453989588959  1.39961088208821
 1 -14.09457295229523 -0.51539941184118 -0.40212206820682
 1  12.75666667366737 -2.92726203330333 -0.85076563456346
 1 -12.91194162616262  1.40935491759176  1.83600133413341
 1  13.88690327732773 -0.10512793489349 -1.10274545554555
 1  13.29457501450145 -1.09044440154015 -2.25036776777678
 1 -13.36027123612361  1.54748980908091 -1.33516625962596
 1 -12.51790776377638  2.96951197129713 -0.47467643164316
 1  11.20966365536554 -1.45716414541454  3.22501719771977
 1  9.74670299729973 -0.88663846284628  2.59792654765477
 1  11.61651539353935 -0.01275014211421  2.70177356335634
 1  10.25288155115512 -2.79906468046805 -0.53097978097810
 1  10.68463746664666 -3.36124476747675  1.05257469746975
 1  9.14359167616762 -2.28973028102810  0.64581130213021
 1 -11.54681636763676 -0.19980247414741  2.63361365836584
 1 -10.85004784378438 -1.79439198309831  2.08804258825883
 1 -12.60341123412341 -1.77736515641564  2.60085066506651
 1 -13.34737518651865 -2.77189588548855  0.46859499049905
 1 -11.62103733873387 -2.85671226012601  0.16837973597360
 1 -12.96095395439544 -2.59391858375838 -1.33016575857586
 1  8.76467837083708 -0.15530994199420  0.50096721772177
 1 -9.94651941694169 -2.05591265516552 -0.51050485248525
 1  10.45009630163016  1.36144081408141 -2.15592765176518
 1  12.32022785178518  2.15169611251125 -2.14231983998400
 1  11.92830450045004  0.44123497839784 -3.04520720972097
 1 -10.96303070407041  2.53079864396440 -2.23797451845184
 1 -9.84495047304730  0.92928694779478 -2.20759672667267
 1 -9.91650583458346  2.35225787988799 -1.12214537053705
 1  14.79523865186519 -3.19226455355536  0.06107438743874
 1 -15.01231592459246  1.59884718481848  1.60643173917392
 1  10.13782970197020  2.37504441244124 -0.35928910391039
 1 -8.69664440044004  0.65927052815282  0.07102647664766
 1  8.91502918991899  4.08876225822582  0.70950679167917
 1  7.53615000200020  4.62946780778078 -0.20801714771477
 1  7.25294455445545  3.85431649964996  1.54116095409541
 1 -7.99261205520552 -3.41973663156316 -0.14021931093109
 1 -8.36638100910091 -2.65761576447645 -1.72726461546155
 1 -6.63286905890589 -2.89045358525853 -1.26411184518452
 1  7.11324717971797  0.47796101110111 -0.32063993899390
 1 -6.32857983398340  0.48342583768377 -0.17556268126813
 1  5.33196090109011  3.04459013101310  0.71047755675568
 1 -4.98010848184819 -2.14804248224822 -0.93073922392239
 1  4.63151634463446  0.29206395239524 -0.36436850485048
 1 -4.08818022202220  0.54964433643364 -0.21111983098310
 1  3.71461708970897  3.24316620662066  2.03942718371837
 1  1.85881414241424  3.15474645664566  1.37114171617162
 1  2.98677405740574  3.89456608160816  0.17933487548755
 1 -2.24083519851985 -2.87243953595360  0.01619395439544
 1 -2.81197991099110 -2.57682474447445 -1.69655839783978
 1 -1.01635202020202 -2.46376392639264 -1.05970451345135
 1  2.32006336933693 -0.07202048304831 -0.47872408440844
 1 -1.98823344634463  1.02554079807981  0.24882097509751
 1  0.39619991899190  1.92188761576158  0.33137514751475
 1  0.32311409640964 -0.80914107810781 -0.52134380838084

