%nproc=4
%Mem=2GB
# td=(NStates=1) CAM-B3LYP/6-31G(d,p) 

TD

0 1
 8  14.57884340934094 -2.22274520762076 -0.14764168716872
 8 -14.72522758675868  1.93969927502750  0.83571310231023
 6  11.15112745874587 -1.51173372547255  0.92004816581658
 6 -12.36634179817982 -0.97178879677968  0.59337298129813
 6  12.61963552955295 -1.82398169426943  0.92663755575558
 6 -13.61501822082208 -0.17864588448845  0.65846865886589
 6  13.27928596759676 -1.93046536863686 -0.44210775577558
 6 -13.44634392739274  1.31319998109811  0.82637388838884
 6  10.88058738573857 -0.31092871987199 -0.03569686268627
 6 -11.29405576957696 -0.26223723062306 -0.18917659365937
 6  13.24383487448745 -0.52077056215622 -1.05731848584858
 6 -12.63015545354535  1.84144715181518 -0.31365071807181
 6  11.87431330033003  0.08886926982698 -0.94474711771177
 6 -11.42534312931293  1.02688931803180 -0.65851784778478
 6  10.74309535053505 -1.18192363336334  2.33632701670167
 6  10.25229584958496 -2.63098086608661  0.40736412641264
 6 -11.76967877387739 -1.38864855675568  1.98623475447545
 6 -12.74237073207321 -2.20241146304630 -0.12538127612761
 6  9.59614485548555  0.33023197619762  0.18689264926493
 6 -10.05924149614962 -1.01697443934393 -0.42506379137914
 6  11.60887676767677  1.15972114601460 -1.87616960696070
 6 -10.31160944894489  1.74233371047105 -1.45777266726673
 6  9.29899380438044  1.71817806080608  0.13558019801980
 6 -8.69195059205921 -0.61180312921292 -0.23898900090009
 6  7.97675678067807  2.31996797979798  0.33716449144915
 6 -7.50701873587359 -1.43148147604760 -0.45337150615061
 6  7.88217000100010  3.73275213021302  0.53105728972897
 6 -7.64212250925092 -2.85617519441944 -0.80593927892789
 6  6.79199917091709  1.53495243624362  0.12208972397240
 6 -6.34593729072907 -0.70115837773777 -0.30847977297730
 6  5.57712842684268  2.05893013101310  0.29004597359736
 6 -4.97537608360836 -1.15589266216622 -0.52425930393039
 6  4.43300208620862  1.35472166616662  0.02134004900490
 6 -3.82097339433943 -0.38301052505251 -0.37604041904190
 6  3.07106459745975  1.79866425742574  0.13404752075208
 6 -2.49973542954295 -0.80546062506251 -0.51302965796580
 6  2.74400596759676  3.18983667566757  0.61754941294129
 6 -2.17262603060306 -2.16503999599960 -0.90859208520852
 6  2.13355244424442  0.83129519351935 -0.13573425342534
 6 -1.57206916691669  0.25588347734773 -0.25835978697870
 6  0.71444827382738  1.04249706370637 -0.11588026002600
 6 -0.20263013301330  0.10741314131413 -0.37849881988199
 1  13.09656823682368 -1.21131454155416  1.68872456145615
 1  12.74466796579658 -2.94086730083008  1.30324800880088
 1 -14.46797977097710 -0.62650009190919  1.39457037803780
 1 -14.10127362236224 -0.29763763566357 -0.21878373437344
 1  12.73284429142914 -2.66345565266527 -1.12432299029903
 1 -13.08562899489949  1.63201718381838  1.74071180518052
 1  13.98902348934893  0.12755533343334 -0.48007318831883
 1  13.62201775877588 -0.49774513161316 -2.11129386038604
 1 -13.24773998299830  1.86107116721672 -1.14733747674767
 1 -12.22898887188719  2.89023404350435 -0.04954391839184
 1  11.27952064106411 -2.09147757675768  2.89428412441244
 1  9.71564989198920 -1.02050184918492  2.70076683168317
 1  11.36531027302730 -0.36396526362636  2.56667005300530
 1  10.67019328232823 -3.09877465146515 -0.49207589058906
 1  9.88266726962696 -3.29361800480048  1.17488692869287
 1  9.25262257925793 -2.00490179817982  0.13439016001600
 1 -11.40556224222422 -0.51526402030203  2.72571286828683
 1 -10.80210304930493 -1.93017556145615  2.05275905990599
 1 -12.56909780278028 -1.84228164806481  2.45843642364236
 1 -13.45852630163016 -2.84172286818682  0.54146227722772
 1 -11.89385462046205 -2.92584917381738 -0.26209331133113
 1 -13.19362722172217 -2.19577876977698 -1.29548229022902
 1  8.90517242024202 -0.39128353935394  0.61710883188319
 1 -10.33303806880688 -2.25257232113211 -0.56335013701370
 1  10.42934422642264  1.41797646764676 -2.09298135713571
 1  12.13421925092509  1.90181112401240 -1.58567417541754
 1  12.18880055005500  1.08252910781078 -2.95870855985598
 1 -10.47356175717572  2.36294185828583 -2.30989171017102
 1 -9.64494047204720  0.80833485258526 -1.66460242724272
 1 -9.66423060706071  2.38975162926293 -0.60278343434343
 1  14.79795892389239 -3.35566089318932 -0.18340006000600
 1 -15.31806649964996  1.30240754085408  1.38905000100010
 1  10.01364728372837  2.58308521652165 -0.05567874287429
 1 -8.53643837983798  0.58142274337434 -0.09638026402640
 1  8.93646133313331  4.30296367836784  0.72832867386739
 1  7.41418780578058  4.16761162216222 -0.45143148914891
 1  7.02588184818482  3.87288835683568  1.27498433643364
 1 -8.13483627762776 -3.35562021992199  0.24169888088809
 1 -8.15149952095210 -2.89800980388039 -1.82401429042904
 1 -6.73969974197420 -3.52768730863086 -1.01791722572257
 1  6.96597245224523  0.38627184218422 -0.15969384438444
 1 -6.42919989598960  0.51445894099410  0.01817669266927
 1  5.44807251225122  3.16857252925293  0.64665117411741
 1 -4.75246571757176 -2.28410608860886 -0.70392654265427
 1  4.45136832983298  0.28197294329433 -0.15979804780478
 1 -4.11162256625663  0.60482985498550 -0.09607832683268
 1  2.82480810881088  3.19915180518052  1.66385962696270
 1  1.71305956695670  3.34438542054205  0.47495209720972
 1  3.35396077607761  3.87457408240824  0.09368631063106
 1 -2.52266338133813 -2.99631192319232 -0.01567923292329
 1 -2.77075578857886 -2.31168823082308 -1.68599734173417
 1 -1.10079046404640 -2.14618216821682 -0.84862340534053
 1  2.28471983498350 -0.30491377237724 -0.21078729072907
 1 -1.87063168616862  1.34213245724572 -0.02280618761876
 1  0.25496579557956  2.11393682068207  0.22393440344034
 1  0.04277606260626 -0.83477364136414 -0.60306198019802

