%nproc=4
%Mem=2GB
# td=(NStates=1) CAM-B3LYP/6-31G(d,p) 

TD

0 1
 8  14.80666619161916 -2.24020695379538 -0.28486540954095
 8 -14.92764782878288  1.76500180528053  0.99857938893889
 6  11.27651999799980 -1.49619217131713  0.99132529352935
 6 -12.38173333733373 -1.02181379927993  0.55212885688569
 6  12.71340490649065 -1.87696699279928  1.06072096409641
 6 -13.69651637063706 -0.38928694859486  0.69427223922392
 6  13.39354739373938 -1.94615693779378 -0.32677622262226
 6 -13.65895518851885  1.09556821792179  0.86739799079908
 6  11.02230155715572 -0.30289791679168  0.10283699069907
 6 -11.33934029802980 -0.19669067596760 -0.22153982998300
 6  13.25155564656466 -0.53708219331933 -0.97415016901690
 6 -12.92127456545654  1.70801380848085 -0.27916726972697
 6  11.94912078107811  0.10344072697270 -0.90485312831283
 6 -11.61702229722972  1.05392202130213 -0.57769976597660
 6  10.74335537653765 -1.10614605560556  2.34065744974497
 6  10.46374699469947 -2.84531229922992  0.51200459045905
 6 -11.83536534253425 -1.27572726462646  2.01789792079208
 6 -12.58379487448745 -2.46387760966097 -0.04504324232423
 6  9.64576981798180  0.25373432643264  0.15872983298330
 6 -10.12265783778378 -0.99029177107711 -0.41592287728773
 6  11.72571845184518  1.19535470937094 -1.93555554555456
 6 -10.66772506050605  1.75390486758676 -1.48998588858886
 6  9.36287019201920  1.58433467646765  0.10474711471147
 6 -8.78784018101810 -0.51440338923892 -0.16503160516052
 6  8.09198830383038  2.21290727372737  0.22344311931193
 6 -7.52638067206721 -1.22747107500750 -0.49524569356936
 6  8.12049383338334  3.68558741374137  0.32167635163516
 6 -7.45126342334233 -2.66267584448445 -0.92217090209021
 6  6.90247021802180  1.51703064406441  0.13032054705471
 6 -6.38770146714671 -0.43095135703570 -0.47400632563256
 6  5.68981969596960  2.08928316631663  0.25383235223522
 6 -5.02445099109911 -0.85788286118612 -0.67520439843984
 6  4.41927071307131  1.34690088408841  0.16150406540654
 6 -3.95684698169817 -0.09399162316232 -0.45552836783678
 6  3.09165665666567  1.74264865586559  0.18890300630063
 6 -2.61845730173017 -0.51108118711871 -0.57505586058606
 6  2.74003557055706  3.09589728172817  0.42311996999700
 6 -2.34849361736174 -2.11382487448745 -0.86683790979098
 6  2.12974206320632  0.80939300330033 -0.14468514851485
 6 -1.56380834083408  0.29834772377238 -0.34842879387939
 6  0.75175200420042  0.99750256425643 -0.13367203920392
 6 -0.23624349434943  0.03269566956696 -0.25983695369537
 1  13.19439801980198 -1.17777118721872  1.84563025202520
 1  12.85688918791879 -2.94459767386739  1.38544622862286
 1 -14.14606757975798 -0.95577301920192  1.55158607960796
 1 -14.29599309430943 -0.43391126302630 -0.21171302730273
 1  12.74746575357536 -2.73557286438644 -0.96058661666167
 1 -12.97534796679668  1.23778776087609  1.87474520852085
 1  13.91014560156016  0.07874045194519 -0.34084926592659
 1  13.61229678667867 -0.61959731683168 -1.99906263726373
 1 -13.77985319431943  1.62848790889089 -1.03165590859086
 1 -12.64041001400140  2.79247426752675 -0.11308027202720
 1  11.03295598459846 -1.74266269526953  3.15714041004100
 1  9.65016334333433 -1.12692249124912  2.47951470647065
 1  11.04065780778078 -0.15143401050105  2.58232161816182
 1  10.62226848984899 -3.12909768376838 -0.49430611361136
 1  10.64139314221422 -3.75910455345535  1.27077651765177
 1  9.40281759875988 -2.61792310031003  0.36339306030603
 1 -11.97140882688269 -0.49355184908491  2.65644594159416
 1 -11.01137397639764 -1.57483002690269  2.10113389738974
 1 -12.34069496249625 -2.11649906980698  2.39553013301330
 1 -13.49001945094509 -2.84496319221922  0.38459659065907
 1 -11.69087432243224 -3.27364395329533  0.14279717771777
 1 -12.54237209620962 -2.39325851775178 -1.20973371537154
 1  8.77100900390039 -0.33899831083108  0.47354447544754
 1 -10.22646741174117 -2.00590765466547 -0.81622542454245
 1  10.67051834383438  1.29412408240824 -2.36441850085008
 1  11.93186901590159  2.14792573547355 -1.32576818481848
 1  12.34253592359236  0.94688554345434 -2.84751744074407
 1 -11.51265566656665  2.13615918001800 -2.18009873087309
 1 -9.87120309830983  1.26019003810381 -1.94276024302430
 1 -10.41272545654565  2.82388504260426 -0.93247640364036
 1  14.71444057205721 -2.98510383748375  0.19379765976598
 1 -15.31607630063006  1.19643694379438  1.81274237023702
 1  10.23065898489849  2.23614052205221  0.13742056705671
 1 -8.65063979998000  0.60725532663266  0.18731810581058
 1  9.20711839883988  3.81465484748475  0.64302014301430
 1  7.78204459145915  4.55784064506451 -0.38598494449445
 1  7.59186844684468  3.81161222922292  1.30164700270027
 1 -7.99335212921292 -3.36558121602160 -0.37662295129513
 1 -7.89231360236024 -2.94965496839684 -2.00091198019802
 1 -6.34232000400040 -2.96093063296330 -1.24324975897590
 1  6.92403825882588  0.36973018801880  0.19484160916092
 1 -6.72013898989899  0.75428292339234  0.05926080108011
 1  5.74627233223322  3.24513018501850  0.37557406640664
 1 -4.70957142814281 -1.97123480148015 -1.03388953895390
 1  4.49606279927993  0.26790153615362 -0.13722579057906
 1 -4.28781018501850  0.87836720872087 -0.06116483548355
 1  2.87888351635164  3.40501239123912  1.51516475747575
 1  1.53487174817482  3.17786876887689  0.52153675567557
 1  3.12922830283028  3.99800642564256 -0.32573563156316
 1 -2.61500261526153 -2.57364965696570  0.14046638163816
 1 -2.89844855785579 -2.45155221722172 -1.69996873887389
 1 -1.13984436943694 -2.26551410141014 -1.02652119511951
 1  2.35362672567257 -0.34011729272927 -0.34706091809181
 1 -1.85051967496750  1.32312055605561  0.03447954095410
 1  0.52884318331833  2.05815124212421 -0.00222821282128
 1  0.11576336133613 -0.92336250025003 -0.35123679767977

