%nproc=4
%Mem=2GB
# td=(NStates=1) CAM-B3LYP/6-31G(d,p) 

TD

0 1
 8  14.68520404540454 -2.18153108620862 -0.15795271827183
 8 -14.78296336033603  1.94862016711671  1.22571210221022
 6  11.15619796579658 -1.51393394549455  1.00351651265127
 6 -12.22913807780778 -0.89036065396540  0.71868551255126
 6  12.60140370637064 -1.83203249934994  1.04687957995800
 6 -13.62926964596460 -0.22276029592959  0.97252006400640
 6  13.34393243224322 -1.87018934103410 -0.32574611961196
 6 -13.56091538453845  1.26174483558356  1.04271552255226
 6  11.06310563756376 -0.18952657965797  0.03881058805881
 6 -11.31988835283528 -0.21447245414541 -0.24508218421842
 6  13.29243973497350 -0.44790327542754 -0.94519727372737
 6 -12.84583702170217  1.74059706680668 -0.33198255125513
 6  11.90408627762776  0.15994637753775 -0.80794343734373
 6 -11.61378197319732  1.04334096319632 -0.60364236023602
 6  10.72242328332833 -1.10191563256326  2.40940432443244
 6  10.35362598259826 -2.56432420042004  0.40745413541354
 6 -11.55919772577258 -1.07401709360936  2.01354748574857
 6 -12.55957245224522 -2.37567878977898  0.19294055605561
 6  9.70866610761076  0.45692464546455  0.21532549254925
 6 -10.12570814281428 -0.96570931283128 -0.44003528852885
 6  11.77061294129413  1.25934110801080 -1.85961795179518
 6 -10.73103139113911  1.69953943104310 -1.67637452745275
 6  9.39413331833183  1.68888513151315  0.22817945794579
 6 -8.83790518751875 -0.46337828672867 -0.41940704270427
 6  8.04686379137914  2.33624960796080  0.30268104310431
 6 -7.66472450645064 -1.29918824672467 -0.68341451045105
 6  7.88357014101410  3.71609046404640  0.75726991099110
 6 -7.81914021102110 -2.80271984888489 -0.81728041304130
 6  7.01128109910991  1.52710165116512  0.10282779777978
 6 -6.53582627962796 -0.57677593949395 -0.67055598059806
 6  5.62863357735774  1.83912815081508  0.28483545254525
 6 -5.02632117811781 -0.96648372127213 -0.70880775877588
 6  4.54089287528753  1.11028722272227 -0.04157624262426
 6 -3.92244354135414 -0.35851807580758 -0.45914872987299
 6  3.20097758875888  1.60700509150915  0.05486960296030
 6 -2.66751220722072 -0.78150822982298 -0.73537189218922
 6  2.84346591359136  3.02596028802880  0.58302596059606
 6 -2.39500826882688 -2.19798329032903 -1.02412363836384
 6  2.21201029002900  0.70467253125313 -0.21026170617062
 6 -1.54939689968997  0.11677956695670 -0.55444939593959
 6  0.77472430143014  0.90912372637264 -0.28185685768577
 6 -0.17545741574157 -0.05094269426943 -0.60521149114911
 1  13.30968954895490 -1.14066747684768  1.81133682268227
 1  12.80268376737674 -2.80108332243224  1.44418210221022
 1 -14.11379435243524 -0.54107154905491  1.91804272527253
 1 -14.33771726672667 -0.45403327522752  0.05414355835584
 1  12.79611061806181 -2.63924323142314 -0.84143470147015
 1 -12.78173860586059  1.53766774887489  1.86485421942194
 1  14.04215880288029  0.20870344824482 -0.41847702870287
 1  13.44171972897290 -0.71502685978598 -2.08730146114611
 1 -13.61158636763676  1.54276933703370 -1.17454019701970
 1 -12.78176414941494  2.82781780188019 -0.35333429742974
 1  10.91327401640164 -1.81320974997500  3.13096779277928
 1  9.55198352535253 -0.77934773377338  2.33990074507451
 1  11.23695743774377 -0.18267713481348  2.94060744674467
 1  10.52583884688469 -2.84601937593759 -0.51126780978098
 1  10.22184118701870 -3.50581922492249  1.10222966296630
 1  9.24876219321932 -2.18273958195820  0.44641136213621
 1 -11.44562624862486 -0.12452494639464  2.48902919991999
 1 -10.58560139913991 -1.48605114901490  1.92230601460146
 1 -12.18621951495149 -1.67689510941094  2.69722030203020
 1 -13.14511496049605 -2.79818851475148  0.86620475147515
 1 -11.75281051605161 -2.99225581448145  0.28739163716372
 1 -12.98660651965196 -2.44522371427143 -0.85408815081508
 1  9.03248515151515 -0.48575298629863  0.30415753675368
 1 -10.31859662466247 -1.95975303920392 -0.53108691069107
 1  10.62555384738474  1.43766843684368 -2.04236629562956
 1  12.06263209220922  2.15624656755676 -1.41125673367337
 1  12.33796546654665  1.03224407930793 -2.66391908090809
 1 -11.33449785078508  2.21926749084908 -2.47748846984698
 1 -9.94456043404340  1.12215623472347 -1.93179914691469
 1 -9.95787997199720  2.44291694579458 -1.10742389838984
 1  14.65319444744475 -3.23411873897390  0.31299957995800
 1 -15.23104779777978  1.41278857895790  1.97709880588059
 1  10.20256617561756  2.46302321032103  0.21347817281728
 1 -8.68749348534853  0.70019462056206 -0.24668529452945
 1  8.82466015301530  4.29459284128413  0.84644048504850
 1  7.05530191719172  4.33168802980298  0.16373002700270
 1  7.38990825082508  3.73656472447245  1.71383822182218
 1 -7.91090388438844 -3.46362102000200  0.18430314131413
 1 -8.66694106510651 -3.23269327222722 -1.69210109910991
 1 -6.83550932293229 -3.23466800670067 -1.25830126412641
 1  7.22041789678968  0.57151036603660 -0.47693556855686
 1 -6.44823179917992  0.48699619471947 -0.29453457845785
 1  5.42228993399340  2.86094176617662  0.43364987398740
 1 -4.80845131613161 -1.98648632663266 -0.97816396639664
 1  4.40367356035604  0.05442018801880 -0.34185625362536
 1 -4.00769217321732  0.77661703370337 -0.18463718271827
 1  2.59819544754476  2.78761065106511  1.94930817181718
 1  1.84249251025103  3.17575855785579 -0.20700609860986
 1  3.73356873687369  3.80521714671467  0.38446538853885
 1 -2.86326744174417 -2.84626691869187 -0.36503416841684
 1 -2.74695340834083 -2.79048611061106 -2.11307004900490
 1 -1.23289367436744 -2.48549609960996 -1.02633117611761
 1  2.47961932493249 -0.27371065206521 -0.66167237923792
 1 -1.81394601760176  1.16631487548755 -0.09082298929893
 1  0.26559685868587  1.80898632563256  0.19768177817782
 1  0.30843262826283 -0.88402856685669 -1.01459313331333

