%nproc=4
%Mem=2GB
# td=(NStates=1) CAM-B3LYP/6-31G(d,p) 

TD

0 1
 8  14.66126165116512 -2.26493942704270 -0.01560848384838
 8 -14.69962502650265  1.92025733083308  1.05730526152615
 6  11.04685703170317 -1.47550010211021  0.92188834983498
 6 -12.33893905790579 -1.14131574947495  0.69664330833083
 6  12.52070563656365 -1.94550384648465  1.09561445344534
 6 -13.61342806180618 -0.31724974487449  0.87155996799680
 6  13.30091813081308 -1.95545786788679 -0.19994353935394
 6 -13.49014830783078  1.24430309140914  0.89136038703870
 6  10.94928425542554 -0.26369399639964 -0.06488978197820
 6 -11.37482384638464 -0.33444445134513 -0.12373004900490
 6  13.24305479647965 -0.64138262336234 -0.96980973497350
 6 -12.83229566756676  1.75543855095510 -0.35738509150915
 6  11.92984885388539  0.05669605250525 -0.92311495449545
 6 -11.52586318131813  0.93314994409441 -0.62363435943594
 6  10.52201324232423 -1.16208164916492  2.26973035703570
 6  10.34014463446345 -2.74353212121212  0.38546193619362
 6 -11.75264707070707 -1.29906959885989  2.15797192819282
 6 -12.67590408540854 -2.52903412531253  0.09515077707771
 6  9.59338457945795  0.37568652165217  0.00169412941294
 6 -10.06207177917792 -1.08622136403640 -0.39937122212221
 6  11.77068294829483  1.22483765766577 -1.85656764676468
 6 -10.57720600860086  1.68690816791679 -1.56291318131813
 6  9.37552145714572  1.61271751475148  0.10845748574857
 6 -8.76788818581858 -0.45657760666067 -0.27917301930193
 6  8.16267537253725  2.27287327032703  0.19673044804480
 6 -7.51767980198020 -1.24468279617962 -0.66962313131313
 6  8.12521430543054  3.77602645764576  0.58446263026303
 6 -7.67237553455345 -2.60004958185819 -1.06624530953095
 6  6.95790576157616  1.57568650965096  0.09922743774377
 6 -6.39691238823882 -0.56444470637064 -0.45708463346335
 6  5.61991270527053  2.15457969596960  0.28545551455146
 6 -5.10722926892689 -0.96868394129413 -0.66338321632163
 6  4.47539632563256  1.40731692569257  0.06724463946395
 6 -3.90981227822782 -0.30958318231823 -0.57338015301530
 6  3.18589608060806  1.80372476347635  0.09164328032803
 6 -2.59064452045205 -0.69579965896590 -0.60943929892989
 6  2.82849441644164  3.18784647664766  0.53290094809481
 6 -2.24905367336734 -2.06287977997800 -0.98614984098410
 6  2.11287037603760  0.84317638163816 -0.03641432143214
 6 -1.58882084208421  0.21060894989499 -0.38181213221322
 6  0.69906673567357  1.03180599459946 -0.06231490349035
 6 -0.13602347234723  0.07458985898590 -0.44888585858586
 1  12.98744732473247 -1.15098850895089  1.75228091709171
 1  12.87370086908691 -2.88297151125113  1.58467615161516
 1 -14.31000397339734 -0.60117755965597  1.89569049004901
 1 -14.39186268126813 -0.33772164406441  0.04029217321732
 1  12.96005701270127 -2.74752405950595 -0.87513807180718
 1 -12.79840027202720  1.44550853295329  1.91292902690269
 1  13.94616920392039  0.00486306420642 -0.55255043604360
 1  13.54376993399340 -0.63935929302930 -2.02381511251125
 1 -13.37391260026003  1.76092115221522 -1.34480722372237
 1 -12.53348932193219  2.83878889898990 -0.25092405640564
 1  10.80472316131613 -2.01544997399740  3.09637433343334
 1  9.43892221922192 -1.08826862586259  2.21177793279328
 1  10.85047878987899 -0.12217108420842  2.73206659265927
 1  10.72921918491849 -2.86784155815582 -0.67013369636964
 1  10.67662666556656 -3.80432907590759  0.88614805480548
 1  9.11739905690569 -2.60839214721472  0.27666438743874
 1 -11.52092377837784 -0.36793928782878  2.61022131913191
 1 -10.78607144614461 -1.77902044594459  2.05066885088509
 1 -12.32351324432443 -1.86850427032703  2.80433101310131
 1 -13.20718116711671 -3.13597229312931  0.92878100910091
 1 -11.66945218021802 -2.98847543644364 -0.13577067906791
 1 -13.41541940094009 -2.50099929182918 -0.97934067606761
 1  8.76445834883488 -0.34739915091509  0.28180530153015
 1 -10.10672543754375 -2.17473453735374 -0.51743554555456
 1  10.61196248824882  1.54095876587659 -1.88883094209421
 1  12.34086991599160  2.17988893179318 -1.55462107010701
 1  12.05701737173717  1.09208006290629 -2.84737742674267
 1 -11.14834923592359  2.31096666076608 -2.22440316131613
 1 -10.19045502350235  0.95040906000600 -2.34937090409041
 1 -9.86337052105210  2.12526518061806 -0.98086124212421
 1  14.77657678567857 -2.96223155025503  0.72261054105411
 1 -15.21255594859486  1.50417771787179  1.79281037703770
 1  10.17983390239024  2.29939684768477  0.21358818381838
 1 -8.68898363436344  0.46578117921792  0.13244261826183
 1  9.23270095709571  4.11674505650565  0.98019386038604
 1  7.73091947894789  4.39915477647765 -0.27478382438244
 1  7.57756701670167  4.04429549754976  1.36813365136514
 1 -8.32287508150815 -2.97915257315732 -0.14065935493549
 1 -8.28301267226723 -2.59981998489849 -2.00294218321832
 1 -6.73952972497250 -3.15456999689969 -0.99617505150515
 1  6.80252610761076  0.60018323332333 -0.26975485048505
 1 -6.49908688468847  0.50809830493049 -0.18518364336434
 1  5.61330903590359  3.10478615061506  0.50984749374938
 1 -4.98141861286129 -1.94292197019702 -0.97693384338434
 1  4.61392458545855  0.28291303730373 -0.05820788878888
 1 -3.98303970797080  0.74423379537954 -0.36839555855586
 1  3.14093972197220  3.34569645964596  1.63809705070507
 1  1.77743600460046  3.55087606960696  0.41198580058006
 1  3.35848122812281  4.06410303530353  0.00245718771877
 1 -3.06933804880488 -3.01546383838384 -0.67729539453945
 1 -2.31591030403040 -2.16314337633763 -2.14727346934693
 1 -1.13567395239524 -2.38222577257726 -0.58684722772277
 1  2.41553291629163 -0.11574485548555 -0.44365057705771
 1 -1.94858948194820  1.26751499549955 -0.05524943194319
 1  0.17783808280828  1.92066749374938  0.22597460746075
 1  0.34164594959496 -0.90357052105210 -0.65103677767777

