%nproc=4
%Mem=2GB
# td=(NStates=1) CAM-B3LYP/6-31G(d,p) 

TD

0 1
 8  14.58708423342334 -2.39275220832083 -0.12683960696070
 8 -14.74659972397240  1.82794809990999  1.11774130513051
 6  11.12334468046805 -1.46386893899390  0.96639280028003
 6 -12.34999016301630 -1.05664728262826  0.67113075707571
 6  12.56448001400140 -1.95620491659166  0.98447333933393
 6 -13.67498421742174 -0.29575759565957  0.75455826782678
 6  13.25565360436044 -1.95575789788979 -0.29133267826783
 6 -13.51761105410541  1.17775643674367  0.94688593959396
 6  11.00363969096910 -0.32485011201120  0.00092679967997
 6 -11.28964532853285 -0.21726273317332 -0.13293096909691
 6  13.27369786078608 -0.60268875397540 -0.98568132213221
 6 -12.80943338133813  1.78420142724272 -0.23432278527853
 6  11.97931380038004  0.14155453835384 -0.84314695769577
 6 -11.56849744474447  0.94926155525553 -0.58205020102010
 6  10.68255929692969 -1.07724316531653  2.34018740274027
 6  10.17922854285428 -2.58891665966597  0.46822021202120
 6 -11.79804161016102 -1.46110580248025  2.01597772877288
 6 -12.59473596859686 -2.49646086798680 -0.13767250525053
 6  9.63285852685268  0.43719267226723  0.22664662466247
 6 -10.04318989098910 -0.98727146904690 -0.46568785378538
 6  11.82873875387539  1.28861403530353 -1.75557754775478
 6 -10.67081536953695  1.92090156725673 -1.46378326832683
 6  9.33926783178318  1.75246148914891  0.10924756475648
 6 -8.84216561356136 -0.46704865376538 -0.51914701670167
 6  8.08431753675367  2.30838682168217  0.12518329332933
 6 -7.61887992199220 -1.17457578547855 -0.53294946394639
 6  7.91514329832983  3.76409526452645  0.40306449044904
 6 -7.59568786578658 -2.59828940584058 -0.93747243224322
 6  6.92378234923492  1.50631957295730  0.07449496449645
 6 -6.40784348134814 -0.49831809370937 -0.44853377837784
 6  5.62465317931793  2.02350658865887  0.12013898289829
 6 -4.94585313131313 -1.06108318121812 -0.60709758775878
 6  4.46058484448445  1.28696489048905  0.03205112011201
 6 -3.90280157715772 -0.24697692169217 -0.37340015501550
 6  3.19156664766477  1.74345873687369  0.17567168316832
 6 -2.54987044304430 -0.75943602260226 -0.50260861586159
 6  3.01614318131813  3.24004169616962  0.41180883888389
 6 -2.27131589958996 -2.19929342134213 -0.94191541754175
 6  2.05728481748175  0.82388445244524 -0.08547922792279
 6 -1.60334229422942  0.14601249024903 -0.28367231823182
 6  0.75149197819782  0.96827964196420 -0.09179785178518
 6 -0.15620549054905 -0.01499909990999 -0.41098206820682
 1  13.32974155415542 -1.25795920602060  1.56925261426143
 1  12.37598109710971 -2.88756197029703  1.53308099209921
 1 -14.20055302830283 -0.70471791369137  1.44631555255526
 1 -14.12459595459546 -0.33045091699170 -0.26391824782478
 1  12.86630763776378 -2.60257956505651 -0.98948950695070
 1 -12.92093252525252  1.18289227132713  1.78796653065306
 1  14.17026161316132 -0.10116753885389 -0.50095527652765
 1  13.75845140214021 -0.69369472657266 -2.01414414541454
 1 -13.41026623562356  1.97803286338634 -1.25989873287329
 1 -12.76092206520652  2.82637765786579 -0.19492845684568
 1  10.78885157415742 -1.85736416541654  3.13714841084108
 1  9.71904023102310 -0.84788458745875  2.60373712871287
 1  11.35485922792279 -0.26395526262626  2.81391477747775
 1  10.44522078507851 -3.10853562756276 -0.53952063506351
 1  10.16781578447845 -3.59586822982298  1.20204964496450
 1  9.07569488648865 -2.31980328832883  0.51801852285228
 1 -11.44165585158516 -0.49363185708571  2.68967926492649
 1 -10.91739457845785 -2.12119466336634  1.73241702570257
 1 -12.37430832383238 -1.93451087098710  2.68340892089209
 1 -13.50486093509351 -2.83057175307531  0.40397852885289
 1 -11.85780101510151 -3.34534112301230  0.01919481748175
 1 -12.89914777377738 -2.28634782668267 -1.04419716171617
 1  9.04988689168917 -0.27467187818782  0.56762388338834
 1 -10.29971473647365 -2.13397046094609 -0.52631643364337
 1  10.76651794379438  1.48352302230223 -1.81570362936294
 1  12.03169899889989  2.27875881878188 -1.37143275127513
 1  12.45968763876387  1.09362021692169 -2.59064175317532
 1 -11.38393279427943  2.38647421152115 -2.20667138813881
 1 -9.95095107310731  1.40716473557356 -1.95215118211821
 1 -10.34070825482548  2.82112476657666 -0.87720087608761
 1  14.54444357235724 -3.17796312341234  0.57704598459846
 1 -15.09934462746275  1.56294359445945  1.88529962596260
 1  10.18283420242024  2.47497440544054 -0.19792296729673
 1 -8.76331106710671  0.71520612171217 -0.48139876587659
 1  8.86366405340534  4.19088247024702  0.42433827482748
 1  7.20754714171417  4.15142000300030 -0.46423276927693
 1  7.35593485348535  3.94100516851685  1.18353519151915
 1 -7.68603139713971 -3.32694735263526  0.04420913191319
 1 -8.71353572457246 -2.88827883078308 -1.61868375737574
 1 -6.62806857885789 -2.82533707360736 -1.56356179017902
 1  7.32502835783578  0.47017023202320 -0.09362723772377
 1 -6.36040301630163  0.55304279937994 -0.14076920192019
 1  5.73802150715072  3.07109278127813  0.45486199519952
 1 -4.90920139113911 -2.09561723972397 -1.01061721172117
 1  4.51672486548655  0.12580732673267 -0.12284435243524
 1 -3.94270567456746  0.79642901490149 -0.06311503050305
 1  3.43784941294129  3.59188107810781  1.26315955695570
 1  1.96419468046805  3.42343332533253  0.36735133713371
 1  3.42852823282328  3.81535816081608 -0.48964202220222
 1 -2.63435455045505 -2.77673996599660 -0.23546121112111
 1 -2.88423713671367 -2.55096215821582 -1.87706644864486
 1 -1.13574395939594 -2.34141169116912 -0.82405094809481
 1  2.53389475247525 -0.21650493149315 -0.55296150815082
 1 -2.01820644364436  1.11825006900690  0.04574066706671
 1  0.29496979597960  1.81615704270427  0.14163617361736
 1  0.34091587658766 -0.92404256825683 -0.63183485748575

