%nproc=4
%Mem=2GB
# td=(NStates=1) CAM-B3LYP/6-31G(d,p) 

TD

0 1
 8  14.84226975197520 -2.13111604470447 -0.17474439743974
 8 -14.71745680968097  1.88827413251325  1.13841337233723
 6  11.33001534753475 -1.46210876297630  1.06888304930493
 6 -12.33514867886789 -0.97422904080408  0.58641228522852
 6  12.86356992299230 -1.72494179027903  1.13179807180718
 6 -13.70557727672767 -0.36758477837784  0.75673848584858
 6  13.46171421042104 -1.89215153725373 -0.26265981098110
 6 -13.53338263126313  1.20486914801480  1.03650490149015
 6  11.01930125712571 -0.33944157115712 -0.03174646764676
 6 -11.27604396839684 -0.20563157005701 -0.21387906390639
 6  13.21584207520752 -0.60327881298130 -1.07770052405241
 6 -12.88804124212421  1.75861886898690 -0.24893424642464
 6  11.93532940194019  0.06120650355035 -0.97012965596560
 6 -11.47779837483748  1.11349797889789 -0.48636063206321
 6  10.91526256725673 -0.89764520552055  2.39096248024802
 6  10.49433005300530 -2.66172394039404  0.75307869786979
 6 -11.74402620862086 -1.26213590549055  2.00263639463946
 6 -12.62646914191419 -2.39129035093509 -0.11656039403940
 6  9.65946118711871  0.27251620462046  0.12535649564956
 6 -10.06470204220422 -0.99243198509851 -0.47252853785379
 6  11.64193007300730  1.13062823672367 -1.98248023802380
 6 -10.65233352135214  1.93095257235724 -1.32393928392839
 6  9.29345325032503  1.60594683768377  0.17379401940194
 6 -8.79536093309331 -0.46475842474247 -0.40294539653965
 6  7.99892899789979  2.21447743074307  0.26082685768577
 6 -7.56276431043104 -1.15887421532153 -0.66150231923192
 6  7.99044082808281  3.66570542554255  0.56144032803280
 6 -7.68735703270327 -2.59820939783978 -1.13150183518352
 6  6.85751572257226  1.52334127512751  0.13408092309231
 6 -6.37791048804880 -0.53454171607161 -0.46171509650965
 6  5.48298901290129  2.03781801980198  0.22895986498650
 6 -5.15604415041504 -1.07784485738574 -0.73522040004000
 6  4.38860764676468  1.29218541254125 -0.12616470147015
 6 -3.99191048804880 -0.31196342034203 -0.38841165616562
 6  3.04753224422442  1.60771516251625  0.03326744274427
 6 -2.69737519351935 -0.81901198019802 -0.53809216421642
 6  2.86362792979298  3.11976966896690  0.45397305530553
 6 -2.47144591259126 -2.23232672467247 -0.98357958395840
 6  2.06336542554255  0.71778384238424 -0.21360204020402
 6 -1.63788574857486  0.12389027802780 -0.18081203220322
 6  0.66949377837784  0.85342815681568 -0.03101177317732
 6 -0.26616648664866 -0.05420302030203 -0.39582055205521
 1  13.21887046704670 -0.72298570867087  1.61687737673767
 1  13.11330482948295 -2.54189740384038  1.69850753475348
 1 -14.17731070407041 -1.27050449234923  1.61717263826383
 1 -14.26567006200620 -0.47217508940894 -0.04155601160116
 1  12.86308731573157 -2.73366267336734 -0.77094765276528
 1 -12.82784321632163  1.48253223532353  1.82609034303430
 1  13.94081866886689  0.19184176207621 -0.59284446544654
 1  13.76750230723072 -0.62174753185319 -2.10317304830483
 1 -13.60045525452545  1.57308236833683 -0.96074881788179
 1 -12.68224419741974  2.60257527762776 -0.05012397639764
 1  11.16329901890189 -1.72766119511951  3.17262195819582
 1  9.81476980398040 -0.62357215621562  2.47250400540054
 1  11.56780052205220 -0.05719458655866  2.73759714571457
 1  10.75904216721672 -3.03835860986099 -0.16298298129813
 1  10.75390439333933 -3.31069971297130  1.68987842784278
 1  9.47823514051405 -2.29756106410641  0.91676839783978
 1 -11.63324501050105 -0.29616211011101  2.42933323032303
 1 -10.76732957195720 -1.62458500240024  1.87147093109311
 1 -12.55553644664466 -1.89755717561756  2.61678225822582
 1 -13.38786923592359 -2.88479717561756  0.43351148214821
 1 -11.78200343534354 -3.12158874777478 -0.15017211921192
 1 -12.82027988698870 -2.07745693759376 -1.03082582458246
 1  8.85742764576458 -0.40394480548055  0.47704482548255
 1 -9.99163392839284 -2.05068213211321 -0.86923072507251
 1  10.64602589458946  1.23164783478348 -2.26177823682368
 1  11.90179600860086  2.23284422732273 -1.76707231523152
 1  12.09819148914892  0.97098795369537 -3.00560324932493
 1 -11.25295969696970  2.45891145524552 -2.10714143514351
 1 -9.75058103610361  1.41167518661866 -1.85899186618662
 1 -10.02419660366037  2.90929358345835 -0.86966012201220
 1  14.87141626962696 -2.93281860896090  0.49397767776778
 1 -15.16357105010501  1.61419871997200  1.94330542654265
 1  10.18590450945095  2.16797370537054  0.01910873587359
 1 -8.59190392639264  0.45091969306931 -0.05530615661566
 1  9.05129281628163  4.01274465646565  0.55565140614061
 1  7.29248563556356  4.24934979597960 -0.11861820782078
 1  7.68466772677268  3.88160922892289  1.43291012901290
 1 -8.22305509950995 -3.24550920882088 -0.50391568056806
 1 -8.12207657865787 -2.57562756565657 -2.28736062506251
 1 -6.68127389938994 -2.90840538043804 -1.23550898489849
 1  7.04446030103010  0.35418863386339 -0.03407128212821
 1 -6.52183915991599  0.46325382048205 -0.13357848284828
 1  5.50910861586159  3.00616628862886  0.67273378237824
 1 -5.12110258125813 -2.14044172217222 -1.23568971897190
 1  4.55115830883088  0.22021676767677 -0.48230029802980
 1 -4.10794219821982  0.72750212221222  0.03499478047805
 1  3.60643627162716  3.62179406940694  1.16874011501150
 1  1.79859812081208  3.59606058805881  0.84639924192419
 1  3.15231061106111  3.70661728672867 -0.31824488248825
 1 -2.91221233623362 -3.04343663566357 -0.25820348534853
 1 -3.24937365036504 -2.31820888288829 -1.85185392739274
 1 -1.55750613561356 -2.50334788478848 -1.38365690869087
 1  2.68610997399740 -0.10686396739674 -0.63658987098710
 1 -1.95784040704070  1.07764600860086  0.20589668266827
 1  0.32900319931993  1.83982940994099  0.52807481748175
 1  0.22613439843984 -1.02630279427943 -0.62019369336934

