%nproc=4
%Mem=2GB
# td=(NStates=1) CAM-B3LYP/6-31G(d,p) 

TD

0 1
 8  14.61887741274128 -2.36930986408641 -0.31949887288729
 8 -14.71003606760676  2.03212851795179  0.96014554555456
 6  11.16975932193219 -1.38452100420042  0.87478363936394
 6 -12.36388155215522 -0.98539015691569  0.63336698069807
 6  12.69922348834883 -1.82588188428843  1.00733562556256
 6 -13.58953567256726 -0.28322634253425  0.76088890089009
 6  13.27812585158516 -1.89418174027403 -0.33854739973997
 6 -13.40614990799080  1.31850051115111  0.78984023502350
 6  10.98236756375638 -0.24936256325633 -0.11336462946295
 6 -11.33486985098510 -0.31561256815682 -0.17065474147415
 6  13.27442793379338 -0.50291877697770 -0.98773152715272
 6 -12.65102754075408  1.85544855195520 -0.43277263026303
 6  12.03630949995000  0.15444582748275 -0.87056969997000
 6 -11.44501509650965  0.89564619371937 -0.74184618061806
 6  10.76853789478948 -1.00002544354435  2.41491487548755
 6  10.32555317531753 -2.59487725572557  0.47321071107111
 6 -11.81133293929393 -1.20453014491449  2.01689782078208
 6 -12.74123061806181 -2.39919114101410  0.02595385738574
 6  9.71877711871187  0.43453240624062 -0.00286632663266
 6 -10.02752832483248 -1.01335407730773 -0.37844912991299
 6  11.80265614561456  1.36375154905491 -1.80913290329033
 6 -10.54770305830583  1.59016849394939 -1.63784067406741
 6  9.26772067706771  1.76726296929693 -0.06640000000000
 6 -8.78742013901390 -0.42831478037804 -0.15695079707971
 6  7.99146825182518  2.27075305830583  0.14258503350335
 6 -7.58370640464046 -1.28705703360336 -0.59751592059206
 6  7.86613839783978  3.73739259425943  0.42138632263226
 6 -7.65191348834883 -2.66543612051205 -1.09258794379438
 6  6.83414338533853  1.45507444844484  0.04901241624162
 6 -6.32862555955596 -0.57037529942994 -0.39571849684969
 6  5.57128784278428  1.92723696169617  0.30069703870387
 6 -5.12091063706371 -1.04913198609861 -0.63558043604360
 6  4.41732051805181  1.16664285828583  0.15772368736874
 6 -3.93000429742974 -0.26943916791679 -0.37762057705771
 6  3.09067655865587  1.65565995699570  0.40193430943094
 6 -2.64795025102510 -0.78132821182118 -0.56514486948695
 6  2.90557212421242  3.02711040304030  0.89906756475648
 6 -2.42344111211121 -2.13488698069807 -0.87111833783378
 6  2.07311640064006  0.83199526352635  0.09974929492949
 6 -1.59624158415842  0.11544943394339 -0.30602455345535
 6  0.67712454145415  0.91353416741674  0.11501282928293
 6 -0.20326019601960 -0.10919851985199 -0.32435340534053
 1  13.40098867886789 -1.34907831793179  1.87870355935594
 1  12.72681618061806 -2.79559277337734  1.56607429142914
 1 -14.13587656065607 -0.79974741664166  1.51537245824582
 1 -14.05624911991199 -0.45195306720672 -0.26102795879588
 1  12.68056906390639 -2.61321062816282 -0.94770532853285
 1 -12.80226065806581  1.59827380948095  1.64794252825282
 1  14.32851743874387 -0.17968539063906 -0.46125130613061
 1  13.82604816181618 -0.84320967806781 -2.05978870987099
 1 -13.42651786078608  1.69715477557756 -1.28760150315031
 1 -12.42034800780078  2.78782380248025 -0.07287625162516
 1  11.01674436343634 -1.91358978797880  3.02247694369437
 1  9.83399172617262 -0.75049484848485  2.48049480448045
 1  11.40202394439444 -0.07230609770977  2.67172055805581
 1  10.35776203920392 -2.83307808180818 -0.71835851885189
 1  10.53626262916292 -3.39777842084208  1.18506794679468
 1  9.12531984898490 -2.37676898489849  0.51063778477848
 1 -11.50828251425142 -0.43958645254525  2.53120341734173
 1 -10.79620245924593 -1.75184772867287  1.99399318331833
 1 -12.45682657565757 -1.73169058895890  2.70778135813581
 1 -13.63130357935793 -2.81442013791379  0.57302543354335
 1 -11.95056029102910 -3.15760234913491  0.33291618961896
 1 -12.87042490149015 -2.27248644054405 -1.17735047704770
 1  8.98817072007201 -0.38521293229323  0.46250337133713
 1 -10.15257002200220 -2.06656372027203 -0.41971577357736
 1  10.76083737573757  1.33305797579758 -2.33033509250925
 1  12.06754258325833  2.30126106900690 -1.40011561956196
 1  12.63887555755575  1.36919777467747 -2.59446213521352
 1 -10.95427982898290  2.09687525162516 -2.42848356935694
 1 -9.68598457645765  0.99923394249425 -2.01140710771077
 1 -9.98804298829883  2.32215486958696 -1.03027618361836
 1  14.43393252125213 -3.22894822192219  0.02476075607561
 1 -15.15793048604860  1.41682898299830  1.64761585758576
 1  10.14131005000500  2.35596250425042 -0.31987516251625
 1 -8.43491822782278  0.49352395349535  0.21953132713271
 1  8.90464815181518  4.39401278327833  0.02416825782578
 1  7.13620000700070  4.36254111511151 -0.17714406040604
 1  7.77390665066507  3.86685775377538  1.55038187618762
 1 -8.09954274827483 -3.29534419231923 -0.23278856785679
 1 -8.33985835683568 -2.70048005090509 -1.91144303330333
 1 -6.65969174117412 -3.03066760666067 -1.25722115611561
 1  7.05673152815282  0.47515073007301 -0.31722959795980
 1 -6.39603657965797  0.57649514461446 -0.21975710071007
 1  5.52775048004801  2.80063573557356  0.55858236723672
 1 -4.80003047404741 -2.03001067906791 -0.89612576257626
 1  4.73573676667667  0.13752849884989 -0.27825989398940
 1 -4.16226763076308  0.81918129012901 -0.08607732673267
 1  4.03547917591759  3.31655354535454  1.54321756275628
 1  1.87572583358336  3.17939892189219  1.37449205120512
 1  2.72149752975297  3.70015664066407 -0.25533859185919
 1 -3.16504761976198 -2.75334762676268 -0.27909557455746
 1 -2.86839555255526 -2.37706476847685 -1.92686142814281
 1 -1.43936432143214 -2.48915646564656 -0.76594513751375
 1  2.49259062206221 -0.12775605660566 -0.34821103310331
 1 -1.92116673967397  1.17352559655966  0.16933302630263
 1  0.28224852385239  1.78441386838684  0.51833384338434
 1  0.08883066806681 -1.10554071807181 -0.86720839483948

