%nproc=4
%Mem=2GB
# td=(NStates=1) CAM-B3LYP/6-31G(d,p) 

TD

0 1
 8  14.68126365136514 -2.30493342644264  0.00707378437844
 8 -14.67558262226223  1.84491979707971  1.15633516451645
 6  11.14207655365536 -1.47756030813081  1.00727688868887
 6 -12.29305446944694 -1.11807342524252  0.66663030703070
 6  12.59911347734773 -1.87775707180718  1.16283117511751
 6 -13.61174789378938 -0.42421044094409  0.77737054905491
 6  13.35331337033703 -1.98160048214821 -0.21921546654665
 6 -13.52314160716072  1.19163782488249  0.95317656865687
 6  11.02849217621762 -0.28173580058006  0.00508721572157
 6 -11.31303766776678 -0.26813782068207 -0.04904258025803
 6  13.29716020702070 -0.65930441554155 -0.89595234923492
 6 -12.76740917891789  1.71904491159116 -0.21622097509751
 6  11.92165803480348  0.07077746064606 -0.85345798879888
 6 -11.54394498949895  0.96176280538054 -0.62958495449545
 6  10.60696173717372 -1.10034547554755  2.44041742574257
 6  10.34858547854786 -2.69062683068307  0.44442783278328
 6 -11.69134094009401 -1.45469516141614  2.07962409340934
 6 -12.53247974297430 -2.48307952985299  0.00716197819782
 6  9.67474271527153  0.36831578457846 -0.00673671367137
 6 -10.05701127312731 -0.96877961986199 -0.42865415041504
 6  11.78809468946895  1.23161833573357 -1.84018600860086
 6 -10.78431671967197  1.71929140624062 -1.61908879887989
 6  9.36249015401540  1.65110135313531 -0.07995135513551
 6 -8.81051244824483 -0.39963191209121 -0.33973907590759
 6  8.07930703570357  2.25867185018502  0.04037481248125
 6 -7.56085411941194 -1.06827515541554 -0.59797596659666
 6  8.10946273027303  3.77312616761676  0.57950213421342
 6 -7.50688898589859 -2.51072064896490 -1.16768545354535
 6  6.86035600660066  1.54521346234623 -0.15218770377038
 6 -6.36762945994600 -0.46658492039204 -0.31360028502850
 6  5.57390810481048  2.16204044204420  0.13794076307631
 6 -5.11272981898190 -0.91369844274427 -0.54535141314131
 6  4.49432821882188  1.34640083408341 -0.16422850785079
 6 -3.99903120012001 -0.16692891689169 -0.50356317131713
 6  3.15395288628863  1.70956534753475  0.06114023002300
 6 -2.67986344234423 -0.63609368836884 -0.56052440744074
 6  2.67239880688069  3.06184387638764  0.72596025402540
 6 -2.38408717671767 -1.97608110011001 -1.02054328032803
 6  2.15876496549655  0.76260832483248 -0.22572325232523
 6 -1.61795375537554  0.20397828682868 -0.16905085608561
 6  0.72168899789979  0.93551636563656 -0.02609128112811
 6 -0.32386225622562 -0.04693229322932 -0.34903587358736
 1  13.04625320532053 -1.24466787688769  1.76914260326033
 1  12.66666016501650 -2.71732494659466  1.86845452945294
 1 -14.11281425442544 -0.72886032793279  1.62499342034203
 1 -14.28297179217922 -0.58321619351935 -0.22244410041004
 1  12.79566057305731 -2.74802410951095 -0.72981353935394
 1 -13.06633706570657  1.41049503160316  1.79030676467647
 1  13.92997758475848 -0.15794321642164 -0.18091327232723
 1  13.86171172817282 -0.61306666376638 -1.94919765076508
 1 -13.66883209220922  1.47889294939494 -0.91372411541154
 1 -12.29620559355936  2.84007902800280 -0.33088205220522
 1  10.99523221222122 -1.78509693869387  3.12734743074307
 1  9.52209053605360 -0.69944974397440  2.17236399139914
 1  11.01390513251325 -0.40247911501150  2.89883326932693
 1  10.70944720772077 -2.92155692969297 -0.49169585258526
 1  10.62587159005901 -3.53095173817382  1.26957639763976
 1  9.13725104210421 -2.73839514751475  0.52746946794679
 1 -11.32389407540754 -0.41829432333233  2.54224452145215
 1 -10.59150198919892 -1.81633417731773  1.89774355835584
 1 -12.37534842784278 -2.10240766066607  2.46809738973897
 1 -13.22899334833483 -2.92285098099810  0.71739987098710
 1 -11.73287852285229 -3.06593318221822  0.12311520952095
 1 -12.57653551255125 -2.19740893279328 -0.97433017501750
 1  8.75190709370937 -0.44031844284428  0.24190131113111
 1 -10.04691945694569 -2.00852791669167 -0.59613341534153
 1  10.64258555055505  1.20642531253125 -2.36028808780878
 1  11.84352018101810  2.11604254715472 -1.27949355735574
 1  12.52910458045805  0.91835269016902 -2.69993268226823
 1 -11.43473787478748  2.04175974007401 -2.66389711071107
 1 -9.98508448644864  1.05391941104110 -2.14929089608961
 1 -10.39030321432143  2.69511216531653 -1.12808596459646
 1  14.68178730673067 -3.15306063316332  0.39223750375037
 1 -15.41457615061506  1.40884818491849  1.55056615261526
 1  10.23770968996900  2.17439434743474  0.09321614661466
 1 -8.79773450945095  0.55455005610561 -0.14659528552855
 1  9.07493518051805  4.36276965896590  0.80023586458646
 1  7.67081346834683  4.47996285728573 -0.27653399939994
 1  7.39156841684168  3.89448051605161  1.38270510851085
 1 -7.91070386438644 -3.12135679357936 -0.34649993899390
 1 -8.30843521452145 -2.40744074697470 -1.87846973597360
 1 -6.68210398239824 -2.83468800870087 -1.61409684368437
 1  7.16137199219922  0.45255847084708 -0.54960283528353
 1 -6.60532750875088  0.47259475457546  0.05408028302830
 1  5.44882258725873  3.17366303830383  0.50653716271627
 1 -4.92412288328833 -2.07259493749375 -0.80564671467147
 1  4.64824801780178  0.47769251525153 -0.78498056605660
 1 -4.25525692969297  0.78076744874487 -0.14650336933693
 1  3.23817944594459  3.49569145914591  1.72559580058006
 1  1.62577083808381  3.08904988698870  0.94114871687169
 1  3.03009838983898  3.79707633263326  0.04543148514851
 1 -2.63575469046905 -2.86846913891389 -0.34034169916992
 1 -2.89115782878288 -2.15805286728673 -2.09164790679068
 1 -1.29785017001700 -2.36284383438344 -1.25307385038504
 1  2.48495985898590 -0.14867814881488 -1.05323153515352
 1 -1.90880550355035  1.17699594359436  0.16771286428643
 1  0.33313361236124  1.79523495049505  0.32254426442644
 1  0.04367615261526 -0.96784694869487 -0.78835050905091

