%nproc=4
%Mem=2GB
# td=(NStates=1) CAM-B3LYP/6-31G(d,p) 

TD

0 1
 8  14.74016954195420 -2.30638357145715 -0.03684060706071
 8 -14.72258732273227  1.82730803590359  1.11765129612961
 6  11.12969531553155 -1.54007655975598  0.90722688368837
 6 -12.31360652465247 -1.14467608550855  0.65778942294229
 6  12.63711727772777 -1.89437873397340  1.18251314331433
 6 -13.73837055605560 -0.36534455435544  0.93362617461746
 6  13.32388042704271 -1.95134745684568 -0.21189473447345
 6 -13.44901419441944  1.08321698279828  1.07288853985399
 6  10.94825415241524 -0.27313494049405  0.06681338833883
 6 -11.34028039203920 -0.30669167606761 -0.16856453245325
 6  13.22514300530053 -0.61032951805181 -0.81909466346635
 6 -12.81621405940594  1.68388139523952 -0.12188154115412
 6  11.86972284128413  0.01369175207521 -0.83291593459346
 6 -11.58970956595660  1.01501813091309 -0.56567856385639
 6  10.66117715871587 -1.19633507450745  2.38003138713871
 6  10.19904052405241 -2.70259802780278  0.47140053005301
 6 -11.67974978097810 -1.32720241214121  2.06525265626563
 6 -12.48779527452745 -2.39088030993099 -0.05683442144214
 6  9.57803304430443  0.40542949594959  0.14385834583458
 6 -10.01989756175618 -0.98364110601060 -0.44485577057706
 6  11.86055193519352  1.19445461936194 -1.71585357535754
 6 -10.79797808580858  1.89717919501950 -1.44256114611461
 6  9.37946185118512  1.66005224822482  0.08234487448745
 6 -8.83155455245525 -0.40395234413441 -0.48075317731773
 6  8.07211631663166  2.37245322832283  0.14408518351835
 6 -7.57372540654065 -1.18439676757676 -0.61623779277928
 6  8.05435721972197  3.82672152715272  0.33176736073607
 6 -7.61879017601760 -2.64961453835384 -0.95402408740874
 6  6.97988795979598  1.52216115711571  0.15302281728173
 6 -6.40038273527353 -0.38985724762476 -0.57477640264026
 6  5.61507222122212  2.12755699369937  0.19096606560656
 6 -5.05286383238324 -0.99449652255226 -0.62487936593659
 6  4.49176796279628  1.34075026902690 -0.03535562056206
 6 -3.86774807180718 -0.27528975297530 -0.45593840884088
 6  3.07201469246925  1.75276966796680  0.07350146614661
 6 -2.52401785778578 -0.69460953995400 -0.70737909290929
 6  2.76307787478748  3.07400509250925  0.51279893789379
 6 -2.31775054305431 -2.10323381538154 -1.14285551155116
 6  2.12377146614661  0.83238530253025 -0.27999867986799
 6 -1.55785774577458  0.20814870387039 -0.42151610261026
 6  0.70357718671867  0.96589940394039 -0.27754642664266
 6 -0.16190606060606 -0.01144874487449 -0.45197616761676
 1  13.06335491549155 -1.12604601470147  1.87465315431543
 1  12.56504000300030 -2.73654686878688  1.70485816981698
 1 -14.06361933493349 -0.72444988688869  2.01888280928093
 1 -14.54878837383738 -0.44281215311531  0.22385052905291
 1  12.87946895389539 -2.64799410651065 -0.84671522952295
 1 -12.87116754875487  1.25750973307331  1.96907464146415
 1  13.88096268326833  0.17703028092809 -0.41784696569657
 1  13.43070862786279 -0.94223958105811 -1.99790252125213
 1 -13.58996420542054  1.74947000710071 -0.93180592359236
 1 -12.68112408540854  2.58300332043204  0.21732276827683
 1  10.99887257625763 -1.93767219621962  3.05250994699470
 1  9.52711103810381 -1.03189298829883  2.37479423442344
 1  11.26422016401640 -0.16954582168217  2.87743112911291
 1  10.65513177617762 -3.07318209220922 -0.36476315931593
 1  10.06236523942394 -3.50095873887389  1.24611405140514
 1  9.16173349034904 -2.41767307530753  0.18043476447645
 1 -11.68928061406141 -0.27965045894589  2.67216751375138
 1 -10.70867370637064 -1.59491203510351  1.95801958595860
 1 -12.28228912191219 -2.09751717161716  2.66767734773477
 1 -13.35269571857186 -3.03839253515352  0.38744687568757
 1 -11.49318455345535 -2.94538112701270 -0.04896199819982
 1 -12.48382624162416 -2.42754194609461 -1.10243298529853
 1  8.80603250625063 -0.18692310331033  0.65949307030703
 1 -10.33773853885388 -1.94057112101210 -0.33897769976998
 1  10.84782607460746  1.49650432043204 -2.04629668866887
 1  12.15999182818282  2.13372431533153 -1.40132574057406
 1  12.36687835783578  0.98139899479948 -2.72466515551555
 1 -11.41744614561456  2.35264082818282 -2.17903862486249
 1 -10.07194317231723  1.24617863696370 -2.18164413141314
 1 -9.82698688268827  2.58200085418542 -1.05609876587659
 1  14.73844297229723 -3.14123945104510  0.39318759875988
 1 -15.25672036503650  1.57983528362836  1.98980007600760
 1  10.01331725072507  2.48963587158716 -0.31559473447345
 1 -8.61755649164916  0.76634123522352 -0.45919654565457
 1  9.01250893789379  4.50508389038904  0.24859070007001
 1  7.20507689468947  4.33051791279128 -0.24403074907491
 1  7.86998625862586  3.96518758675868  1.42683952195219
 1 -8.01176397039704 -3.28054271217122 -0.08554384338434
 1 -8.25038940994100 -2.81484148704871 -1.94482637163716
 1 -6.62134790679068 -3.10580512041204 -1.10138557255726
 1  7.32142799779978  0.43505672067207 -0.06822469746975
 1 -6.56845382138214  0.63991148624863 -0.40159528452845
 1  5.51559926492649  3.10658633063306  0.52775928492849
 1 -5.03247371837184 -2.08616629462946 -0.72337848784878
 1  4.62669586258626  0.34556930293029 -0.34230629862986
 1 -4.26414781878188  0.78865823782378 -0.21014973397340
 1  3.11571719971997  3.16971886188619  1.54626786778678
 1  1.64520278127813  3.48044902690269  0.47352195419542
 1  3.20875625562556  3.78923554855486 -0.24547760576058
 1 -2.82515363036304 -2.63740603260326 -0.28735640064006
 1 -2.81208992199220 -2.05124218621862 -2.04687342934293
 1 -1.22360274527453 -2.33177072707271 -1.23878242124212
 1  2.35066642964296 -0.28920220122012 -0.42815902790279
 1 -1.74680930393039  1.24051229522952 -0.04181808880888
 1  0.38230852985299  2.17912333933393 -0.12706069606961
 1 -0.03775199019902 -1.04153431743174 -0.77193886788679

