%nproc=4
%Mem=2GB
# td=(NStates=1) CAM-B3LYP/6-31G(d,p) 

TD

0 1
 8  14.61179670467047 -2.33889682278228 -0.61299822282228
 8 -14.97049211321132  1.77359266436644  0.65800533153315
 6  11.24054640064006 -1.38805135723572  0.98718487948795
 6 -12.42216738073807 -1.11814343224322  0.46998064206421
 6  12.78323188918892 -1.85002429852985  0.91663655565557
 6 -13.74878159715972 -0.38311633153315  0.40916372837284
 6  13.22862090109011 -1.97821014311431 -0.51034457945795
 6 -13.64394368736874  1.02732139323932  0.73610486148615
 6  11.01041036803680 -0.35964359135914  0.00654736173617
 6 -11.34485084908491 -0.35722672957296 -0.24876255225523
 6  13.20436092709271 -0.67627611271127 -1.23641639563956
 6 -12.76384882288229  1.76732974007401 -0.37627698069807
 6  11.81500736973697  0.12490287318732 -1.03664630763076
 6 -11.46986758175817  0.99691632073207 -0.71019301530153
 6  10.72336337733773 -1.09337477847785  2.32768615261526
 6  10.30438105810581 -2.61665943394339  0.66460985098510
 6 -12.11159296529653 -1.37034672657266  1.87282341334133
 6 -12.65696219121912 -2.43607482938294 -0.29443818181818
 6  9.68283352435243  0.25086403940394  0.11022498249825
 6 -9.93317888988899 -1.01235397729773 -0.43144442944294
 6  11.75981186118612  1.16993216711671 -1.92710470047005
 6 -10.58837712571257  1.80412989008901 -1.59648653865387
 6  9.32611651665167  1.58062430543054  0.06463310331033
 6 -8.78551994899490 -0.46008795769577 -0.23779888188819
 6  8.14884398939894  2.21867785078508  0.20419119411941
 6 -7.55130316431643 -1.18335666356636 -0.41213738273827
 6  8.07163894789479  3.71603045804580  0.53136732073207
 6 -7.57332562956296 -2.64698427532753 -0.79652833783378
 6  6.93333330433043  1.51817075807581 -0.02153463846385
 6 -6.41731442844284 -0.53257151905191 -0.16623554855486
 6  5.61080179417942  2.06949118711871  0.24832180118012
 6 -5.00252879887989 -1.04565163806381 -0.20112699069907
 6  4.54961374737474  1.31268746274627  0.05241315631563
 6 -3.92334363136314 -0.22205442944294 -0.06724953995400
 6  3.20244773577358  1.80706509750975  0.21236535253525
 6 -2.50522597859786 -0.66142622162216 -0.19439779477948
 6  3.02538410541054  3.22822051405140  0.63403106110611
 6 -2.24655342334233 -2.07985147714771 -0.51924315031503
 6  2.16013510251025  0.90844290829083  0.07254657465747
 6 -1.61177313731373  0.37076496549655 -0.00048399939994
 6  0.78234506350635  1.09425223922392  0.15969729772977
 6 -0.19912978297830  0.18226062606261 -0.20864183418342
 1  13.28222680268027 -1.02772618271827  1.39946563556356
 1  12.77727122612261 -2.81178439253925  1.49711739573957
 1 -14.50764373737374 -0.87803524542454  1.11047196819682
 1 -14.14856835183518 -0.61645951785178 -0.52580443644364
 1  12.64296530353035 -2.65800510761076 -1.16395695369537
 1 -13.18338877087709  1.34660864296430  1.62311004500450
 1  14.02543713071307 -0.09453687578758 -0.81086626762676
 1  13.18120367736774 -0.88625398249825 -2.41503423442344
 1 -13.38144335333533  1.70739579967997 -1.18559130213021
 1 -12.66802277527753  2.81781680178018 -0.26500546454645
 1  10.99589227822782 -1.80069849884989  3.34513920992099
 1  9.61839016601660 -0.90054985398540  2.13806056105611
 1  11.29246298829883 -0.17362622972297  2.64943832983298
 1  10.37896415941594 -2.89867464146415 -0.54422110511051
 1  10.56216521942194 -3.60369901290129  1.39645908590859
 1  9.17949526652665 -2.40708201620162  0.57389411041104
 1 -11.77173885988599 -0.36000849474947  2.38996929392939
 1 -11.15085792479248 -2.01096364026403  2.03887767176718
 1 -12.84802569556956 -1.99177659755976  2.42883346334633
 1 -13.57585803480348 -2.81979067496750  0.02204033503350
 1 -11.82222745774578 -3.27052364126413  0.02771566956696
 1 -12.40797865686569 -2.37077626952695 -1.60939368136814
 1  8.87746964996500 -0.43745815681568  0.10428754975498
 1 -10.06313107810781 -2.13636069997000 -0.72291609360936
 1  10.70104139613961  1.66148081808181 -2.00443250225022
 1  12.62229805880588  1.95177612051205 -1.71810741874187
 1  11.92764443444344  0.76426728162816 -2.97325001400140
 1 -11.25510991199120  2.34182974707471 -2.30151087208721
 1 -9.89728570657066  1.35427944704470 -2.25580154715472
 1 -10.07490167416742  2.62422507660766 -0.90575373137314
 1  14.79877900590059 -3.26729205630563 -0.18653037303730
 1 -15.36537123012301  1.59482678277828  1.72534363036304
 1  10.26230214921492  2.12953986198620 -0.12702587758776
 1 -8.57666240224022  0.66305090619062  0.11915128912891
 1  8.99710739773977  4.20720410241024  0.47238307930793
 1  7.43752013901390  4.07800266126613 -0.14361070707071
 1  7.57039629962996  3.85629669766977  1.55506234423442
 1 -8.34214700870087 -3.18408306620662 -0.26561185018502
 1 -7.73975834683468 -2.59683968686869 -1.85963785278528
 1 -6.55822159415942 -3.18203274317432 -0.78483391739174
 1  7.05899175417542  0.44242745774578 -0.35416329132913
 1 -6.53387036303630  0.49760725582558  0.30699557455746
 1  5.51702940794079  3.12729840184018  0.58723523252325
 1 -4.90283075407541 -1.94828250625063 -0.64318046804680
 1  4.62510570357036  0.17111185718572 -0.14864693269327
 1 -4.03996540054005  0.90814018601860 -0.01999071807181
 1  2.88744437243724  3.03254514451445  1.90256349734973
 1  1.98571683268327  3.77709869186919 -0.09832523052305
 1  4.33133851385138  3.86286291129113  0.42138908090809
 1 -2.40676179117912 -2.74452674467447  0.28252058705871
 1 -2.75442415541554 -2.48945600760076 -1.40492923492349
 1 -1.13246363136314 -2.22518006800680 -0.61622016501650
 1  2.50927229022902 -0.09613289428943 -0.29674588658866
 1 -1.91257588058806  1.34323256725673  0.30483657665767
 1  0.25209550855086  1.97408283528353  0.67491950195020
 1  0.24475626062606 -0.63853401740174 -0.74880655465547

