%nproc=4
%Mem=2GB
# td=(NStates=1) CAM-B3LYP/6-31G(d,p) 

TD

0 1
 8  14.71874739973997 -2.25162809590959 -0.28826574957496
 8 -14.49775483948395  2.11134643974397  0.95885541654165
 6  11.16147849384939 -1.42217476957696  0.95978213921392
 6 -12.43761892589259 -1.00596221412141  0.68341198519852
 6  12.61092465846585 -1.86657595369537  1.00473536553655
 6 -13.61736845584558 -0.05577359725973  0.71687449944994
 6  13.33164120312031 -1.87389971207121 -0.32921646664666
 6 -13.31078037103710  1.40765942704270  1.02631388238824
 6  10.97434676167617 -0.24516214321432  0.08715542254225
 6 -11.29966633063306 -0.35991699859986 -0.07466514251425
 6  13.31904239523952 -0.37692617771777 -0.83108586258626
 6 -12.53855629362936  1.88960196729673 -0.20008936193619
 6  11.92014788378838  0.17947833073307 -0.77661030403040
 6 -11.41844243924392  0.88658528762876 -0.53994599059906
 6  10.70199124012401 -1.13430887188719  2.41302468646865
 6  10.32829344934493 -2.61586935493549  0.34254764476448
 6 -11.86904871087109 -1.27456714861486  2.11491762276228
 6 -12.80829732473247 -2.34879610151015 -0.07099583758376
 6  9.57923316431643  0.36478543154315  0.10012397239724
 6 -10.02395796779678 -1.14084682658266 -0.46896818181818
 6  11.78747462746275  1.24959013291329 -1.81872386238624
 6 -10.59535782378238  1.58085756285629 -1.70328721872187
 6  9.36335024002400  1.68252449544954  0.06505314531453
 6 -8.81237263426343 -0.62301425032503 -0.26889199119912
 6  8.01543064806481  2.21535751875188  0.27318809380938
 6 -7.59465749974997 -1.31802012991299 -0.50743691269127
 6  7.80623240724072  3.75688454345435  0.48268245224522
 6 -7.57357565456546 -2.70517009390939 -1.00749943494349
 6  6.85074504550455  1.53819276027603  0.16720423542354
 6 -6.35629832683268 -0.64249251115111 -0.41554047904790
 6  5.51891260526053  2.08643288128813  0.23339030803080
 6 -5.09870841684168 -1.09803687658766 -0.67125400340034
 6  4.42413119911991  1.17649384338434  0.02620053505351
 6 -3.96784808180818 -0.29252147614761 -0.48626144114411
 6  3.05254274527453  1.69707409840984  0.08691280728073
 6 -2.61707716371637 -0.79540961996200 -0.65853420842084
 6  2.81201276827683  3.05684337633763  0.56017367536754
 6 -2.32771153915392 -2.17662115411541 -1.04504573057306
 6  2.04214330333033  0.70314237823782 -0.13334401440144
 6 -1.60045200520052  0.09983787278728 -0.21870582158216
 6  0.67954478347835  0.98083089708971 -0.13388206020602
 6 -0.20558042804280 -0.00377797779778 -0.24407537753775
 1  13.26696527652765 -1.17618102820282  1.84744043304330
 1  12.49963346234624 -2.77498071217122  1.52450013401340
 1 -14.24992796579658 -0.62371981388139  1.58052897389739
 1 -14.22356585158516 -0.00822869476948 -0.14468632463246
 1  12.82147315431543 -2.53647295439544 -1.17587814581458
 1 -12.63766419841984  1.55846982908291  1.80488822282228
 1  14.05651023802380  0.23646622452245 -0.29042422342234
 1  13.85283084008401 -0.32612796989699 -1.92411514251425
 1 -13.16419162816282  1.69447450755075 -0.98481122412241
 1 -12.08365433843384  2.83257827792779  0.07806884288429
 1  10.79477216621662 -2.00059848884889  3.02417711371137
 1  9.73479180618062 -1.09037883688369  2.33565032003200
 1  11.21812555455545 -0.27559642674267  2.91687507350735
 1  10.60274653765377 -3.13456823082308 -0.48026470947095
 1  10.33916291919192 -3.30671931493149  1.05551499149915
 1  9.25478279527953 -2.43922523052305  0.32020874187419
 1 -11.56188787478748 -0.20855334923492  2.63323362036204
 1 -11.02079491849185 -2.02203474737474  1.94657844184419
 1 -12.55679657265726 -1.80985840574057  2.76330691069107
 1 -13.51303175217522 -2.85379407530753  0.44155228622862
 1 -11.97068230323032 -3.13578016691669 -0.05209231123112
 1 -13.06865472447245 -2.10474966686669 -1.25799854185419
 1  8.69503140614061 -0.35614002500250 -0.04760763976398
 1 -10.29282404740474 -2.25058212211221 -0.49735353735373
 1  10.63704499649965  1.36398106810681 -2.03331539053905
 1  12.25950177917792  2.24015495839584 -1.61274688268827
 1  12.31563323332333  0.91009186408641 -2.77705039403940
 1 -11.14878927992799  2.15245080918092 -2.36181690269027
 1 -10.00174615261526  0.86116013511351 -2.10672663966397
 1 -10.00483466746675  2.43966662076208 -1.23825698169817
 1  14.92823195119512 -3.10072539963996 -0.07501922192219
 1 -15.07461215421542  1.77218451855186  1.74447554355436
 1  10.16890280928093  2.54544145214521 -0.13821699669967
 1 -8.64980971697170  0.37817241834183 -0.15403602960296
 1  8.80537822482248  4.38222160416042  0.65989183018302
 1  7.12545893289329  4.05340020102010 -0.26041238723872
 1  7.40228948894889  3.84493556155615  1.52605944394439
 1 -7.73186598059806 -3.51659631753175 -0.13289857885789
 1 -8.44624899589959 -2.80715071797180 -1.74288617761776
 1 -6.63055882788279 -2.84222876277628 -1.44465989999000
 1  6.84936079107911  0.52925614061406 -0.15747362236224
 1 -6.45731270727073  0.49595709080908 -0.08211333633363
 1  5.57252495749575  3.11110678267827  0.48403491249125
 1 -4.96394686568657 -2.19540721872187 -0.80801695169517
 1  4.83807700070007 -0.00055530953095 -0.05984805280528
 1 -4.00059146314632  0.73277264926493 -0.26347506650665
 1  3.37740336833683  3.35010690069007  1.26768000900090
 1  1.72783104410441  3.25619660166017  0.61117571957196
 1  3.10196557655766  3.66367299229923 -0.43994705270527
 1 -2.75638675367537 -2.95777806980698 -0.47919558455846
 1 -2.73207192019202 -2.27283434543454 -2.23080182218222
 1 -1.34018440344034 -2.41087863786379 -1.00936947994800
 1  2.29637100010001 -0.23614689568957 -0.15206141814181
 1 -1.91506612961296  1.18618686268627  0.08426451945194
 1  0.56177647664766  2.07271269826983  0.26537854785479
 1  0.38854063906391 -0.90284044804480 -0.39800147414741

