%nproc=4
%Mem=2GB
# td=(NStates=1) CAM-B3LYP/6-31G(d,p) 

TD

0 1
 8  14.67779330433043 -2.31286421952195  0.00970404740474
 8 -14.54769983398340  1.94338964406441  1.17149668066807
 6  11.05271761776178 -1.43368592069207  0.99415557655766
 6 -12.23514867886789 -1.06464808270827  0.82554619861986
 6  12.53168673467347 -1.95456475257526  1.20524541654165
 6 -13.59679639863986 -0.27791581148115  0.86010882288229
 6  13.36101414041404 -1.90511283338334 -0.12146569156916
 6 -13.41473076607661  1.23684234533453  1.13056430743074
 6  10.97407673467347 -0.18111573857386  0.13141984898490
 6 -11.21681804580458 -0.25074608150815 -0.15244292029203
 6  13.32317280828083 -0.55033351845185 -0.80687344134413
 6 -12.59933237123712  1.90391339843984  0.01939258625863
 6  11.95791166016602  0.16274665756576 -0.65458810181018
 6 -11.44879547454745  0.95580220932093 -0.54137613361336
 6  10.48095913691369 -1.05717115811581  2.42325570957096
 6  10.26693731373137 -2.63640140814081  0.44491788178818
 6 -11.59897170317032 -1.46050574247425  2.16532266326633
 6 -12.63394988998900 -2.37467868976898  0.01767302930293
 6  9.67274251525152  0.41023997699770  0.11205516551655
 6 -10.08757432943294 -0.94902764466447 -0.46132741774177
 6  11.83179905990599  1.29132430633063 -1.67241923192319
 6 -10.54261254925492  1.93998347544754 -1.32496938693869
 6  9.27724162916292  1.67861410441044  0.10257689768977
 6 -8.76421781878188 -0.48200014891489 -0.49928503050305
 6  7.99283838883888  2.27665364836484  0.03272404740474
 6 -7.56755478947895 -1.22226055395540 -0.76993316231623
 6  7.89850163416342  3.74593344834483  0.52714689868987
 6 -7.70583888088809 -2.63439301620162 -1.29358804380438
 6  6.83226319731973  1.58317725872587 -0.13377586258626
 6 -6.31753445044504 -0.51843010491049 -0.66037496249625
 6  5.46858757275728  2.10466470447045  0.01041801080108
 6 -5.14913345934593 -1.02101917481748 -0.82403928192819
 6  4.44952373837384  1.34491068506851 -0.20034211921192
 6 -3.96488778577858 -0.40848307230723 -0.58350116511651
 6  3.02097958895890  1.66543093409341 -0.09360524452445
 6 -2.59315477147715 -0.81646172517252 -0.63354170917092
 6  2.73517508450845  3.14109180118012  0.35732339033903
 6 -2.21557032503250 -2.22246573857386 -0.91161238723872
 6  2.08272736173617  0.67681974597460 -0.28971965196520
 6 -1.69128108810881  0.15575346434643 -0.38522247324733
 6  0.68708553755376  0.86418923292329 -0.20992966496650
 6 -0.27259712971297 -0.13560116011601 -0.34820579057906
 1  13.15189376937694 -1.41097450755075  2.00831652065206
 1  12.77683118211821 -3.02242545664566  1.51953963796380
 1 -14.03600657365737 -0.84117155905591  1.74059498049805
 1 -14.24107760276028 -0.52171004290429 -0.00705256125613
 1  12.77770877787779 -2.65466477357736 -0.77878843684368
 1 -12.82022245424542  1.30309429152915  2.07483521752175
 1  14.11130571757176  0.22354493239324 -0.46025120612061
 1  13.63525908290829 -0.46051140824082 -1.91248397939794
 1 -13.44708991799180  2.07092215231523 -0.64535727872787
 1 -12.07521349434944  2.71616663676368  0.41835287128713
 1  10.72873556255626 -1.73541197019702  3.17035173117312
 1  9.52520084708471 -0.97758755775578  2.24865162016202
 1  10.83226696869687 -0.01339020612061  2.77293067906791
 1  10.60672693569357 -2.72657743174318 -0.47846452945294
 1  10.51146014891489 -3.70100874387439  0.84993443344334
 1  9.19007632463246 -2.64857616561656  0.61812853385339
 1 -11.26936862286229 -0.40068256215622  2.91189148614862
 1 -10.92147498649865 -2.07163970787079  2.11017480148015
 1 -12.45751664466447 -1.87916533643364  2.76027660766077
 1 -13.36288673767377 -2.92235093099310  0.76666479747975
 1 -11.64445968096810 -2.92813940284028 -0.06730383238324
 1 -12.97204506350635 -2.19315850775078 -1.00355309730973
 1  8.78038994199420 -0.11116552755276  0.18551567256726
 1 -10.31229599459946 -1.93074013791379 -0.57863166516652
 1  10.83913520552055  1.57350202020202 -1.91201326032603
 1  12.29566539553955  2.13286422932293 -1.35226083408341
 1  12.07581925192519  0.99775062996300 -2.66089877887789
 1 -11.38862326332633  2.51857742184218 -1.82814353535354
 1 -9.84311028902890  1.30911493059306 -2.03624959195920
 1 -9.94473865786579  2.50692334643464 -0.74445760176018
 1  14.76279540754076 -3.34804013111311  0.09993827382738
 1 -15.27535222822282  1.25342264236424  1.72864396039604
 1  10.13252917191719  2.39229613761376 -0.08800197519752
 1 -8.75054979097910  0.62753735483548 -0.22955358135814
 1  9.01421910891089  4.18929231123112  0.57509335033503
 1  7.46817320432043  4.35054991599160 -0.18747509350935
 1  7.40580984098410  3.62971403940394  1.50020685868587
 1 -8.05178797279728 -3.11838649654965 -0.42821811081108
 1 -8.37144151515152 -2.88622862576258 -2.24620650965097
 1 -6.66942271427143 -3.01159569946995 -1.53760919491949
 1  6.97611346634664  0.50276349134913 -0.31910978597860
 1 -6.52469944594460  0.42249974507451 -0.13508863386339
 1  5.39623732873287  3.22290796279628  0.39639614861486
 1 -5.07337780878088 -2.04369204720472 -0.96406255625563
 1  4.68705189818982  0.34761950795079 -0.36648871687169
 1 -4.21597300130013  0.52068144014401 -0.22030074907491
 1  2.78957458545855  3.07266915691569  1.58545178617862
 1  1.75021328232823  3.57376835883588 -0.23916931493149
 1  3.61396677667767  3.96600322532253  0.00699764176418
 1 -2.96487760276028 -2.88288058005801 -0.23451111611161
 1 -2.57837655065507 -2.49323638563856 -1.90766950895090
 1 -1.22772315731573 -2.50950850085009 -0.72273081608161
 1  2.39796115911591 -0.27351063206321 -0.42766897889789
 1 -1.91315593859386  1.28111635563556  0.11705779877988
 1  0.38215851485149  1.91591701870187 -0.16794478447845
 1 -0.00207842284228 -1.10114027802780 -0.70441211521152

