%nproc=4
%Mem=2GB
# td=(NStates=1) CAM-B3LYP/6-31G(d,p) 

TD

0 1
 8  14.79185471047105 -2.13690662376238 -0.15195211821182
 8 -14.86051111511151  1.84319962506251  0.99510904190419
 6  11.17339968596860 -1.45169772187219  1.00157631863186
 6 -12.34333949794979 -0.98501011891189  0.63049669366937
 6  12.72844641064106 -1.78808810491049  1.08415330733073
 6 -13.78235495449545 -0.33594161406141  0.58379119111911
 6  13.38158619761976 -1.80692301440144 -0.23371691669167
 6 -13.50964025702570  1.23107176827683  0.95111636263626
 6  11.03875320232023 -0.21325895289529  0.12488919591959
 6 -11.30375673967397 -0.21500250715072 -0.12385006100610
 6  13.33203369436944 -0.46929541464146 -0.91773452745275
 6 -12.75301773977398  1.89371237833783 -0.23307266026603
 6  11.94422029102910  0.16435681858186 -0.81952459545955
 6 -11.61048164316432  1.03593022212221 -0.51945394139414
 6  10.67983902490249 -1.17638307930793  2.43536692069207
 6  10.49805042504250 -2.64889265726573  0.48743213321332
 6 -11.84005581158116 -1.17364705660566  2.04487061806181
 6 -12.65666216121612 -2.25147636953695 -0.12327106510651
 6  9.64134937593759  0.31816076907691  0.15983994399440
 6 -10.12976854885489 -0.99951269316932 -0.38779006400640
 6  11.65117099709971  1.17484265816582 -1.88746073607361
 6 -10.53342163016302  1.86942641974197 -1.36685357535754
 6  9.38181208620862  1.73625986898690  0.09939657965797
 6 -8.83893529052905 -0.49326127502750 -0.36803190519052
 6  8.09182828782878  2.28413439643964  0.20730150515052
 6 -7.64137217121712 -1.28360668856886 -0.47188335733573
 6  8.00339212321232  3.82791164616462  0.68643282728273
 6 -7.75740403740374 -2.63723330023002 -0.88710739573957
 6  6.94197416841684  1.54883382438244 -0.15153763876388
 6 -6.37969066606661 -0.67464572647265 -0.37538646364636
 6  5.64032474647465  1.97832207020702  0.01943891289129
 6 -5.10565911191119 -1.12723979687969 -0.48649552755276
 6  4.51181996799680  1.23003919791979 -0.12938502350235
 6 -4.03494479147915 -0.40617284128413 -0.33446626162616
 6  3.14963245424542  1.59826421742174  0.03257737373737
 6 -2.61612706870687 -0.80481056005601 -0.59040739573957
 6  2.89646121312131  2.99416710871087  0.57744540254025
 6 -2.41695046304630 -2.09130262226223 -1.11549277527753
 6  2.20805989498950  0.64985704970497 -0.39168984898490
 6 -1.57303926392639  0.09092698169817 -0.28546249724973
 6  0.74106093509351  0.85664847884788 -0.19727839983998
 6 -0.26805667566757 -0.12910051005101 -0.48014898489849
 1  13.47019559955996 -1.09619302940294  1.67867355635563
 1  13.05657915691569 -2.65509872397240  1.59231691569157
 1 -14.40812378537854 -0.71738918081808  1.43716463746375
 1 -14.23587708270827 -0.26935480738074 -0.28532038803880
 1  12.86229723672367 -2.38373768086809 -0.94809536753675
 1 -13.00594102610261  1.36881086318632  1.93702143614361
 1  14.03034762176218  0.20054263216322 -0.41170635163516
 1  13.71593715071507 -0.48816417351735 -2.04793752475247
 1 -13.35913112211221  2.10167522762276 -1.12290503350335
 1 -12.32891886488649  2.77864288438844  0.24029506550655
 1  10.83950663966397 -2.14050247924792  3.00495519151915
 1  9.68330665766577 -1.03257305630563  2.63285004000400
 1  11.33154689668967 -0.28243711081108  2.87080046604660
 1  10.77773403640364 -2.91123589758976 -0.55270195319532
 1  10.59121812471247 -3.50923956695670  1.16556599659966
 1  9.27282459945995 -2.75341664966497  0.45291201220122
 1 -11.76710839683968 -0.33745623952395  2.98069836683668
 1 -10.92056489548955 -1.48926147004700  2.06036982098210
 1 -12.52071296429643 -1.91924934483448  2.56752733273327
 1 -13.63608405740574 -2.56977567346735  0.44547267826783
 1 -11.95475071007101 -3.00581717061706 -0.03520062206221
 1 -12.72981084008401 -1.96742593449345 -1.09464220622062
 1  8.85934783778378 -0.27733214421442  0.50738785978598
 1 -10.14913967896790 -2.03557062096210 -0.64599840184018
 1  10.54628592059206  1.33759842984298 -1.91776383538354
 1  12.10790661966197  2.39443038593859 -1.88820442844284
 1  12.19645131513151  0.90666152105211 -2.77441013001300
 1 -11.15675007600760  2.46939250335033 -2.24034475547555
 1 -9.69913589158916  1.35480950005000 -1.86276224322432
 1 -10.04675885988599  2.57237989208921 -0.91449460546055
 1  14.78231735973597 -3.00049537663766  0.20583886388639
 1 -15.10272496549655  1.60600790089009  1.87450854685469
 1  10.17655357435744  2.59518642664266  0.04744156915692
 1 -8.58836357235723  0.68187278837884  0.04380375437544
 1  8.86491417841784  4.30031341334133  1.02544838583858
 1  7.64113050005000  4.40306516751675 -0.13753009900990
 1  7.41139039903990  3.96797786578658  1.65950278827883
 1 -8.42438523252325 -3.26533119101910 -0.17791308030803
 1 -8.25944031503150 -2.58491849474947 -1.96385827482748
 1 -6.80161593359336 -3.32292683258326 -0.86740217421742
 1  7.10607646264627  0.35889910491049 -0.54318219321932
 1 -6.46655363136314  0.36765426052605  0.14758963396340
 1  5.55135284028403  3.06665233723372  0.22470897989799
 1 -5.00368083908391 -2.19434711271127 -0.95901205120512
 1  4.91789498249825  0.18024277027703 -0.52909497749775
 1 -3.91927333133313  0.71106047804781  0.28502978397840
 1  3.05083071107111  2.92859474947495  1.50849409040904
 1  1.81010927192719  3.24131511351135  0.46929153115311
 1  3.63984936493649  3.86747337233723  0.05948289028903
 1 -2.55856697169717 -2.94144643664366 -0.30407807280728
 1 -2.97319603260326 -2.44605166716672 -1.96675541754175
 1 -1.18884926992699 -2.27955550555055 -1.57555609860986
 1  2.67837920092009 -0.34726800780078 -0.57918413041304
 1 -1.84848947194719  1.08740698469847 -0.01879578657866
 1  0.54305460446045  1.70409583658366  0.11509351935193
 1  0.01094287928793 -1.12872303630363 -0.95922759675968

