%nproc=4
%Mem=2GB
# td=(NStates=1) CAM-B3LYP/6-31G(d,p) 

TD

0 1
 8  14.56710223522352 -2.21687462056206 -0.28424534753475
 8 -14.70969603360336  1.91727703280328  1.05258478947895
 6  11.12127447344734 -1.42042459455946  1.01867802880288
 6 -12.32259742374237 -1.02218383628363  0.64412805680568
 6  12.62232579857986 -1.80814011011101  1.04658955095510
 6 -13.59412613161316 -0.16271429132913  0.73912672467247
 6  13.24503254225423 -1.85684800690069 -0.33484702970297
 6 -13.45381467446745  1.24878353945395  0.94245549654965
 6  10.90853018001800 -0.26681430843084  0.11326803380338
 6 -11.26894325832583 -0.21859286618662 -0.25114279027903
 6  13.11563205420542 -0.57955644074407 -1.07392014601460
 6 -12.69137157515751  1.78614162126213 -0.24923427642764
 6  11.75803167216722  0.17378776167617 -0.90709335233523
 6 -11.43482407740774  1.08984561366137 -0.52258425442544
 6  10.74676571757176 -1.14340978197820  2.50928431243124
 6  10.31200182018202 -2.63318108610861  0.48673206320632
 6 -11.68875068106811 -1.28633832573257  2.07732386338634
 6 -12.66336283128313 -2.30813203510351 -0.07590632863286
 6  9.58551379237924  0.37524647764776  0.34725868586859
 6 -9.97372294429443 -0.96668941084108 -0.44491577657766
 6  11.55919179917992  1.32343751765177 -1.85741773177318
 6 -10.40874916291629  1.87366684378438 -1.34827171717172
 6  9.35415932093209  1.71225746874687  0.09958659865987
 6 -8.73339473647365 -0.56161811071107 -0.35353045504550
 6  8.07810691569157  2.34086006900690  0.24829560456046
 6 -7.53260129412941 -1.29922825072507 -0.64142031103110
 6  7.98634041804180  3.82362121712171  0.39661384538454
 6 -7.72627092409241 -2.74917449434943 -0.97732641764176
 6  6.91514148514851  1.54167310831083  0.20407792279228
 6 -6.36718941594159 -0.65257351925193 -0.52099102410241
 6  5.56991770577058  2.02451668966897  0.29840680968097
 6 -5.06372491849185 -1.20143721662166 -0.68018489648965
 6  4.49747853385338  1.21514770877088 -0.03876596159616
 6 -3.95627692469247 -0.36579880388039 -0.41875469046905
 6  3.16888437943794  1.61150554155416  0.12118623462346
 6 -2.60535599159916 -0.82575265426543 -0.50260861586159
 6  2.84640620762076  3.04899259125913  0.37638529652965
 6 -2.24820358835884 -2.20863435543554 -0.90458168416842
 6  2.22545163416342  0.69274133813381 -0.23213389338934
 6 -1.56217817781778  0.17664555355536 -0.31348529952995
 6  0.74877170617062  0.88222103610361 -0.24651332333233
 6 -0.22823269326933 -0.03586118611861 -0.33308427842784
 1  13.20610919091909 -1.04167757785779  1.56710239923992
 1  12.81377487648765 -2.72888610271027  1.73674135813581
 1 -14.42328530153015 -0.60874831673167  1.32845376637664
 1 -14.07321081608161 -0.01557942984298 -0.26248810481048
 1  12.71051205820582 -2.43799310641064 -1.02979353735374
 1 -13.06604703670367  1.47298128022802  1.92391012501250
 1  13.89525411241124  0.12907548544855 -0.86910209120912
 1  13.22668822582258 -0.71489684678468 -2.01617434843484
 1 -13.32610781978198  1.84772983308331 -1.20120286328633
 1 -12.45942191519152  2.79428444854485  0.06219725572557
 1  10.91637432643264 -1.97303573257326  3.19314401040104
 1  9.77625595259526 -1.02561236023602  2.71436819181918
 1  11.14754849684969 -0.15715458255826  2.85178856485649
 1  10.46981324432443 -2.86505127912791 -0.72906958995900
 1  10.44837384028403 -3.61081972497250  1.11012045204520
 1  9.25510282728273 -2.42481378937894  0.94518123912391
 1 -11.88498018401840 -0.31268376227623  2.77377767476748
 1 -10.62850568956896 -1.71629417331733  2.02534631863186
 1 -12.59866075907591 -1.91265868576858  2.37265784578458
 1 -13.51192164116411 -2.88957765366537  0.31374950595059
 1 -11.73265850085009 -3.03529011791179 -0.05200230223022
 1 -12.89977783678368 -2.32985217711771 -1.11586432843284
 1  8.83301520452045 -0.13383779477948  0.73919104010401
 1 -10.20651541654165 -2.01693875777578 -0.81045484748475
 1  10.61544283628363  1.43201787178718 -1.95001706070607
 1  12.12680850985099  2.32281322422242 -1.48956456445645
 1  11.99885155515551  1.18583943884388 -2.82013470247025
 1 -11.04757915891589  2.45707127122712 -2.12198291929193
 1 -9.73749972797280  1.38085210431043 -1.91506747374737
 1 -9.99630381438144  2.61694434853485 -0.49399255525553
 1  14.68452758075808 -3.30865619271927 -0.13928564856486
 1 -15.32834752775278  1.42440974107411  1.65327642364236
 1  10.14764068306831  2.43773068106811  0.12547937293729
 1 -8.37737247324733  0.39289389048905  0.12313168716872
 1  8.98911659865987  4.29920330233023  0.80995683668367
 1  7.58947533453345  4.26179104010401 -0.48937528352835
 1  7.31851111111111  4.10273134113411  1.32860969896990
 1 -8.33121591559156 -3.22008666656666 -0.21697698669867
 1 -8.16864123512351 -2.66332633553355 -1.99593148214821
 1 -6.74562033403340 -3.36287082698270 -1.26028146214621
 1  6.93903975897590  0.72703591859186 -0.08462633763376
 1 -6.47643461946195  0.47558505360536 -0.23915904090409
 1  5.33935164016402  3.09130480248025  0.51891840084008
 1 -4.75999647064706 -2.15864354235423 -0.83251940194019
 1  4.38730192319232  0.19189393539354 -0.56333840184018
 1 -4.06127753175318  0.60951032303230 -0.11502022102210
 1  2.98647427542754  3.28500039003900  1.48103134413441
 1  1.74877313831383  3.08972995499550  0.20079468146815
 1  3.28743412341234  3.59056568156816 -0.29388244624462
 1 -2.48789990499050 -2.98886117811781 -0.06668433343334
 1 -3.07060577357736 -2.60171723372337 -1.66864560656066
 1 -1.21197158215822 -2.40604815481548 -1.15399394239424
 1  2.51481284428443 -0.45529881088109 -0.15605181718172
 1 -1.98238286128613  1.16041428542854 -0.20253416041604
 1  0.36528682768277  1.98072349934993 -0.15810380038004
 1  0.04644642964296 -1.11842200620062 -0.52628430243024

