%nproc=4
%Mem=2GB
# td=(NStates=1) CAM-B3LYP/6-31G(d,p) 

TD

0 1
 8  14.68651417641764 -2.14117705080508 -0.05416233923392
 8 -14.60359542354235  2.09933523862386  1.20119965096510
 6  11.18222056805680 -1.43039559165917  1.07657381838184
 6 -12.30651581558156 -0.98903052095210  0.70302394639464
 6  12.65410897689769 -1.76495579167917  1.10120501250125
 6 -13.61136785578558 -0.14063208310831  0.91756456845685
 6  13.27663570257026 -1.87139946204620 -0.19969351435144
 6 -13.40486977997800  1.33456211731173  1.05197644864486
 6  10.92348167516752 -0.17323495049505  0.09746645364536
 6 -11.32160852485249 -0.21354236113611 -0.21289896589659
 6  13.16364685568557 -0.54931341644164 -0.91181393539354
 6 -12.63323576157616  1.95511851895189 -0.16814616761676
 6  11.88437430643064  0.22618300120012 -0.82238488148815
 6 -11.41453204820482  1.06866349544954 -0.53361535753575
 6  10.66869791079108 -1.14530997199720  2.53555693969397
 6  10.39359997999800 -2.61403917191719  0.45135852585259
 6 -11.78120992699270 -1.38058775067507  2.11751788278828
 6 -12.78932542754275 -2.23070429232923 -0.09392813081308
 6  9.66901214221422  0.44224317731773  0.16509046904690
 6 -10.10871644364437 -1.01692443434343 -0.45648693369337
 6  11.71287716771677  1.33356853075308 -1.80071206120612
 6 -10.38076636463646  1.82943242034203 -1.36294318431843
 6  9.39091299629963  1.76392263526353 -0.05541890189019
 6 -8.77803920092009 -0.57225917481748 -0.41620672267227
 6  8.06304540954095  2.34252023502350  0.16171694669467
 6 -7.56461449544955 -1.42152047994799 -0.71534770377038
 6  7.87975975997600  3.87792664766477  0.32972715671567
 6 -7.68860715771577 -2.80484006090609 -1.16799548454845
 6  6.92890286128613  1.54675361636164 -0.03816630163016
 6 -6.36788948594860 -0.76860512241224 -0.55358428342834
 6  5.64611532553255  2.00210444844484  0.07603457245725
 6 -5.06194474047405 -1.26356342924292 -0.83245012301230
 6  4.49126791279128  1.14918111211121  0.05656357135714
 6 -3.95080637763776 -0.50234245824582 -0.54431724672467
 6  3.16789428042804  1.62059645064506  0.05564968096810
 6 -2.57881333733373 -0.79682976197620 -0.66355471047105
 6  2.70181174817482  2.95131282328233  0.60115777377738
 6 -2.46758552655266 -2.21522501450145 -1.17267849384938
 6  2.07468655765577  0.57007907190719 -0.12817349734973
 6 -1.62828478847885  0.12354024302430 -0.31295524652465
 6  0.67985481448145  0.86655946994699 -0.13944261626163
 6 -0.29804967496750 -0.02175977597760 -0.40669163916392
 1  13.41935051505151 -1.00217362746275  1.33409909890989
 1  12.71467496649665 -2.65751896599660  1.83533121712171
 1 -14.11604457745775 -0.70551799369937  1.80230115111511
 1 -14.31599509450945 -0.04086195809581  0.23848199219922
 1  12.74533554055406 -2.67104641174117 -0.79562012001200
 1 -12.91391182318232  1.77973195529553  1.98083581758176
 1  14.02380696769677  0.13034561246125 -0.53053823482348
 1  13.36296185318532 -0.60073543064306 -2.00382311331133
 1 -13.28480368936894  1.99847490759076 -0.98279102210221
 1 -12.34744071707171  2.95204022412241 -0.04650361436144
 1  10.64996768576858 -1.99221765076508  3.19848454445445
 1  9.68330665766577 -0.75950574957496  2.56698345334533
 1  11.18149189118912 -0.45616448354835  2.95527891389139
 1  10.65886214921492 -2.78634340834083 -0.58485516851685
 1  10.76453545644564 -3.61205984898490  1.06251569156916
 1  9.26740405740574 -2.42277358535854  0.66627334833483
 1 -11.64168585458546 -0.53677617151715  2.82907320432043
 1 -10.65251809080908 -1.85130767466747  2.08447223122312
 1 -12.46861775477548 -2.07514493439344  2.58712929292929
 1 -13.78358880788079 -2.64501319721972  0.20313844484448
 1 -11.95062029702970 -3.03097968686869  0.03756665466547
 1 -12.98301616061606 -1.91888108000800 -1.15812855485549
 1  8.79295119811981 -0.12288669966997  0.47426454745475
 1 -10.16235100010001 -2.08274533843384 -0.38565236723672
 1  10.67401869386939  1.40493516351635 -1.79497155615562
 1  12.25913174217422  2.17446838973897 -1.50146575457546
 1  12.14158582858286  0.85342619751975 -2.84704739373937
 1 -10.96015041604160  2.74433999809981 -1.88087880888089
 1 -9.98645462346235  0.92141616071607 -2.05683165016502
 1 -9.57395157915792  2.26013866796680 -0.58967212321232
 1  14.87305643364336 -2.95938126522652  0.35804408440844
 1 -14.94038873187319  1.87109440954095  1.99214031003100
 1  10.16897281628163  2.40304721272127 -0.08233140814081
 1 -8.47732246824683  0.45347994909491 -0.12205283128313
 1  8.81395908290829  4.18572195419542  0.58458429942994
 1  7.70660704770477  4.25045990699070 -0.78416476247625
 1  7.17612687268727  3.92806387438744  1.24492133013301
 1 -8.34352714671467 -3.39274393229323 -0.37370265926593
 1 -8.40025439643964 -2.86610661356136 -2.12243413241324
 1 -6.82528830083008 -3.18950349024902 -1.23190862486249
 1  7.11238709370937  0.51144435943594 -0.22930080508051
 1 -6.31720869686969  0.25931342644264 -0.01498662366237
 1  5.49044674967497  3.01631730373037  0.19360586958696
 1 -5.02695316631663 -2.20253793179318 -1.11296744674467
 1  4.55248844184418 -0.03484873887389 -0.00369243724372
 1 -4.26468787278728  0.51158053005301 -0.09049776877688
 1  2.99250487848785  3.17386927692769  1.58125136613661
 1  1.59955821682168  3.11811279327933  0.54308891089109
 1  3.16869224922492  3.72507913291329 -0.13925698369837
 1 -2.86664777977798 -3.07090938293829 -0.74196186118612
 1 -2.75581429442944 -2.15724278627863 -2.27070581258126
 1 -1.36140652565257 -2.49916746674667 -1.17064560756076
 1  2.67690905390539 -0.18753203420342 -0.40032624462446
 1 -1.84623924692469  1.13080132413241  0.09866595959596
 1  0.30625092409241  1.72807823482348  0.35019702970297
 1 -0.04249246424642 -0.98444860886089 -0.62511418541854

