%nproc=4
%Mem=2GB
# td=(NStates=1) CAM-B3LYP/6-31G(d,p) 

TD

0 1
 8  14.75261078607861 -2.17250018311831  0.30175325232523
 8 -14.75620068406841  1.87239254435444  1.46772630363036
 6  11.02158450445044 -1.59239179127913  0.94748090909091
 6 -12.30709587358736 -1.01894351225123  0.57452109610961
 6  12.55708927492749 -1.93820311641164  1.20230512251225
 6 -13.63247996699670 -0.24837285718572  0.72701551355136
 6  13.36513455245525 -1.82725504760476 -0.03140668566857
 6 -13.48334762776278  1.15820448154816  1.21364261526153
 6  10.87373670067007 -0.31358898589859  0.14177088408841
 6 -11.23527989198920 -0.24662566946695 -0.21267894389439
 6  13.35424591559156 -0.39833831893189 -0.54818757275728
 6 -12.60915335333533  1.90577358445845  0.20624127112711
 6  11.96977284628463  0.17563794669467 -0.59366200920092
 6 -11.48101869686969  1.03360999009901 -0.44049604560456
 6  10.38604964596460 -1.45414085508551  2.46992037603760
 6  10.26835745574557 -2.80202797079708  0.31685507550755
 6 -11.79268107410741 -1.47497718961896  1.99179531053105
 6 -12.63899039403940 -2.34175539743974 -0.18481721972197
 6  9.62538777977798  0.35321427442744  0.15954991499150
 6 -10.01670724272427 -0.99723246514651 -0.63807509250925
 6  11.88531441144115  1.32359753365337 -1.66240823082308
 6 -10.51170945894589  1.96969644674467 -1.12528941894189
 6  9.33681758675868  1.65488173117312  0.07163380338034
 6 -8.79918131513151 -0.57525947484748 -0.42110721272127
 6  8.00509961496149  2.30183616661666 -0.05342456745675
 6 -7.58406644064406 -1.18509683758376 -0.69461563056306
 6  7.86945872987299  3.87781663666367  0.40031421542154
 6 -7.57022531953195 -2.61673125002500 -0.95620430543054
 6  6.85783575457546  1.74219316031603 -0.31398388338834
 6 -6.35020771777178 -0.55580384228423 -0.51369029402940
 6  5.61935264926493  2.17421165916592 -0.33861689268927
 6 -5.00054860086009 -1.04754182708271 -0.61486836483648
 6  4.44775356135614  1.34687088108811 -0.47499958495850
 6 -3.85022631963196 -0.35951817581758 -0.37464027902790
 6  3.07204469546955  1.70863525452545 -0.18411429542954
 6 -2.62272772877288 -0.82284236323632 -0.67419577457746
 6  2.74764633163316  3.17589528152815  0.22965062306231
 6 -2.38994776277628 -2.20580407240724 -1.06567779377938
 6  2.12003109210921  0.78075013901390 -0.44704538453845
 6 -1.60111207120712  0.03962185118512 -0.36262021302130
 6  0.73113994299430  0.87322013601360 -0.21084975697570
 6 -0.21957182718272 -0.07218481848185 -0.52673364336434
 1  12.89414799479948 -1.22858626872687  2.19020470947095
 1  12.46712021102110 -2.89993320742074  1.74507219121912
 1 -14.32808578157816 -0.71193863576358  1.43686460746075
 1 -14.37771126612661 -0.15638351025103 -0.17367922392239
 1  13.33138414541454 -2.61377068416842 -0.75144570257026
 1 -12.81004143614361  1.19154313641364  2.03403113711371
 1  14.12693728072807  0.36681925982598 -0.07427260826083
 1  13.93921947894789 -0.46489184628463 -1.51970470147015
 1 -13.25590079907991  2.20195525562556 -0.60973371637164
 1 -12.33056902990299  2.98061308140814  0.77211824782478
 1  10.29311200020002 -2.38821725072507  3.05145984198420
 1  9.28870719771977 -1.33112291129113  2.49093584858486
 1  10.85439918191819 -0.61197006410641  3.08187157315732
 1  10.54478074107411 -2.87181195519552 -0.81699838283828
 1  10.52180118301830 -3.68436707970797  0.72751219121912
 1  9.26981429842984 -2.35035634363436  0.25762248324832
 1 -11.56463814981498 -0.48878137203720  2.35510580758076
 1 -10.83520635963596 -2.14465700960096  1.81481526552655
 1 -12.56008690169017 -1.99533695359536  2.45162574257426
 1 -13.53916436543654 -2.80986968286829  0.32153028402840
 1 -11.94588982398240 -3.11578816771677 -0.24038114011401
 1 -13.10482834183418 -2.13984317621762 -1.17738048004800
 1  8.79487139013901 -0.66058046904690  0.19144626562656
 1 -10.24963972897290 -2.00462752665266 -1.30080388238824
 1  10.93471476347635  1.65728039803980 -2.08449050805081
 1  12.45398122712271  2.28486942984298 -1.35103071107111
 1  12.52082375237524  0.91701255615561 -2.55900858985899
 1 -11.05492989398940  2.68443400750075 -1.66068678967897
 1 -9.98879485748575  1.25859987908791 -1.85043101010101
 1 -9.85516970097010  2.58903155725573 -0.50925408140814
 1  15.01600072807281 -2.92041736883688  0.87251553155316
 1 -15.16131082408241  1.66307360746075  2.26524762076208
 1  10.21023694269427  2.27572448044804  0.24667149214921
 1 -8.63091782778278  0.61884648574857 -0.28127875387539
 1  8.85918360536054  4.50891427342734  0.45887172817282
 1  7.30210659765977  4.31289615061506 -0.29495584158416
 1  7.17535679567957  3.91263233123312  1.27221405940594
 1 -8.11472426642664 -3.16935159305931 -0.14915020402040
 1 -8.06804117511751 -3.04055405830583 -1.83398528752875
 1 -6.63098887088709 -3.10031457135714 -0.89149458345835
 1  7.24101995699570  0.68836205120512 -0.48526640164016
 1 -6.28649562556256  0.44706220132013 -0.57006213121312
 1  5.72261996699670  3.18324399639964 -0.00279377037704
 1 -4.86491696269627 -2.15964364236424 -0.60525667566757
 1  4.65227842084208  0.14385913191319 -0.61207327532753
 1 -4.02016342034204  0.69855922792279 -0.26049476847685
 1  2.49712534053405  3.22513440344034  1.53570681168117
 1  1.54539280028003  3.49313029502950 -0.46457185518552
 1  3.63119849984999  3.65991261626163 -0.24769782778278
 1 -2.55478659365937 -2.71187347934793 -0.01226889188919
 1 -2.99266797979798 -2.50791785378538 -1.88175691769177
 1 -1.26785717071707 -2.48977652765276 -1.36077462046205
 1  2.45939730273027 -0.26699998099810 -0.75864207620762
 1 -1.96166078907891  0.98707695169517 -0.01615552255226
 1  0.23632393139314  1.75859128612861  0.18843085308531
 1  0.32313409840984 -1.10278044204420 -0.91167284128413

