%nproc=4
%Mem=2GB
# td=(NStates=1) CAM-B3LYP/6-31G(d,p) 

TD

0 1
 8  14.57801332633263 -2.50756368946895 -0.14346126912691
 8 -14.68368343234323  1.91294659975998  1.09856938793879
 6  11.13799614561456 -1.40134268636864  1.01881804280428
 6 -12.36419158315831 -1.09568118601860  0.57782142614261
 6  12.56548011401140 -1.80111940804080  1.15606049804981
 6 -13.58928564756476 -0.26343436333633  0.75750856285629
 6  13.24303234223422 -2.07845016711671 -0.28232177717772
 6 -13.47345663866387  1.19535819691969  0.98244949594960
 6  10.91987131413141 -0.25901352835284  0.09780648764876
 6 -11.22729909390939 -0.25145615251525 -0.10813848984898
 6  13.25679617061706 -0.67312579767977 -0.96925967996800
 6 -12.69034147214721  1.87422042914291 -0.11076042904290
 6  11.85985185418542  0.04271465436544 -0.86214885788579
 6 -11.44674526952695  0.98089471857186 -0.47647964396440
 6  10.79230027102710 -0.89338477947795  2.44763814781478
 6  10.23335395539554 -2.66122389038904  0.64124751475148
 6 -11.75564737073707 -1.43345303720372  1.99239537053705
 6 -12.75010150515051 -2.31544276617662 -0.18511724972497
 6  9.65770101110111  0.44552350535053  0.10540450045004
 6 -10.05089066106611 -1.06706944884488 -0.48066935193519
 6  11.69843572357236  1.20446562046205 -1.81929391939194
 6 -10.54819310731073  1.90776025312531 -1.19719660966097
 6  9.37154105910591  1.75711195419542 -0.13856721672167
 6 -8.80982237923792 -0.59786173507351 -0.48097319931993
 6  8.06385549054905  2.38121410441044 -0.05379460446045
 6 -7.49744777877788 -1.32061038893889 -0.67568373737374
 6  7.97039882388239  3.83855271027103  0.47631181518152
 6 -7.63044134113411 -2.68661823872387 -1.26699538453845
 6  6.84270424142414  1.61726066706671 -0.15234771977198
 6 -6.32649534653465 -0.69274753665367 -0.47870679567957
 6  5.57110782478248  2.13121735973597  0.12451942094209
 6 -5.00459900590059 -1.19570664356436 -0.64287116511651
 6  4.49328811481148  1.26238243224322  0.01502941794179
 6 -3.93445474247425 -0.43027525152515 -0.40943375837584
 6  3.16839433043304  1.75670006100610  0.17403151915192
 6 -2.60419587558756 -0.71647172617262 -0.52513086808681
 6  2.75674724172417  3.15758345034503  0.62090974897490
 6 -2.21755052305231 -2.17518101010101 -0.92859408540854
 6  2.10322941194119  0.81126319031903 -0.07998867886789
 6 -1.58874083408341  0.29060694969497 -0.30536448744875
 6  0.69385621462146  1.04976779077908  0.00461178917892
 6 -0.23371324132413  0.03646604660466 -0.33435440544054
 1  13.06048462846285 -0.87490090019002  1.55569125812581
 1  12.70293379237924 -2.54611782588259  1.81016870087009
 1 -14.18386135913591 -0.63696113801380  1.41334225522552
 1 -14.21863535853585 -0.35303317521752 -0.03360521652165
 1  12.61508251525152 -2.82905221232123 -0.76757731573157
 1 -12.86607703970397  1.22585656775678  1.84827256125613
 1  13.97228181518152  0.09217179507951 -0.39019420042004
 1  13.55761131813181 -0.59089444654465 -1.83387611861186
 1 -13.41227643664366  1.74023908400840 -0.85042778577858
 1 -12.37823379637964  2.80676569666967 -0.09282824682468
 1  10.91508419741974 -1.75919434843484  3.06170086608661
 1  9.69087741474147 -0.75474527352735  2.48082483748375
 1  11.52930667266727 -0.08101696879688  2.73772715871587
 1  10.48584484748475 -2.94216899089909 -0.28344502750275
 1  10.28601760466046 -3.44070271327133  1.46049548954896
 1  9.20328764576458 -2.35548685668567  0.60393711471147
 1 -11.65372705870587 -0.64295678957896  2.72308260526053
 1 -10.89844268326833 -2.01345388928893  1.93936772077208
 1 -12.36252714571457 -2.28565598549855  2.33402398239824
 1 -13.54513496249625 -2.82165086098610  0.24415254625463
 1 -12.01993722872287 -3.08070465936594 -0.16892399439944
 1 -13.11579943894389 -2.43542273417342 -1.18985172717272
 1  8.75856775977598 -0.20571498249825  0.42394951595160
 1 -10.37868263326333 -2.17925498939894 -0.80900470247025
 1  10.72555384738474  1.44541921192119 -2.07803986298630
 1  12.18197402640264  2.21710265316532 -1.59818542654265
 1  12.09594126412641  0.75628648354836 -2.78440112911291
 1 -11.22318671967197  2.63888945304530 -1.90427114811481
 1 -9.83713969196920  1.59357337643764 -1.88284425142514
 1 -10.10973515751575  2.67879053315332 -0.54879803580358
 1  14.60329945794579 -3.29498482558256  0.41738001800180
 1 -15.22714740774077  1.81057835793579  1.88079917591759
 1  10.17559347834784  2.23825073307331 -0.16989016401640
 1 -8.64024876087609  0.50881548264826 -0.07919854585459
 1  8.91673936093609  4.22046542854285  0.41476731773177
 1  7.29934632163216  4.43011787278728 -0.02636898289829
 1  7.57036629662966  3.78898996699670  1.48700553855386
 1 -8.14413720772077 -3.30673533143314 -0.54400968996900
 1 -8.52476684768477 -2.77461746464646 -2.12023391239124
 1 -6.69840561256126 -3.20370491039104 -1.57046248024802
 1  7.09520537553755  0.47678089308931 -0.53506138113811
 1 -6.40438741474147  0.39542703780378 -0.11744686968697
 1  5.56538424342434  3.15412108410841  0.46024253325333
 1 -4.68771924292429 -2.19624730273027 -0.90824697469747
 1  4.54815800880088  0.18457320332033 -0.41300336833683
 1 -3.99973137713771  0.79175854785479 -0.42529124812481
 1  3.58899452745275  3.38755064506451  1.48905214621462
 1  1.66551481248125  3.26931791379138  0.76649125112511
 1  2.97452283228323  3.85122174717472 -0.32453551155116
 1 -2.61979309430943 -2.73374566656666  0.01797413241324
 1 -2.58870758375838 -2.55283234523452 -1.79337807980798
 1 -1.08460884588459 -2.18445599559956 -1.13542208520852
 1  2.47372873587359 -0.24101738273827 -0.45959217121712
 1 -1.88466308930893  1.30102834683468  0.07913400640064
 1  0.50578087708771  2.16739216621662  0.20805281528153
 1 -0.00407862286229 -0.84585474947495 -0.70596227022702

