%nproc=4
%Mem=2GB
# td=(NStates=1) CAM-B3LYP/6-31G(d,p) 

TD

0 1
 8  14.76020154515452 -2.17283021612161 -0.18131505450545
 8 -14.82678774277428  1.83623892899290  1.02347187818782
 6  11.24142648864886 -1.43490604270427  0.96222238323832
 6 -12.32144730873087 -1.05082670057006  0.69089273327333
 6  12.77377094309431 -1.77262655875588  1.16229112111211
 6 -13.70187690669067 -0.22736075597560  0.73582639463946
 6  13.42296033503350 -1.84489681178118 -0.29188273327333
 6 -13.56192548554855  1.23147180828083  0.93582483348335
 6  11.02402172917292 -0.33439106610661  0.01936864386439
 6 -11.27217358135814 -0.15363637053705 -0.09672734873487
 6  13.24830532153215 -0.51420990609061 -0.99715246924692
 6 -12.86184862286229  1.75479848694869 -0.25240459345935
 6  11.82494836383638  0.08242862576258 -0.90746338933893
 6 -11.53750434543454  0.95771240034003 -0.55514751075108
 6  10.82440348134813 -1.07742318331833  2.44106749074907
 6  10.39906052605260 -2.72564033203320  0.66252964296430
 6 -11.66101790779078 -1.32354204610461  2.02128825982598
 6 -12.63808030303030 -2.36144736663666  0.05130639263926
 6  9.60666590759076  0.26780573357336  0.16079003900390
 6 -9.95886145814582 -0.91536427832783 -0.34475576057606
 6  11.74177005700570  1.25796096999700 -1.82434442444244
 6 -10.61662995099510  1.89510898799880 -1.53019990999100
 6  9.26394029902990  1.55473171617162  0.18674531453145
 6 -8.73256465346535 -0.46251820072007 -0.24723982598260
 6  7.99293839883988  2.24279026202620  0.20238101310131
 6 -7.53845187918792 -1.17925625352535 -0.61227739673967
 6  8.11486327032703  3.71118997399740  0.37821200520052
 6 -7.71244954195419 -2.53150272717272 -1.14709339433943
 6  6.89751972297230  1.59923886488649 -0.05952843784378
 6 -6.38043074007401 -0.53248151005101 -0.43505243024302
 6  5.55246596059606  2.16901113911391  0.04931190019002
 6 -5.09242778877888 -1.14049112201220 -0.62541941994199
 6  4.42072085808581  1.31268746274627 -0.15396748174817
 6 -3.93087438443844 -0.44805702970297 -0.35178799379938
 6  3.07897538853885  1.57513190419042  0.04604872087209
 6 -2.63957941394139 -0.78866894589459 -0.58280663566357
 6  2.80939250625062  2.94323201520152  0.74491214921492
 6 -2.34351311931193 -2.12554604660466 -1.15502672867287
 6  2.03509259825983  0.69670173417342 -0.21163184318432
 6 -1.58832079207921  0.13405129412941 -0.30350430143014
 6  0.67094392339234  0.93339615361536  0.03359468746875
 6 -0.22380225022502  0.01125352535254 -0.44840581058106
 1  13.23411199119912 -0.85343875397540  1.61210689968997
 1  12.73210670967097 -2.75067828192819  1.73267095109511
 1 -14.25588856185619 -0.70837827972797  1.62676359735974
 1 -14.31257475247525 -0.43646151805180 -0.20163201920192
 1  12.85561656865687 -2.57484679177918 -0.92411296929693
 1 -12.89988042004200  1.46445042714271  1.78557629162916
 1  13.88743333033303  0.10468304620462 -0.31174635563556
 1  13.72299785678568 -0.30786614371437 -1.96239897089709
 1 -13.54316952595259  1.89374443454345 -1.07447019001900
 1 -12.71097707070707  2.77535255535554 -0.08718768276828
 1  11.26547923692369 -1.71720014901490  3.30102479847985
 1  9.52280060706071 -0.98836863586359  2.53000975597560
 1  11.45183892589259 -0.17376624372437  2.60963434943494
 1  10.77472373537354 -3.15979075307531 -0.23313999699970
 1  10.50551955485549 -3.59722836583658  1.44854429442944
 1  9.30536785378538 -2.43983529152915  0.66006272727273
 1 -11.50132181818182 -0.50907340124012  2.61414171117112
 1 -10.73411625062506 -1.98919146304630  1.68191197519752
 1 -12.32969386238624 -1.93400081998200  2.65297587758776
 1 -13.57400784978498 -2.73043173907391  0.55097322832283
 1 -11.97444267926793 -2.98390497939794  0.17758065606561
 1 -12.59274713371337 -2.22653184508451 -0.94580732273227
 1  8.89785168816882 -0.38494290529053  0.43577069806981
 1 -10.08915368036804 -1.97672473637364 -0.67465126712671
 1  10.72051334333433  1.66788145814582 -2.04820687968797
 1  12.05326115511551  2.11869281218122 -1.25229083708371
 1  12.41412308230823  1.15245610051005 -2.75142783178318
 1 -11.21085548654865  2.43643920802080 -2.14503522452245
 1 -10.31866784478448  1.29191321042104 -2.30089605660566
 1 -10.04159834383438  2.53540619471947 -1.05034819081908
 1  14.76261538953895 -3.10118544564456  0.19029730973097
 1 -15.16488118111811  1.40941824192419  1.79480057605761
 1  10.05832175117512  2.12248915691569 -0.21603477847785
 1 -8.59465420142014  0.68495309640964 -0.16645727172717
 1  9.33284097109711  3.93927730973097  0.56727256825683
 1  7.65068145514551  4.37500236123612 -0.47624397039704
 1  7.30683994399440  4.14349541754175  1.19700653865387
 1 -8.49321211521152 -3.08565322322232 -0.59715500450045
 1 -8.25904027502750 -2.64300430333033 -2.00136202520252
 1 -6.72111788378838 -3.06389092899290 -1.26873230723072
 1  6.79933578857886  0.51324453945395 -0.35679355435544
 1 -6.28148512451245  0.44964245934593  0.13078795379538
 1  5.49665737073707  3.10015568756876  0.41622813181318
 1 -4.92689316031603 -2.19437711571157 -0.85401155115512
 1  4.84908810181018  0.29747449344935 -0.38518058605861
 1 -3.91536294029403  0.53202257425743  0.08287956895690
 1  3.16821244924492  3.04258614861486  1.81412465346535
 1  1.64264252525253  3.07819880188019  0.77008161016102
 1  3.13511889188919  3.61803842884288  0.23153009500950
 1 -2.69650076507651 -2.90237252925293 -0.34630229522952
 1 -2.80915962896290 -2.23773083508351 -2.08329707170717
 1 -1.19830021502150 -2.38560611061106 -1.13479202220222
 1  2.21696305930593 -0.13956723772377 -0.55635184718472
 1 -2.08451307430743  1.21302954695470 -0.14079798679868
 1  0.30151045004500  1.79466489348935  0.42408441844184
 1  0.07177896289629 -1.01030119411941 -0.94351602560256

