%nproc=4
%Mem=2GB
# td=(NStates=1) CAM-B3LYP/6-31G(d,p) 

TD

0 1
 8  14.69191471647165 -2.21961489458946 -0.00418734173417
 8 -14.76093115711571  1.84628993409341  1.03751328232823
 6  11.16646899289929 -1.47661021312131  0.99574573557356
 6 -12.21274643864386 -1.05960757865787  0.53442708670867
 6  12.63924749074907 -1.85063435953595  1.12569746174618
 6 -13.65226194519452 -0.31331935183518  0.70453326532653
 6  13.28047608660866 -1.95953827592759 -0.27862140714071
 6 -13.52457175017502  1.20322898399840  0.89901115211521
 6  10.96439576657666 -0.39607723472347 -0.13778707170717
 6 -11.28359472347235 -0.29535054195420 -0.20371804780478
 6  13.24883537453745 -0.68105659075908 -0.99337209120912
 6 -12.76049848784878  1.77200020712071 -0.29337869086909
 6  11.87784365336534 -0.02045166226623 -1.05354799779978
 6 -11.50266086108611  0.93687031613161 -0.66128812481248
 6  10.67583862486249 -1.05877131813181  2.38383176717672
 6  10.32168278827883 -2.73529129712971  0.49100249024902
 6 -11.86639844584458 -1.29636932883288  2.04932106310631
 6 -12.57686418141814 -2.47355857775778  0.00614187618762
 6  9.62293753475347  0.36094504750475  0.00485444544454
 6 -10.02862843484349 -0.97224996689669 -0.43604488948895
 6  11.72914879487949  0.99909508340834 -2.04199618961896
 6 -10.60439872787279  1.72200167726773 -1.54200109010901
 6  9.37207111211121  1.71891813481348  0.05750239023902
 6 -8.76732812981298 -0.44177612651265 -0.30210531253125
 6  8.08748785378538  2.33752973597360  0.19561033603360
 6 -7.52192022602260 -1.18557688558856 -0.49074524352435
 6  7.95447723172317  3.82458131313131  0.69503368736874
 6 -7.69042733973397 -2.76063564046405 -0.85463414841484
 6  6.92083205420542  1.65914485548555  0.03205072007201
 6 -6.40595329232923 -0.58026628852885 -0.19276820182018
 6  5.60903161716172  2.19517375537554  0.12969993899390
 6 -5.03871241724172 -1.06503357625763 -0.56527340534053
 6  4.46486527252725  1.41188738273827  0.04870278527853
 6 -3.92605390239024 -0.26188841284128 -0.27564037903790
 6  3.12368985998600  1.73140753175318  0.27562167816782
 6 -2.55635109110911 -0.61622170117012 -0.63999235423542
 6  2.72292385938594  3.09803749574957  0.90720837883788
 6 -2.26164493249325 -1.99191268326833 -1.20771199719972
 6  2.11525061406141  0.83154521852185 -0.26896757675768
 6 -1.50503246324632  0.23836172517252 -0.41193514451445
 6  0.76249307830783  1.05141795579558 -0.13919259125913
 6 -0.16131600160016 -0.00440804080408 -0.48692966296630
 1  13.17019559955996 -1.14242765286529  1.69898558755876
 1  12.72563606260626 -2.67331054515452  1.57111479547955
 1 -14.36987996099610 -0.75637307920792  1.43611453245325
 1 -14.33879737473747 -0.58296616851685 -0.20440229622962
 1  12.82036304330433 -2.77877718481848 -0.89241979998000
 1 -12.92180261226123  1.81724570667067  1.89487722172217
 1  13.82200678767877  0.11711428932893 -0.59027420842084
 1  13.83404896189619 -0.95549090619062 -1.98097082808281
 1 -13.45352056105611  1.64937999809981 -1.11261400440044
 1 -12.60386635963596  2.65597061716172 -0.21228019201920
 1  10.95908859785979 -1.81412984198420  3.10493518951895
 1  9.52102042904290 -1.01683148214821  2.59418617361736
 1  11.39384312631263 -0.16859572667267  2.56235962196220
 1  10.46630289328933 -2.83896867086709 -0.56093277627763
 1  10.33200220312031 -3.58276691969197  1.23562300230023
 1  9.45024234123412 -2.52518382638264  0.72365908690869
 1 -11.72707439343935 -0.20914340824082  2.44085438243824
 1 -10.89198203720372 -1.63061560546055  2.10221400540054
 1 -12.57448834183418 -1.85582300220022  2.68513909390939
 1 -13.60978142714271 -2.76741543744374  0.36639477047705
 1 -11.81105634063406 -3.31448803770377 -0.07616471847185
 1 -12.85783364236424 -2.21841103300330 -1.01203394539454
 1  8.94727663066307 -0.41933634463446  0.28275539653965
 1 -10.08969373437344 -2.04635169906991 -0.71501530353035
 1  10.61730302230223  0.99269393939394 -2.27879993899390
 1  12.25963179217922  1.90385132803280 -1.68053366136614
 1  12.18334000400040  0.81818267316732 -3.16548923792379
 1 -11.16530093109311  2.39969553365336 -2.17028774977498
 1 -9.93565954395439  1.12423644274427 -2.00708667566757
 1 -10.00004418841884  2.34710736483648 -0.85613876987699
 1  14.79720884888489 -3.17720304740474  0.20743902390239
 1 -15.16175086808681  1.42590989108911  1.77429852585259
 1  10.07970388938894  2.49946685468547 -0.05842901790179
 1 -8.66928166416642  0.70937553865387 -0.15508613461346
 1  8.84447213421342  4.13837721972197  1.00425626662666
 1  7.33862024902490  4.37944280528053  0.02913656765677
 1  7.22503176317632  3.77477854585459  1.68133497149715
 1 -8.19301209520952 -3.17896255415542 -0.17898318731873
 1 -7.95728009900990 -3.03944394729473 -1.85143703270327
 1 -6.66578235023502 -3.17455199509951 -0.74422985698570
 1  7.03918977397740  0.59356257125713 -0.30684855985599
 1 -6.48204518051805  0.59437693279328  0.07879275427543
 1  5.57986569156916  3.04418009000900  0.72232874187419
 1 -5.10382085308531 -2.11121879987999 -0.84481063106311
 1  4.84008720172017  0.28168291429143 -0.17506957495750
 1 -3.98740014401440  0.82653202520252 -0.22809152815282
 1  3.35646127412741  3.17944983498350  1.75416865786579
 1  1.63025128612861  3.27543852585259  1.19302390439044
 1  2.67454283428343  3.85215184018402 -0.04658771677168
 1 -2.63048416341634 -2.69883217521752 -0.45253291829183
 1 -2.96106481948195 -2.24150121212121 -2.12878162016202
 1 -1.22880326532653 -2.32098964896490 -1.38882742574257
 1  2.19211057405741 -0.25914919591959 -0.82606881888189
 1 -1.86613123612361  1.27390563456346 -0.17701160816082
 1  0.32702300130013  2.00184561156116  0.37423943394339
 1  0.01107289228923 -1.10727089108911 -0.46617829182918

