%nproc=4
%Mem=2GB
# td=(NStates=1) CAM-B3LYP/6-31G(d,p) 

TD

0 1
 8  14.55713123812381 -2.41887482058206 -0.33835075807581
 8 -14.77126219021902  1.89982528762876  1.15625515651565
 6  11.17712005800580 -1.47864041614161  1.05622178317832
 6 -12.29985514951495 -1.07534915281528  0.79552319631963
 6  12.65025859185918 -1.95782507860786  1.16440133213321
 6 -13.70867758675868 -0.36066408630863  0.89813262526253
 6  13.22882092109211 -1.90229255135514 -0.21390493549355
 6 -13.58713800680068  1.18228688978898  1.11105235623562
 6  10.98853818081808 -0.18893652065206  0.08568527552755
 6 -11.26631299529953 -0.23376438333833 -0.06112378837884
 6  13.28085857685769 -0.46116460156016 -0.74430718471847
 6 -12.86124856285629  1.70222322942294 -0.07606695969597
 6  11.92804867386739  0.06465684858486 -0.67924056705671
 6 -11.59580017501750  1.00158678777878 -0.45988798479848
 6  10.62896393739374 -1.14502994399440  2.49649303330333
 6  10.26667728772877 -2.57675544354435  0.62269565956596
 6 -11.76664847084708 -1.22213190509051  2.21974810581058
 6 -12.56432292729273 -2.33349457135714  0.01434269626963
 6  9.63632887388739  0.33600255325533  0.26102006200620
 6 -10.06622219421942 -1.00563330523052 -0.44438572357236
 6  11.91795767576758  1.38908408230823 -1.57313930393039
 6 -10.75787407540754  1.77348682578258 -1.43427031703170
 6  9.34418832383238  1.64312055505551  0.22987962796280
 6 -8.81348274527453 -0.46009795869587 -0.40300540254025
 6  8.10827993299330  2.36221220422042  0.22322309730973
 6 -7.58793682768277 -1.16904523242324 -0.70506667566757
 6  8.03962574657466  3.71288014301430  0.69373355735574
 6 -7.68914721172117 -2.59154873177318 -1.14882356735674
 6  6.88759873087309  1.64740368136814 -0.04902738773877
 6 -6.38251094809481 -0.55361362326233 -0.60478940394039
 6  5.51755246924693  2.10078431643164 -0.06253928492849
 6 -5.00880942694269 -1.13263033593359 -0.70355723372337
 6  4.53734252025203  1.21775796979698 -0.23472555755576
 6 -3.91863316031603 -0.39015123912391 -0.58858167316732
 6  3.18318580958096  1.69417380838084 -0.12978886288629
 6 -2.58062351835183 -0.77512759175918 -0.72497085208521
 6  2.82287385438544  3.12284997699770  0.23916157415742
 6 -2.25041380938094 -2.17432092409241 -0.91614284028403
 6  2.17552664166417  0.76181824582458 -0.37969864986499
 6 -1.55128708870887  0.15062295129513 -0.50358430943094
 6  0.80966779577958  1.05768858285829 -0.41364003600360
 6 -0.10407027702770 -0.04900250025003 -0.60428139813981
 1  13.40521910191019 -1.59168257835784  2.11957764676468
 1  13.01632513151315 -3.06613982808281  1.63199088308831
 1 -14.26343931693169 -0.82533997589759  1.81293221422142
 1 -14.28131162616262 -0.69712758465847  0.05953409740974
 1  12.53353436043604 -2.46402570967097 -0.95335589358936
 1 -12.85750618261826  1.32157613971397  2.04628236223622
 1  13.91449603660366  0.13775635353535 -0.27221240224022
 1  13.49880543754375 -0.80485584268427 -1.87284001500150
 1 -13.63577878687869  1.93137819791979 -0.95782852585259
 1 -12.41681765476548  2.80543556365637  0.24181521752175
 1  10.81052374137414 -1.97547597659766  3.24619931593159
 1  9.49435776277628 -0.79134893389339  2.37736449144914
 1  11.19501324332433 -0.15663453055306  3.08154154015402
 1  10.35174143714372 -2.97356213021302 -0.44406108910891
 1  10.40107911081108 -3.60409905290529  1.21316075607561
 1  9.15854317131713 -2.09720102810281  0.62914963596360
 1 -11.77029871587159 -0.33573606750675  2.69362965996600
 1 -10.66747958695870 -1.62562510641064  2.22607639163917
 1 -12.25995688868887 -1.89638705860586  2.85002558255826
 1 -13.62067251625162 -2.97492618851885  0.37439557055706
 1 -11.69082431743174 -2.91818840774077  0.14511740974097
 1 -12.82897075607561 -2.20145933783378 -0.92697543954395
 1  8.72798470147015 -0.33293770477048  0.68977609860986
 1 -9.99752451745175 -2.07377444134413 -0.88869267126713
 1  10.93338463046305  1.60790546054605 -2.03170522952295
 1  12.39657548654865  2.28462940584058 -1.05025063306331
 1  12.68665033503350  1.29622047694769 -2.31203389238924
 1 -11.25582998399840  2.25967153125312 -2.28642936393639
 1 -9.95613159115912  1.13962798189819 -1.88662462946295
 1 -10.32568675267527  2.75438809290929 -0.80117327332733
 1  14.56256538453845 -3.26831215831583  0.10183846384638
 1 -15.41310600360036  1.49087638773877  1.87060815681568
 1  10.32464838383838  2.22930983898390  0.17940476547655
 1 -8.85054979097910  0.62596719781978  0.14135350935093
 1  9.03444113111311  4.21543492549255  0.98205404640464
 1  7.58291467846785  4.36559142014201 -0.06208255425543
 1  7.34758401840184  3.66469753775378  1.50654749274928
 1 -7.49557235123512 -3.39083374127413 -0.16792208120812
 1 -8.77379175017502 -2.50789079197920 -1.52694458345835
 1 -6.70645641764176 -2.86174071397140 -1.96844227822782
 1  6.88723457845785  0.60396361136114 -0.50547842284228
 1 -6.52089906590659  0.47272476757676 -0.14258938393839
 1  5.25237294229423  3.15048072007201 -0.02112560356036
 1 -5.06208667966797 -2.05414309230923 -1.01346749674967
 1  4.77828102110211  0.24887963396340 -0.40323239123912
 1 -3.93618502250225  0.77193656565657 -0.54473319231923
 1  3.31150677867787  3.30574246424643  1.26773001400140
 1  1.81713997499750  3.06949793179318  0.31699630163016
 1  3.26809218921892  3.84664128912891 -0.45096815481548
 1 -2.33689480448045 -2.84352664466447  0.01426376137614
 1 -2.70212892589259 -2.61795885788579 -1.88009675167517
 1 -1.18376876187619 -2.11778932893289 -1.15848439143914
 1  2.58757012001200 -0.06405968696870 -0.69995620762076
 1 -1.83968859185919  1.02479072307231  0.00199629262926
 1  0.42132243124312  2.01629705670567 -0.26735472547255
 1  0.15442722772277 -1.07339750375038 -0.82291396539654

