%nproc=4
%Mem=2GB
# td=(NStates=1) CAM-B3LYP/6-31G(d,p) 

TD

0 1
 8  14.48422394739474 -2.53262619571957 -0.57365428842884
 8 -14.76932199619962  1.76463176827683  0.60896042704270
 6  11.11739408540854 -1.54380693279328  0.89121528252825
 6 -12.20592575657566 -1.11025264316432  0.81824546854685
 6  12.51647521352135 -2.02137143324332  0.88196308830883
 6 -13.57582430143014 -0.37302532243224  0.71393420542054
 6  13.03003104210421 -2.09797211931193 -0.52065561056106
 6 -13.50883017601760  1.20593925502550  0.67867911891189
 6  10.81886121312131 -0.28761638863886  0.00271697869787
 6 -11.17049341334133 -0.44619562646265 -0.16313398939894
 6  13.01825231623162 -0.67027551265126 -1.10119287328733
 6 -12.75332777077708  1.71294430153015 -0.54226357935794
 6  11.79390525952595  0.03324370727073 -0.92562520552055
 6 -11.36930752575257  0.83758038713871 -0.79075107110711
 6  10.83705474647465 -1.17439288028803  2.48548193219322
 6  10.05416603660366 -2.60937870587059  0.54418780878088
 6 -11.63573537953795 -1.02524221612161  2.34647077807781
 6 -12.48533502850285 -2.55471669356936  0.29724098609861
 6  9.61239648064806  0.29290824382438  0.31967592759276
 6 -9.95349092109211 -1.13714645654565 -0.23281456645665
 6  11.51468734873487  1.22137731163116 -1.88056004600460
 6 -10.54506279427943  1.57197667476748 -1.71894878487849
 6  9.39759366436644  1.76718296129613  0.27054369436944
 6 -8.70678207520752 -0.57108905780578 -0.32824792679268
 6  8.13148225322532  2.27725370837084  0.39547032203220
 6 -7.53684171817182 -1.24301262916292 -0.49046521552155
 6  7.98435021902190  3.77786664166417  0.89672385638564
 6 -7.53005130213021 -2.71463104000400 -0.74483316831683
 6  6.89643961496150  1.63237217821782  0.09129664466447
 6 -6.39308200520052 -0.53361162306231 -0.34202312731273
 6  5.62761347534753  2.22755699369937  0.44496146514651
 6 -4.97677622362236 -1.02093916681668 -0.61807868586859
 6  4.50005879187919  1.46350254425443  0.10478839383938
 6 -3.84991628862886 -0.25675789978998 -0.35319813481348
 6  3.14679217021702  1.89418380938094  0.22152626862686
 6 -2.57480293629363 -0.52123220222022 -0.61592994799480
 6  2.81705327232723  3.25355304730473  0.78457611561156
 6 -2.39581834983498 -2.03379687168717 -1.05930715671567
 6  2.20871996099610  1.00795285928593 -0.19517019701970
 6 -1.55533749374937  0.42767065606561 -0.43724767576758
 6  0.76438326732673  1.23760657465747 -0.23095176717672
 6 -0.14430430043004  0.17308970897090 -0.42093306330633
 1  13.33526210621062 -1.52954636473647  1.41503719271927
 1  12.60203370237024 -3.05433864796480  1.36681436543654
 1 -14.07415038803880 -0.62972041394139  1.72661358235824
 1 -14.23804729972997 -0.53524139603960  0.01674981898190
 1  12.52765377237724 -2.83223253035304 -1.37375793379338
 1 -12.83151358335834  1.78121210331033  1.55600333433343
 1  14.14287887488749 -0.19738716081608 -0.67202238323832
 1  13.21886744374437 -0.65467082418242 -2.21334406540654
 1 -13.34483969296930  1.68958401850185 -1.43312605560556
 1 -12.53032900590059  2.79859487958796 -0.45803476747675
 1  11.22724541354136 -1.99594802380238  3.23592828882888
 1  9.83338166516652 -0.94926472547255  2.68350510551055
 1  11.31090483248325 -0.15620448754876  2.81825521152115
 1  10.31545780878088 -3.09810458445845 -0.50445712871287
 1  9.87390639353935 -3.50349899289929  1.00402984298430
 1  9.02097941494150 -2.33273458145815  0.30830755175518
 1 -11.54597628362836  0.08009551565157  2.81004130113011
 1 -10.82675551455146 -1.61061360526053  2.62542632663266
 1 -12.40094098709871 -1.62610002990299  2.98153873387339
 1 -13.33223367236724 -3.06871556745675  0.91135926692669
 1 -11.59804503950395 -3.36094268316832  0.55528842684268
 1 -12.63650150915091 -2.57927711961196 -0.84776751875187
 1  8.80497240024002 -0.40009442044204  0.64256137713771
 1 -10.10549531453145 -2.25629269316932 -0.44747854985498
 1  10.49332062406241  1.67174184418442 -2.04257631663166
 1  12.16550237923792  2.03578452135213 -1.44288989698970
 1  11.90223189318932  0.93657451235124 -2.90151284028403
 1 -11.14055845684568  1.90799636373637 -2.77690841184118
 1 -9.68993497149715  0.92631665076508 -2.24037000400040
 1 -9.99260344434443  2.48741139523952 -1.44503765976598
 1  14.54182331033103 -3.47909323642364 -0.17538925892589
 1 -15.49244393739374  1.38342564266427  1.06748784478448
 1  10.21059697869787  2.35134204220422  0.06369319431943
 1 -8.68821355735574  0.64058865996600 -0.05818644464446
 1  8.97351503850385  4.24200758275828  0.62872871387139
 1  7.17140352735274  4.59507436843684  0.43641729572957
 1  7.70646990699070  3.86865793379338  2.02980981898190
 1 -7.81288408240824 -3.30240489838984  0.08147285828583
 1 -8.36400077107711 -2.87379738263826 -1.53465535453545
 1 -6.48687445944594 -3.11361590149015 -0.98930436443644
 1  6.90778663366337  0.64129734473447 -0.45034290929093
 1 -6.51364834083408  0.55915341044104 -0.14248937393739
 1  5.59041674667467  3.18233390539054  0.87671418041804
 1 -4.56394686568657 -2.05614329232923 -0.83330948094809
 1  4.68114130713071  0.57960270627063 -0.26544861286129
 1 -4.03355475947595  0.74767413941394  0.11425270627063
 1  3.56565219321932  3.31134302430243  1.69729297029703
 1  1.71371963296330  3.36439742174217  1.00266486848685
 1  3.17910329032903  3.76809343434343 -0.15819887788779
 1 -2.18015913091309 -2.79272156415642 -0.19950761576158
 1 -3.15536424942494 -2.48978604060406 -1.73313205520552
 1 -1.29885027002700 -2.21003855385539 -1.58565710871087
 1  2.46067743074307  0.14926164516452 -0.50881709370937
 1 -1.79740436343634  1.35674391839184  0.01376746974697
 1  0.33588388738874  2.15149057605761  0.09710172017202
 1  0.32937472247225 -0.80471063506351 -0.87314898889889

