%nproc=4
%Mem=2GB
# td=(NStates=1) CAM-B3LYP/6-31G(d,p) 

TD

0 1
 8  14.81041656665667 -2.11714464756476 -0.18498542154215
 8 -14.69503456745674  1.99643494859486  1.21970150115012
 6  11.20188253425342 -1.46333888598860  0.96915307630763
 6 -12.41029619361936 -0.96201781968197  0.63855749974998
 6  12.66607017301730 -1.87551684778478  0.93996888888889
 6 -13.68447516651665 -0.24990301020102  0.75980879287929
 6  13.41246928592859 -1.87398972107211 -0.39101264626463
 6 -13.44661395439544  1.33833249434944  0.87493874487449
 6  11.02082140914091 -0.20105773277328  0.04665137213721
 6 -11.36787315131513 -0.24708571547155 -0.22303997999800
 6  13.30916140714071 -0.41150963606361 -0.90527328132813
 6 -12.72278471647165  1.90754376147615 -0.36736608960896
 6  11.86855272427243  0.14264464736474 -0.90476311931193
 6 -11.38947954295429  1.02439906900690 -0.67519951595160
 6  10.76027706870687 -1.11324676567657  2.40076346034603
 6  10.41663228322832 -2.74422219021902  0.39688307830783
 6 -11.70988279427943 -1.20452014391439  2.02795892689269
 6 -12.69408590359036 -2.31165238713871  0.02243350535054
 6  9.72455769676968  0.38885783878388  0.11037499749975
 6 -10.01771734373437 -0.95662840474047 -0.39113039803980
 6  11.51132701270127  1.16617179107911 -2.02462445244524
 6 -10.48999728772877  1.73287276437644 -1.70672756275628
 6  9.32670657565757  1.70251649464946  0.21955859585959
 6 -8.81998339533953 -0.53708565746575 -0.41562666466647
 6  7.96031513651365  2.21720770377038  0.33334410941094
 6 -7.56199423342334 -1.30750907880788 -0.59134530353035
 6  7.90244202820282  3.69329818481848  0.86932111611161
 6 -7.82490078707871 -2.73458303520352 -0.87157584258426
 6  6.82478244924492  1.56318525952595  0.10438795379538
 6 -6.33668636563656 -0.69196745864586 -0.51333025802580
 6  5.56423713771377  2.10752499049905  0.26649361836184
 6 -5.06505505150515 -1.18871594449445 -0.62099897789779
 6  4.48705749174917  1.31382757675768 -0.00439252425243
 6 -3.96237753475348 -0.43961618561856 -0.39937275227523
 6  3.14839233023302  1.73397778877888  0.11359547554755
 6 -2.58877433343334 -0.81561164016402 -0.56465482048205
 6  2.82470403740374  3.14978267026703  0.46606426442644
 6 -2.30014878287829 -2.33343683568357 -0.86132735873587
 6  2.16091518051805  0.78362042604260 -0.18363904390439
 6 -1.58565052505251  0.18123601260126 -0.33591754275428
 6  0.67533436243624  0.96605941994199 -0.16576524852485
 6 -0.27505737573757 -0.09909750975098 -0.37275824582458
 1  13.15280386038604 -1.13094650475047  1.62906859585959
 1  12.82949644864486 -2.81028424252425  1.51608929292929
 1 -14.23650662366237 -0.49467690959096  1.66540746174617
 1 -14.45693918891889 -0.65671354325433  0.00496864086409
 1  12.83317432443244 -2.76619592669267 -1.02359291729173
 1 -12.84732516451645  1.53772775487549  1.91552928692869
 1  13.84624921192119  0.11497407530753 -0.27954313531353
 1  13.51625718271827 -0.37034239133913 -2.09313204420442
 1 -13.47490269926993  1.83277833793379 -1.21310405340534
 1 -12.47514348734873  2.83834885498550 -0.11231019501950
 1  11.33058574757476 -1.95147357635764  2.90925562156216
 1  9.85090341734173 -1.16608640764076  2.52925968096810
 1  11.31790553255325 -0.11197006410641  2.67664105010501
 1  10.63890015301530 -3.22358713271327 -0.45182186518652
 1  10.26994599749975 -3.66990563356336  1.10984042404240
 1  9.32556987398740 -2.54423573157316  0.22455917691769
 1 -11.55110679667967 -0.30546304020402  2.72494279127913
 1 -10.70215305430543 -1.52045458935894  1.74715849984999
 1 -12.19480037303730 -1.89771719161916  2.59374995499550
 1 -13.43529397839784 -2.69032772867287  0.64116224722472
 1 -11.86722195719572 -3.02279886878688  0.02878577657766
 1 -13.08913677267727 -2.11121031293129 -0.95912865486549
 1  8.78323022602260 -0.33132754375438  0.31951907290729
 1 -10.24861962696270 -2.06607367126713 -0.43022682468247
 1  10.43387467946795  1.46122079207921 -1.93998605760576
 1  12.02650847984798  2.11324226712671 -1.93886949494949
 1  11.73725539553955  0.93143399829983 -3.07913060206021
 1 -11.17154155515552  2.30606617071707 -2.41271199219922
 1 -9.91238721672167  1.05112913201320 -2.38313428042804
 1 -9.84421860586059  2.34770742484248 -1.36484964096410
 1  14.83869299729973 -3.12804813191319  0.17429570957096
 1 -15.19425411841184  1.45103240334033  1.97683877987799
 1  10.04768068706871  2.59347625562556  0.07093391839184
 1 -8.64127886388639  0.71764636573657 -0.35227585358536
 1  8.81851953895390  3.99858324032403  0.91541738273827
 1  7.18262464946495  4.45690055105511  0.37941159515952
 1  7.52721198119812  3.64892596059606  1.81111794979498
 1 -8.36795958995900 -3.14678933683368  0.11793650465047
 1 -8.45033940494049 -2.95409541244124 -1.76320820982098
 1 -6.90063583558356 -3.42207674757476 -1.18187362136214
 1  6.80720657565757  0.45529874487449 -0.11888976397640
 1 -6.57631460746075  0.38525602070207 -0.28622374737474
 1  5.43696140114012  3.17183285528553  0.44821133013301
 1 -4.95147561856186 -2.37279495749575 -0.71155730573057
 1  4.64637783078308  0.19164391039104 -0.24169623762376
 1 -4.13546495049505  0.55287465946595 -0.14979369836984
 1  3.23771939993999  3.18161005100510  1.37608084908491
 1  1.87525578657866  3.08320930293029  0.46269087108711
 1  3.14363974397440  3.73771039603960 -0.30376343434343
 1 -2.48761987698770 -2.98034032603260  0.13514584958496
 1 -3.09854856785679 -2.65766282828283 -1.74639338133813
 1 -1.25108549354936 -2.58003555355535 -1.16632517551755
 1  2.64310567356736 -0.22653593459346 -0.31180739273927
 1 -1.90142476547655  1.14528277227723 -0.28313222022202
 1  0.19014931393139  1.99344477147715 -0.03638162816282
 1  0.32610439543954 -1.12853301730173 -0.38844051805181

