%nproc=4
%Mem=2GB
# td=(NStates=1) CAM-B3LYP/6-31G(d,p) 

TD

0 1
 8  14.71213673867387 -2.42122505560556 -0.22311923492349
 8 -14.94684974897490  1.72064736983698  0.76945647664767
 6  11.09103144914491 -1.52184473657366  0.98891505250525
 6 -12.40838600260026 -1.17956957485749  0.53993763776378
 6  12.61069463546355 -1.92119141524152  1.05515040704070
 6 -13.66255297429743 -0.37236525642564  0.42080489248925
 6  13.23566160516052 -2.06741906400640 -0.30758430343034
 6 -13.72536182918292  1.13156181728173  0.88764001500150
 6  10.88948827582758 -0.31066869386939  0.02769947694769
 6 -11.31720808480848 -0.30593160006001 -0.21256893289329
 6  13.17466795779578 -0.71932041714171 -1.04529728372837
 6 -12.76548898689869  1.78828183528353 -0.17810716371637
 6  11.82894876387639  0.03100348324832 -0.91063370637064
 6 -11.49442003700370  1.03008963806381 -0.55184718071807
 6  10.71385242624262 -1.18719416041604  2.37500088408841
 6  10.29530015001500 -2.68941670967097  0.40494388438844
 6 -11.86826863286329 -1.40073976587659  2.00991712271227
 6 -12.50846734173417 -2.53524474637464 -0.16607534553455
 6  9.67260250125012  0.40796974997500  0.17219117911791
 6 -10.05518109010901 -1.00834357625763 -0.40138142314231
 6  11.66056193619362  1.08109328322832 -2.03092508250825
 6 -10.52629091709171  1.79355883298330 -1.38436532653265
 6  9.42963686868687  1.70931717471747  0.03545018501850
 6 -8.82426382338234 -0.47899984888489 -0.28505360736074
 6  8.19810891589159  2.37769375237524  0.14426520152015
 6 -7.49624765876588 -1.15644397229723 -0.41324749374937
 6  8.18879066306631  3.84902375737574  0.55271945594559
 6 -7.48071636863686 -2.69947952485249 -0.93121180618062
 6  6.94253422442244  1.73879282028203 -0.00643312831283
 6 -6.36694939193919 -0.50486874877488 -0.25255418041804
 6  5.66531724572457  2.20754499249925  0.15986295529553
 6 -5.05530407640764 -1.01350842374237 -0.47966484448445
 6  4.50623940994099  1.42459865386539 -0.04214629962996
 6 -3.92265356235624 -0.21005322932293 -0.22499531453145
 6  3.19136662766277  1.83860825182518  0.10018413441344
 6 -2.55559101510151 -0.61170124912491 -0.40990934593459
 6  2.87515908290829  3.21148884088409  0.44349200720072
 6 -2.36119488748875 -2.11545503750375 -0.87573879987999
 6  2.20257934693469  0.90344240824082 -0.13651433143314
 6 -1.62092405240524  0.32288017701770 -0.23233718471847
 6  0.72640946994699  1.01391420542054  0.14020534853485
 6 -0.15993586358636  0.04578697869787 -0.21093206320632
 1  13.08960754075408 -0.88448185828583  1.61346703570357
 1  12.57781128012801 -2.91629484358436  1.65594327832783
 1 -14.18699167216722 -0.99360680258026  1.24206512751275
 1 -14.13390688568857 -0.35973384528453 -0.48463031903190
 1  12.72159316631663 -2.84073338043804 -0.77505806380638
 1 -13.31892232423242  1.21584556665667  1.81844957895790
 1  13.93937852485248 -0.04402182428243 -0.54918009900990
 1  13.38335389238924 -0.60207556465647 -2.07163989498950
 1 -13.35581079007901  2.08704376447645 -1.15082782578258
 1 -12.57938391139114  2.89953497359736  0.26750778677868
 1  10.75379806880688 -2.07120554955496  3.05803049904990
 1  9.60854918191819 -1.11981178017802  2.52395915091509
 1  11.32802654465447 -0.23199206630663  2.68213159915992
 1  10.54787105010501 -2.94193896789679 -0.71383806680668
 1  10.41228023092309 -3.75495413841384  1.03371281128113
 1  9.36903422042204 -2.49240054805480  0.46130285128513
 1 -11.83187487348735 -0.58164065796580  2.72268256525653
 1 -10.97777061606161 -1.86558910281028  1.96054983898390
 1 -12.60096098909891 -2.24626204610461  2.61708228822882
 1 -13.37987843684368 -2.94313300920092  0.38846697769777
 1 -11.56233146814682 -3.06579316821682  0.17163006100610
 1 -12.77150500950095 -2.50199939183918 -1.17329007100710
 1  8.88945084808481 -0.31083549454945  0.41841896289629
 1 -10.17977274227423 -1.99636670057006 -0.97359116111611
 1  10.64505579757976  1.45216988698870 -2.25137719671967
 1  12.25573140214021  1.97036797969797 -1.78526413441344
 1  12.15408707870787  0.60587144204420 -2.85372806180618
 1 -11.16629103010301  2.25009057315732 -2.12052277327733
 1 -9.74082006000600  1.23026704580458 -1.85391135813581
 1 -10.07760194419442  2.57579023312331 -0.67888104410441
 1  14.51675080308031 -3.29084441154115  0.18504678467847
 1 -15.70731542454245  1.45645294539454  1.41373246924692
 1  10.26986290529053  2.31246815481548 -0.00760393539354
 1 -8.88289302530253  0.51341594269427  0.22381175517552
 1  9.29499718671867  4.03428681068107  0.96141198219822
 1  7.65326171317132  4.49329419041904 -0.34483082908291
 1  7.60537979797980  4.02117318531853  1.49331616961696
 1 -8.46274906890689 -3.29969462736274 -0.56632192119212
 1 -7.67417178817882 -2.77109711261126 -2.15370725972597
 1 -6.47346311831183 -3.22516705660566 -0.59227466146615
 1  6.94087994299430  0.63153636863686 -0.35213308830883
 1 -6.44831180718072  0.54126162126213  0.16492136713671
 1  5.46129383438344  3.29884555655566  0.45106161516152
 1 -4.73029350035004 -1.97846552455245 -1.02671882188219
 1  4.50169336233623  0.38255300130013 -0.63289535753575
 1 -4.10879228322832  0.88523789578958  0.12162344334433
 1  2.68547417541754  3.35211710171017  1.67938117911791
 1  1.80393865486549  3.48516949894990 -0.12801819981998
 1  3.83632901290129  3.94000062506251  0.14661160316032
 1 -2.32685380038004 -2.78335062706271  0.03677601260126
 1 -3.27799651265127 -2.41494855685569 -1.65142388438844
 1 -1.28387877287729 -2.15909345934593 -1.37382592559256
 1  2.64083544654465 -0.16685996699670 -0.51709792179218
 1 -1.99849447244724  1.42577082108211  0.05126121912191
 1  0.22406270527053  2.09884531153115  0.51295330533053
 1  0.25578736373637 -0.85920608460846 -0.40630230423042

