%nproc=4
%Mem=2GB
# td=(NStates=1) CAM-B3LYP/6-31G(d,p) 

TD

0 1
 8  14.81113663866387 -1.95715864896490 -0.12343926692669
 8 -14.56687175117512  2.16201150625063  1.15826535753575
 6  11.18073041904190 -1.38145069716972  0.98262442344234
 6 -12.26371153515352 -0.92452407030703  0.72408605260526
 6  12.61450501650165 -1.74203349944995  1.07437232923292
 6 -13.55925264426443 -0.13141116101610  0.87183999599960
 6  13.37114515351535 -1.76623894599460 -0.24202774777478
 6 -13.28319761276128  1.45372403350335  1.10408165916592
 6  10.87787711471147 -0.20908853585359  0.03993070007001
 6 -11.29456582058206 -0.23867487438744 -0.18431610761076
 6  13.15638612961296 -0.45204368946895 -1.03671642564256
 6 -12.62092453045304  1.93296630373037 -0.14003335633563
 6  11.74388025702570  0.21472185508551 -0.86163880688069
 6 -11.46328692369237  1.08558518761876 -0.61832382838284
 6  10.72972401340134 -1.08911435243524  2.45747913191319
 6  10.32922354235424 -2.61703947194719  0.57128051805181
 6 -11.61293309930993 -1.04690438233823  2.03918004900490
 6 -12.69250574557456 -2.37538876077608  0.12201346334633
 6  9.56636187718772  0.37233618661866  0.02132609260926
 6 -9.97832340434043 -1.00503324522452 -0.45743702870287
 6  11.55070095009501  1.29489466336634 -1.91284327432743
 6 -10.52437072507251  1.76844632173217 -1.68192508250825
 6  9.24592849784979  1.70350659365937  0.03683032303230
 6 -8.69949134613461 -0.50569251815182 -0.46168127012701
 6  7.98210731573157  2.27822380538054  0.33764453945395
 6 -7.59861789578958 -1.30840916881688 -0.59019518851885
 6  7.88095987998800  3.76320517551755  0.63435761976198
 6 -7.80359865686569 -2.70456003290329 -0.99249793479348
 6  6.92424239523952  1.53639258025803  0.13476099109911
 6 -6.30376307330733 -0.63520178207821 -0.48416734173417
 6  5.51340205420542  1.97681191919192  0.22729969896990
 6 -5.02422096809681 -1.26361343424342 -0.81338821682168
 6  4.46348513451345  1.16941313531353  0.14876279127913
 6 -3.88851014801480 -0.48677090109011 -0.61882469746975
 6  3.03410090109011  1.50122451345135  0.22757687368737
 6 -2.62213766976698 -0.88722880188019 -0.88039639463946
 6  2.68951051805181  2.95488318031803  0.55757341534153
 6 -2.29261802980298 -2.36637012901290 -1.28438966496650
 6  2.05957504650465  0.55132719671967  0.03485280528053
 6 -1.55651761176118 -0.03500561156116 -0.57218116911691
 6  0.76517334633463  0.61547436143614 -0.00833950595060
 6 -0.23987385738574 -0.23477107710771 -0.44699566956696
 1  13.05652423242324 -0.87018042814281  1.72718840784078
 1  12.56848034703470 -2.74996821092109  1.50826851085108
 1 -14.00760373337334 -0.66778422032203  1.76676759775978
 1 -14.39997349234923 -0.33454132603260  0.03963210721072
 1  12.94505551255125 -2.43999330643064 -0.91909246724672
 1 -12.67752818481848  1.57496147824782  1.95097283128313
 1  14.11054564156416  0.13442602050205 -0.65081026202620
 1  13.05920147714771 -0.49555491259126 -2.16779951095109
 1 -13.52596780578058  1.95181024112411 -0.73266600960096
 1 -12.32646861986199  3.07475249534953 -0.00488945294529
 1  10.77597028602860 -1.87417584658466  3.15910060606061
 1  9.62057038403840 -0.94474427342734  2.42613936893689
 1  11.24056779877988 -0.33433230033003  3.17467085308531
 1  10.47611387438744 -2.97858263226323 -0.50308699169917
 1  10.51605060796079 -3.48998764176418  1.05366480648065
 1  9.11924924192419 -2.51597290529053  0.73578029902990
 1 -11.13334502050205  0.06577408350835  2.46897719471947
 1 -10.77579041804180 -1.84001654555456  1.91193497749775
 1 -12.35017591059106 -1.45664308420842  2.80707128712871
 1 -13.47578802780278 -2.75969466536654  0.76435456645665
 1 -11.91840707570757 -3.07610419931993  0.36651954995500
 1 -13.05334319331933 -2.24442363426343 -0.90405314731473
 1  8.71186308930893 -0.23318772977298  0.35062218321832
 1 -10.06047081208121 -2.05412247614762 -0.66219002100210
 1  10.57147843984398  1.31830650065006 -2.27163922292229
 1  11.90906673567357  2.36356729962996 -1.71504711271127
 1  12.06384805480548  1.06580743564356 -2.70742343134313
 1 -11.15732013301330  2.21133669776978 -2.19722044304430
 1 -10.00773675167517  1.12548656775678 -2.27316328332833
 1 -9.85271945594559  2.38614126822682 -1.19020217621762
 1  14.93811293929393 -2.67649297639764  0.54826310631063
 1 -15.20223491649165  1.83695099519952  1.83458455445545
 1  10.20133605260526  2.60298720672067  0.11932875787579
 1 -8.50657539353935  0.58515311641164 -0.13264389038904
 1  8.86517420442044  4.11121450345034  1.34873071407141
 1  7.72250863786379  4.37989285028503 -0.31829817581758
 1  7.01337059705971  3.96779784778478  1.40508734673467
 1 -8.12979577357736 -3.31141579947995 -0.26016130513051
 1 -8.53797816881688 -2.89301930483048 -1.74114600360036
 1 -6.91186695869587 -3.12097663756376 -1.15805123912391
 1  6.80199605460546  0.38817203220322 -0.13121099609961
 1 -6.24746172217222  0.44376187128713 -0.16891201620162
 1  5.42883058805881  3.00181585358536  0.44082059105911
 1 -4.97994846584658 -2.31356903490349 -1.21966811681168
 1  4.65281847484749  0.09527427342734  0.09349728172817
 1 -4.18778018201820  0.46073544554455 -0.07983670267027
 1  3.16485211321132  3.23272516251625  1.51106434743474
 1  1.63026128712871  3.13882486448645  0.62869747174717
 1  3.15602098209821  3.55742236723672 -0.18812187018702
 1 -2.47767888288829 -3.00454274627463 -0.36079374437444
 1 -2.98407712071207 -2.76220328232823 -2.08869761176118
 1 -1.18662904790479 -2.47502505250525 -1.81093963696370
 1  2.35070643364336 -0.32681596259626 -0.43064927692769
 1 -1.77653227622762  0.92347059105911 -0.07062096909691
 1  0.09854015301530  1.50983641064106  0.20527253725373
 1  0.00057184218422 -1.31122128612861 -0.82225389938994

