%nproc=4
%Mem=2GB
# td=(NStates=1) CAM-B3LYP/6-31G(d,p) 

TD

0 1
 8  14.62528805380538 -2.19468240134013 -0.16879380238024
 8 -14.77077214121412  1.81883718881888  0.95801533253325
 6  11.08057040304030 -1.56942949504951  0.85565172617262
 6 -12.30665582958296 -1.02214383228323  0.70670431443144
 6  12.50399396539654 -1.93836313241324  1.09349424142414
 6 -13.54200091909191 -0.35494351425143  0.65271808380838
 6  13.21299933893389 -1.91664398649865 -0.24744828982898
 6 -13.48906819981998  1.22752141324132  0.90575182618262
 6  10.94784411141114 -0.32136976397640  0.10110681768177
 6 -11.25062142614262 -0.23575458235824 -0.11518919491949
 6  13.24677516851685 -0.47850633573357 -0.87902065606561
 6 -12.70228266626663  1.85469847694769 -0.22230158315832
 6  11.86425229422942  0.17731811471147 -0.78273091609161
 6 -11.44460505550555  1.05809243834383 -0.57270926692669
 6  10.32193323432343 -1.32058749974998  2.32533591759176
 6  10.24205482548255 -2.73288105610561  0.33138652865286
 6 -11.76260806680668 -1.22868256015602  2.07773390439044
 6 -12.60164665966597 -2.41233245514551  0.21389265126513
 6  9.68920416141614  0.28991794479448  0.14059801980198
 6 -10.09094466646665 -1.07583032493249 -0.48033931893189
 6  11.62075795579558  1.24408958285829 -1.78035002500250
 6 -10.55296358435844  1.71746122322232 -1.51858874887489
 6  9.44645855085509  1.63313955695570  0.18642528252825
 6 -8.80291168816882 -0.56320826972697 -0.29265436743674
 6  8.08982808780878  2.31990797379738  0.17203797879788
 6 -7.55762379637964 -1.23826215411541 -0.59044521352135
 6  8.05148693269327  3.84089294429443  0.55664984898490
 6 -7.61771006800680 -2.72257183408341 -1.16537522252225
 6  6.92577254825483  1.68455739673967 -0.07444992999300
 6 -6.35259795679568 -0.63652191409141 -0.38528745374537
 6  5.59811052505250  2.17837207520752  0.05582255125513
 6 -5.04155270127013 -1.14775184808481 -0.51162804080408
 6  4.48783756975698  1.32125831983198 -0.13685577057706
 6 -3.92087338433843 -0.34105632963296 -0.44918773377338
 6  3.19377686868687  1.74301869286929  0.04979909590959
 6 -2.52847830383038 -0.71955203420342 -0.50659901490149
 6  2.89792135913591  3.12248994099410  0.41386904490449
 6 -2.17836660466047 -2.06956044804480 -0.89707093309331
 6  2.15893498249825  0.85479754375438 -0.08597927792779
 6 -1.62053401340134  0.19982787178718 -0.25394934593459
 6  0.72434926392639  1.05667848184818 -0.03373204520452
 6 -0.19032890289029  0.10253265326533 -0.34755572557256
 1  12.87351593159316 -1.24563797389739  1.91311700070007
 1  12.51317481648165 -3.01654486858686  1.49125680968097
 1 -14.39306227922792 -0.58762620452045  1.59635055605561
 1 -14.05630912591259 -0.28283615551555 -0.43767562356236
 1  12.64437544454445 -2.53662296939694 -0.90336089408941
 1 -12.89613004500450  1.52350633273327  1.72628036203620
 1  14.01222580958096  0.04348692659266 -0.34055923692369
 1  13.73291884888489 -0.38637399449945 -1.88468119911991
 1 -13.06409161816181  1.85003006310631 -1.22235497849785
 1 -12.34003997699770  2.79220424052405 -0.04763372737274
 1  10.61584427342734 -2.19276770577058  2.99850454645465
 1  9.14584291129113 -1.15906570557056  2.30952770777078
 1  10.82912665466547 -0.61128999609961  2.66981036703670
 1  10.55997226022602 -3.06317109110911 -0.59606628962896
 1  10.24180318321832 -3.57008565156516  1.13800324032403
 1  9.34617193419342 -2.40884219221922  0.34989171017102
 1 -11.63527521352135 -0.28670116401640  2.58618891589159
 1 -10.60494333333333 -1.67926046994699  2.31832561656166
 1 -12.51725261826182 -1.61630905080508  2.56041662166217
 1 -13.05608605760576 -3.03430212611261  0.91360949194919
 1 -11.60789602460246 -3.04698128702870  0.37420031803180
 1 -12.81872973197320 -2.31020021192119 -0.97443018501850
 1  8.69836173917392 -0.22900731173117  0.21037815881588
 1 -10.23255802080208 -2.09048611251125 -0.88736253825383
 1  10.40702199419942  1.00353502350235 -2.17021908090809
 1  11.79301513051305  2.37000794369437 -1.37532314031403
 1  12.30227189718972  1.17916877177718 -2.66527921692169
 1 -11.18312271327133  2.25507107120712 -2.20366108710871
 1 -9.82695867386739  0.83942796189619 -1.91475744274427
 1 -9.90157434143414  2.40557321142114 -0.98858201420142
 1  14.94079320732073 -3.12095742284228  0.00790907090709
 1 -15.43407810081008  1.33050035013501  1.39631072707271
 1  10.30494641364137  2.27551445944594  0.14802162716272
 1 -8.82487722372237  0.47940254135414 -0.11076170217022
 1  9.24426211321132  4.28041142314231  0.75653149414942
 1  7.49648603560356  4.45821068206821 -0.19470581658166
 1  7.61770103010301  3.88791985998600  1.59281611961196
 1 -7.98694148814882 -3.49952461036104 -0.35307059605961
 1 -8.32091646264626 -2.43691369426943 -1.96257814681468
 1 -6.66681245324532 -3.21029556945695 -1.61842727672767
 1  6.92650850585059  0.74489770477048 -0.51942981798180
 1 -6.50460743674368  0.44358185328533  0.02817769276928
 1  5.46280398539854  3.14399007100710  0.22851936093609
 1 -4.91385185618562 -2.22617029502950 -0.81452760276028
 1  4.54746793979398  0.42072681868187 -0.33101516951695
 1 -4.18645004900490  0.66675604760476 -0.24057277627763
 1  3.66225185318532  3.70967285728573  1.27364060506051
 1  1.80792905390539  3.28006898889889  1.11237583958396
 1  3.08665404540454  3.96047267226723 -0.40390344834483
 1 -2.63617473247325 -2.92238453045305 -0.14169183418342
 1 -2.61807052005201 -2.32601966396640 -2.01250999299930
 1 -1.12890327532753 -2.35702325232523 -1.06748529152915
 1  2.30454181718172 -0.17785106610661 -0.46432264426443
 1 -1.89141376437644  1.06312455645565  0.20537663066307
 1  0.20507080608061  1.91457688468847  0.24858686868687
 1  0.20608239323932 -1.07546771077108 -0.37461913591359

