%nproc=4
%Mem=2GB
# td=(NStates=1) CAM-B3LYP/6-31G(d,p) 

TD

0 1
 8  14.89348487348735 -2.12683561666167 -0.07054397739774
 8 -14.76036110011001  1.79621492659266  1.09893942494249
 6  11.25592793879388 -1.57488004010401  1.06609277027703
 6 -12.37942310631063 -1.12251386928693  0.60000364436444
 6  12.78312187818782 -1.78402769886989  1.14528942094209
 6 -13.68375509450945 -0.35364338423842  0.72492530453045
 6  13.48170620962096 -1.96363868596860 -0.24072761776178
 6 -13.42510180318032  1.14622328342834  1.03823507450745
 6  10.98644797179718 -0.34285191219122  0.02530923792379
 6 -11.32840920492049 -0.23285429232923 -0.19429710571057
 6  13.30894138513851 -0.61276976207621 -0.98082083608361
 6 -12.76725916391639  1.85357836493649 -0.07424677767777
 6  11.86057192619262 -0.00682029912991 -0.93359600260026
 6 -11.44298489348935  1.10114674377438 -0.52114411041104
 6  10.89581062206221 -1.08109355035504  2.46798018201820
 6  10.38747936793679 -2.71173894189419  0.54384777477748
 6 -11.83413521952195 -1.48225791769177  1.98015414641464
 6 -12.71647814281428 -2.32055327722772 -0.38562730073007
 6  9.73612885388539  0.25621457445745  0.20366432643264
 6 -10.04769034103410 -0.96274901680168 -0.35600688568857
 6  11.66961284128413  1.24020919481948 -1.83015500550055
 6 -10.65798408640864  1.83700317741774 -1.49779666966697
 6  9.35905981098110  1.60650689368937  0.06790343034303
 6 -8.82225362236224 -0.40962291119112 -0.30305540754075
 6  8.01681078607861  2.29895587858786  0.07623839883988
 6 -7.68662669666967 -1.20042837073707 -0.39776594559456
 6  7.92965474947495  3.75879473447345  0.42371655565557
 6 -7.76377467446745 -2.61794137103710 -0.97015570057006
 6  6.89220919191919  1.51262020302030 -0.18788127312731
 6 -6.43288598559856 -0.49945820772077 -0.47752667766777
 6  5.55320603460346  2.02721695969597 -0.00960399139914
 6 -5.11967051305131 -1.10696776967697 -0.66407328532853
 6  4.35547433343334  1.28287448144814 -0.20830291529153
 6 -3.93346464346435 -0.37037926192619 -0.46433924892489
 6  3.02615010601060  1.72143653465347  0.02364648064806
 6 -2.58460391639164 -0.74632471147115 -0.48641699669967
 6  2.83176474347435  3.10883857585759  0.58747640564056
 6 -2.23184195219522 -2.19323281528153 -0.88045927192719
 6  2.01936102510251  0.88302036603660 -0.19230991099110
 6 -1.63790575057506  0.26423431243124 -0.27458140914091
 6  0.67646447544754  1.10143295729573 -0.06822549454945
 6 -0.29405927592759  0.16832923292329 -0.24126509650965
 1  13.30840942094209 -0.94821823192319  1.83539922892289
 1  13.03833733273327 -2.80141335543554  1.52582026602660
 1 -14.40968394139414 -0.76763420532053  1.52271319231923
 1 -14.18873236823682 -0.42924079597960 -0.21417327332733
 1  12.95098610561056 -2.84114342144214 -0.70433099109911
 1 -12.79089952195219  1.16409039113911  1.96388412241224
 1  14.02889747674767 -0.04853227532753 -0.45677085808581
 1  13.53076863386339 -0.66943230033003 -2.04516724772477
 1 -13.45323053205320  2.07745280538054 -1.06711945494549
 1 -12.30057603060306  2.88254327442744  0.20793182918292
 1  11.15831852085209 -1.94534296329633  3.23030772677268
 1  9.90785911291129 -0.82161196019602  2.53591034603460
 1  11.50321406340634 -0.26773564066407  2.68493187918792
 1  10.76306256925693 -2.96258103210321 -0.40276695969597
 1  10.54282328522852 -3.50135877887789  1.38772821282128
 1  9.28786610361036 -2.56021732973297  0.46365308630863
 1 -11.74671635763576 -0.48740123402340  2.38890918791879
 1 -10.85120795979598 -1.70375291919192  1.76063984798480
 1 -12.48683957695770 -2.12155957585759  2.48053863386339
 1 -13.68376882588259 -3.08397709360936 -0.21576344534454
 1 -11.94561979697970 -3.17264385328533 -0.35872297429743
 1 -12.80752861186118 -2.01607079897990 -1.46433917591759
 1  8.98915081808181 -0.53253766476648  0.34098121912191
 1 -10.20323508850885 -2.15285234913491 -0.35807960996100
 1  10.63331462346235  1.17275194519452 -1.98367042604260
 1  11.96971280028003  2.20959190209021 -1.38979458745875
 1  12.51708337833783  1.11202205710571 -2.65520820982098
 1 -11.19601400240024  2.19132469656966 -2.12968368936894
 1 -9.87952393039304  1.18046206530653 -1.99651561856186
 1 -10.18788297229723  2.78224087818782 -0.99826298229823
 1  14.89958908690869 -2.89260458755876  0.54650293029303
 1 -14.95103979697970  1.27606490659066  1.90628172417242
 1  10.21367728672867  2.29166607460746  0.02069889488949
 1 -8.86273100910091  0.61069567066707 -0.00726135213521
 1  8.83868155515552  4.04500788278828  0.07535337633763
 1  7.04871125812581  4.22746760776078  0.12329598359836
 1  7.96748600860086  3.88251931993199  1.74204104210421
 1 -8.17642043604360 -3.39651430933093 -0.18780406940694
 1 -8.32094646564656 -2.53203320622062 -1.75172706170617
 1 -6.76926269826983 -2.97645218511851 -1.54483991799180
 1  6.87651350635064  0.52283549854985 -0.41880975597560
 1 -6.37990496649665  0.67196469156916 -0.27870299529953
 1  5.47681538653865  3.12615828782878  0.22647915691569
 1 -5.18139861086109 -2.14664234223422 -0.90016616661666
 1  4.50276346934694  0.38081282728273 -0.56897896589659
 1 -4.29218062206221  0.75895526752675 -0.24613333233323
 1  3.06090171817182  3.01498338833883  1.78550179117912
 1  1.77252551355136  3.52983396539654  0.29764436643664
 1  3.61736711671167  3.83229985498550  0.10737767976798
 1 -2.73428454345435 -3.04089638163816 -0.27236490149015
 1 -2.48078679167917 -2.43310037203720 -2.01455019701970
 1 -1.17842822782278 -2.45921347134713 -0.67191573457346
 1  2.14977634063406 -0.21896517751775 -0.51165737773777
 1 -2.15896051905191  1.15751399539954 -0.26789069606961
 1  0.18979927892789  2.19885531253125  0.08727073707371
 1  0.20918270327033 -0.84402456645665 -0.72588426242624

