%nproc=4
%Mem=2GB
# td=(NStates=1) CAM-B3LYP/6-31G(d,p) 

TD

0 1
 8  14.65222074707471 -2.47040997409741 -0.12468939193919
 8 -14.73369843384338  1.79188449354935  1.38816834783478
 6  11.23116546254625 -1.40758331043104  1.14832099309931
 6 -12.38905406940694 -1.08917053495350  0.68722236623662
 6  12.65952951895189 -1.80642993909391  1.20818571057106
 6 -13.73171989098910 -0.28020604050405  0.83193600560056
 6  13.33245128412841 -1.97345966806681 -0.20981452645265
 6 -13.53628292129213  1.13774243534353  1.10877212821282
 6  11.00342966996700 -0.30134776177618  0.10404711171117
 6 -11.30807717171717 -0.24397540444044 -0.17540521652165
 6  13.32724321532153 -0.57444592969297 -0.79472222622262
 6 -12.80472291029103  1.71171417851785 -0.03306265926593
 6  11.91439730873087  0.12871325422542 -0.74770741374137
 6 -11.62521311631163  1.04119074817482 -0.55057705370537
 6  10.79237027802780 -0.92923836483648  2.56458984298430
 6  10.38037865786579 -2.60751851985199  0.68617200720072
 6 -11.69387119311931 -1.27663735563556  2.08279441044104
 6 -12.58491498649865 -2.48448967086709  0.05242650465047
 6  9.63222846384638  0.35712466546655  0.21618557855786
 6 -10.04638021002100 -0.97234997689769 -0.46351763676368
 6  11.76655253525353  1.20417559145915 -1.80104209420942
 6 -10.61131941994199  1.93857333443344 -1.22909979998000
 6  9.34064796979698  1.65556179917992 -0.01302466246625
 6 -8.78863026002600 -0.52839478837884 -0.39781488348835
 6  8.09023812881288  2.28570455345535  0.11308208320832
 6 -7.58740677467747 -1.14796312421242 -0.84195036403640
 6  8.03042482648265  3.72333118811881  0.53637782178218
 6 -7.70333863086309 -2.63071264816482 -1.26539522452245
 6  6.81339131013101  1.63865280628063  0.01309882488249
 6 -6.42616531353135 -0.51009927182718 -0.52393131813181
 6  5.58055876987699  1.98424266226623 -0.00648367936794
 6 -5.09623816981698 -0.94138121102110 -0.74926180418042
 6  4.45572435843584  1.29888608260826 -0.19528161316132
 6 -3.94591588858886 -0.30862308630863 -0.54683749874987
 6  3.15683317431743  1.63380777177718 -0.04669055305531
 6 -2.62718817481748 -0.69431951095110 -0.72541089608961
 6  2.81076264326433  3.00503819581958  0.44907256525653
 6 -2.23670243824382 -2.11795528752875 -1.16825805180518
 6  2.10285937493749  0.68944100810081 -0.23822450245024
 6 -1.63258521852185  0.20482837183718 -0.54893884488449
 6  0.67863469246925  1.03075588958896 -0.21909058105811
 6 -0.23626349634963  0.04619701970197 -0.62762373237324
 1  13.32313089308931 -1.14488789888989  1.67434312331233
 1  12.99579307830783 -2.49587280138014  1.79118680268027
 1 -14.41803477647765 -0.72917035893589  1.40254117511751
 1 -14.38366186118612 -0.25204307620762 -0.02124398039804
 1  12.74177518451845 -2.84602390949095 -0.83841439943994
 1 -12.83223365536554  1.30597457955796  2.03001073507351
 1  13.91193578057806  0.24443702160216 -0.13896907790779
 1  13.72143770077008 -0.53711906900690 -1.68446117711771
 1 -13.48477368636864  1.67147220732073 -0.90118286128613
 1 -12.51377735073507  2.70738575867587  0.05475651165116
 1  11.07691038003800 -1.73115154415442  3.31889658565857
 1  9.63731205820582 -0.87287708670867  2.74190094509451
 1  11.21173491549155  0.10151128402840  2.86110949694970
 1  10.60037630063006 -2.78415318931893 -0.31010769376938
 1  10.55499450235023 -3.42884152715272  1.60676011601160
 1  9.32226954395440 -2.16880818881888  0.72987970897090
 1 -11.69325101110111 -0.18513100700070  2.47239753675368
 1 -10.65340817981798 -1.57235977987799  2.05750953495350
 1 -12.24555544854485 -1.91633905380538  2.70708128812881
 1 -13.36821727072707 -3.04352304820482  0.65657378837884
 1 -11.79364459945995 -3.25053164206421  0.20090298829883
 1 -13.01390924992499 -2.31699089098910 -1.10502324432443
 1  8.89627153015302 -0.30998540954095  0.52394951595160
 1 -10.30940570557056 -1.95305236913691 -1.02517631963196
 1  10.61220251225122  1.34795946594659 -2.02117417641764
 1  12.20122595159516  2.25493643654365 -1.39278488648865
 1  12.25001667166717  1.00374122902290 -2.76468915791579
 1 -11.07648204920492  2.47460302440244 -1.95562628362836
 1 -10.03520949894989  1.34002802190219 -1.90971693869387
 1 -9.85993017701770  2.54426708080808 -0.73526668266827
 1  14.81430055805581 -3.33385871297130  0.33170145014501
 1 -15.07952264526453  1.37162446254625  2.20460155615562
 1  10.14700061906191  2.16348325632563 -0.03140631563156
 1 -8.49806454245424  0.44606920802080  0.27867724172417
 1  9.03677136413641  4.26694007600760  0.30707654865487
 1  7.37481386838684  4.22364722572257 -0.33866021202120
 1  7.60768002800280  3.88599966796680  1.49761659965997
 1 -8.01358415241524 -3.17215187308731 -0.19593488248825
 1 -8.69621399239924 -2.55361536443644 -1.82746463546355
 1 -6.82002777477748 -3.01021556145615 -1.58852428642864
 1  7.17463331833183  0.59359257425743 -0.13587146214621
 1 -6.26424340034003  0.37106460156016  0.06039091409141
 1  5.58406611161116  3.09125479747975  0.20901741074107
 1 -4.95945641664166 -2.11822950095010 -1.24592074207421
 1  4.65873906690669  0.23398814481448 -0.63443551155116
 1 -3.93549495349535  0.72912228422842 -0.07204592359236
 1  3.11294692269227  3.22113400340034  1.34971821282128
 1  1.78233649464946  3.30318130013001  0.33111771377138
 1  3.29951533153315  3.55585221022102 -0.36171922992299
 1 -2.18589970497050 -3.14498679067907 -0.47227489248925
 1 -2.90871958495850 -2.44845190719072 -2.00571931393139
 1 -1.23504388938894 -2.27506505650565 -1.65449399239924
 1  2.36821818481848 -0.38723200420042 -0.43350956295630
 1 -1.83798842184218  1.21241948594859 -0.00208411541154
 1  0.18696899589959  2.08142356935694  0.03897590759076
 1  0.16358814381438 -1.00177034103410 -1.09057073107311

