%nproc=4
%Mem=2GB
# td=(NStates=1) CAM-B3LYP/6-31G(d,p) 

TD

0 1
 8  14.72650817581758 -2.20521345444544 -0.09162608560856
 8 -14.93355841984198  1.70121542664266  0.92467199819982
 6  11.17076942294229 -1.54530708280828  0.84814097509751
 6 -12.35965112911291 -1.10566218411841  0.53291693569357
 6  12.62467603360336 -1.91290058615862  0.98177306930693
 6 -13.72020873987399 -0.39358737863786  0.58420123212321
 6  13.39407744674467 -1.87852017411741 -0.23237678267827
 6 -13.64825411841184  1.12564122522252  0.85938718971897
 6  10.94238356535654 -0.33117074407441  0.01297800480048
 6 -11.31440780478048 -0.25023603050305 -0.19005668166817
 6  13.37910840184018 -0.49609809490949 -0.91950470447045
 6 -12.82036447444744  1.75710871797180 -0.18731808480848
 6  11.92119798879888  0.09316969986999 -0.87794043704370
 6 -11.55271586658666  0.94852148124812 -0.66954895089509
 6  10.69713075407541 -1.40388582958296  2.34584796879688
 6  10.24548516851685 -2.71446921492149  0.31234462446245
 6 -11.81762356835683 -1.24392408430843  2.05544167516752
 6 -12.49545604060406 -2.45982720462046 -0.00018875687569
 6  9.68465370637064  0.28409736273627  0.25046900690069
 6 -10.08045361736174 -0.91767450935094 -0.46398768376838
 6  11.72284816481648  1.25446061996200 -1.90019200920092
 6 -10.60138842684268  1.83421289838984 -1.44556144614461
 6  9.41113501850185  1.65267151015101 -0.07108046804680
 6 -8.71480287728773 -0.37876982588259 -0.31540664266427
 6  8.10781988698870  2.30846682968297  0.05945672067207
 6 -7.51525955995600 -1.06824515241524 -0.64350051905191
 6  8.15919770377038  3.77267612261226  0.43653783778378
 6 -7.60001829882988 -2.54785436233623 -1.12681136613661
 6  6.83917388838884  1.62602154315432  0.04824233923392
 6 -6.33820651765177 -0.51245950785079 -0.36523544854485
 6  5.61020173417342  2.13591782978298  0.16565353435344
 6 -5.01466001200120 -1.05027210011001 -0.51966884488449
 6  4.41179996599660  1.33947014101410  0.10224813981398
 6 -3.94729602660266 -0.24300652465247 -0.34056687168717
 6  3.08203569456946  1.73848823982398  0.21142525852585
 6 -2.61073652965297 -0.66637671667167 -0.41771012601260
 6  2.87108867586759  3.16026371837184  0.29640729872987
 6 -2.36188495649565 -2.17440093209321 -0.65055628162816
 6  2.15359444844484  0.79936200020002 -0.15617629762976
 6 -1.67492945294529  0.19731762076208 -0.16860081108111
 6  0.77497432643264  0.89312212621262  0.02349367736774
 6 -0.24296416641664 -0.02439003900390 -0.17522849284929
 1  12.93220180018002 -1.17340075017502  1.62572826182618
 1  12.67083058205821 -2.91596481058106  1.50081776577658
 1 -14.19468244124412 -0.86818426032603  1.49138005900590
 1 -14.36872036703670 -0.33993186508651 -0.30741259725973
 1  12.88149915691569 -2.73777308440844 -0.91138169616962
 1 -13.19998043004300  1.29369335143514  1.89517725172517
 1  14.19554414141414  0.20596317421742 -0.42093727472747
 1  13.49807536453645 -0.56750210731073 -1.96390912191219
 1 -13.53476868586859  1.82636769686969 -1.17709045204520
 1 -12.23366933993399  2.70458547864787  0.20819185518552
 1  10.75622831183118 -2.24540296929693  2.97686238223822
 1  9.55426375337534 -1.12928272727273  2.46797355235524
 1  11.21559530153015 -0.53905277237724  2.70567395339534
 1  10.62147841084109 -2.86683145714571 -0.77334401740174
 1  10.62025102800280 -3.62402104510451  0.99340878087809
 1  9.29564688168817 -2.31647295529553  0.39467618861886
 1 -11.88737042304230 -0.18801129502950  2.56944724172417
 1 -10.82556539553955 -1.58658120202020  1.80606439043904
 1 -12.48435932893289 -1.78933635353535  2.60303088308831
 1 -13.30089053805380 -2.99454815071507  0.77731586258626
 1 -11.65922115711571 -3.14763135203520  0.26120901890189
 1 -12.77309516851685 -2.51103029492949 -1.10743348534853
 1  8.91911381438144 -0.25071948294829  0.69727684868487
 1 -9.94003876887689 -2.03029009290929 -0.72303610561056
 1  10.67806909890989  1.49212388238824 -1.92802486148615
 1  12.30424625362536  2.12662360526053 -1.48893450145015
 1  12.11713338333833  0.97533838873887 -2.76198888788879
 1 -11.16247064806481  2.52792835693569 -2.17393811481148
 1 -9.85557153515352  1.25963998309831 -1.75827179417942
 1 -10.10293447744774  2.42278493259326 -0.75824898089809
 1  14.58005713371337 -3.14355968306831  0.39811809180918
 1 -15.21305599859986  1.35345264536454  1.79712080808081
 1  10.22422834183418  2.33471037903790 -0.44662783778378
 1 -8.71434617061706  0.69730433153315 -0.01086171217122
 1  9.05076276327633  4.40927430943094  0.27552339333933
 1  7.37454384138414  4.50752561356136  0.01637529152915
 1  7.86277553755376  3.86189725772577  1.52200903890389
 1 -7.80628342234223 -3.07291194909491 -0.11528681768177
 1 -8.36152052305230 -2.90969097199720 -2.00923281228123
 1 -6.64612038403840 -2.60932547244724 -1.53391882588259
 1  7.16094194919492  0.37881109610961 -0.16530440544054
 1 -6.49978695469547  0.54508200330033 -0.12014713971397
 1  5.68542624762476  3.16783245524553  0.19562607160716
 1 -5.05833630463046 -2.10385806380638 -0.66293244324432
 1  4.54893808680868  0.35007975397540 -0.32700476847685
 1 -4.43069447344734  0.76955632763276 -0.15063378237824
 1  3.10897652565257  3.58482037203720  1.42017525852585
 1  1.83853211421142  3.54278526052605  0.14678928092809
 1  3.43716909690969  3.92051867686769 -0.27645070307031
 1 -2.99317043204320 -2.69116140814081  0.07525986098610
 1 -2.85592430543054 -2.47032409440944 -1.67694643664366
 1 -1.31439182418242 -2.39965751575157 -0.69113765676568
 1  2.53055441844184 -0.24642792379238 -0.38528474047405
 1 -1.94789941294129  1.28859710371037 -0.07889179617962
 1  0.40345064406441  1.90263569056906  0.27853986398640
 1  0.12019380438044 -1.10008017201720 -0.37576925092509

