%nproc=4
%Mem=2GB
# td=(NStates=1) CAM-B3LYP/6-31G(d,p) 

TD

0 1
 8  14.83959948494850 -2.17138007110711 -0.22018894189419
 8 -14.71527659165917  1.93044834993499  0.99306883788379
 6  11.30086243224322 -1.42140469256926  0.93368952995300
 6 -12.27526269026903 -0.88709032693269  0.83686733073307
 6  12.77834140014001 -1.77944724082408  0.94635952795280
 6 -13.70741746074608 -0.18729674957496  0.71864467646765
 6  13.45742378137814 -1.76574889698970 -0.40984452945295
 6 -13.54972426542654  1.32399106020602  0.80264151515152
 6  10.97198652565257 -0.27064469146915  0.00713742074207
 6 -11.33024938893889 -0.16522752965297 -0.10797847384738
 6  13.29089958095810 -0.34334281938194 -1.04123687768777
 6 -12.76957939593959  1.83133614071407 -0.34774412741274
 6  11.94153002200220  0.17269765266527 -0.91030367336734
 6 -11.59746034103410  1.03765039413941 -0.69374137013701
 6  10.80157119811981 -1.08369381038104  2.37741112511251
 6  10.56742736273627 -2.67598536653665  0.46807019701970
 6 -11.90123192919292 -1.02445213711371  2.23039917091709
 6 -12.65232172717272 -2.33328455035504  0.12374363636364
 6  9.66841208220822  0.24925387838784  0.16513047304730
 6 -10.02871844384438 -0.91272401430143 -0.33816510151015
 6  11.64259013901390  1.41096627052705 -1.70959294929493
 6 -10.60836912491249  1.67950742784278 -1.67506439643964
 6  9.28628253325333  1.59862610561056  0.22908954895490
 6 -8.73558495549555 -0.50725267416742 -0.35667076907691
 6  8.03781288628863  2.29563554655466  0.41992276727673
 6 -7.55883391739174 -1.29675800370037 -0.60838700770077
 6  7.77302908690869  3.72523137813781  0.75704988898890
 6 -7.74789308630863 -2.71117069396940 -0.90307899289929
 6  6.89732970397040  1.43192213321332  0.08775629062906
 6 -6.38016071307131 -0.62212047394739 -0.57787671267127
 6  5.56225693969397  1.93347758575858  0.31400836983698
 6 -5.08829737573757 -1.19804687758776 -0.65196207420742
 6  4.49865865186519  1.17588378237824 -0.14756684168417
 6 -4.04729602660266 -0.39117134113411 -0.52127494249425
 6  3.15720321132113  1.46408079907991  0.05416953295330
 6 -2.61166662266227 -0.72975305430543 -0.60477883288329
 6  2.81329289628963  2.85205289728973  0.65960361836184
 6 -2.33846261426143 -2.18946243824382 -0.82340356635664
 6  2.11549063806381  0.56465852985299 -0.33063374337434
 6 -1.62904486448645  0.21222911191119 -0.36289024002400
 6  0.71453828282828  0.92336515051505 -0.18642731473147
 6 -0.28869873987399 -0.03484108410841 -0.50348131813181
 1  13.45252383238324 -1.12539594969497  1.43903959295930
 1  12.85724922392239 -2.72582579667967  1.58857654165417
 1 -14.19086205920592 -0.68774621652165  1.50004092509251
 1 -14.08014150915091 -0.38889676157616 -0.33348520452045
 1  12.96973798079808 -2.56273558065807 -0.95925648364837
 1 -12.92533296529653  1.74542852495250  1.89509724372437
 1  14.09080366736674  0.31776435433543 -0.75436061706171
 1  13.54867042404240 -0.39603496059606 -2.08155088608861
 1 -13.46100130913091  1.89218427852785 -1.15927867086709
 1 -12.58087406040604  2.77922294239424 -0.03799276327633
 1  10.90173286228623 -1.87100552955296  3.06130082608261
 1  9.71423975097510 -0.64998479747975  2.31012776777678
 1  11.52456619861986 -0.14108297539754  2.60829421542154
 1  10.72277854085408 -3.21729650365037 -0.60357704070407
 1  10.74215321822182 -3.56692533553355  1.11118055805581
 1  9.46132344934493 -2.47383869186919  0.58199492049205
 1 -11.75734742074207 -0.03505599949995  2.72819311631163
 1 -10.89846268526853 -1.56698924282428  2.24934871887189
 1 -12.47936882988299 -1.79326674657466  2.74318489848985
 1 -13.60897134613461 -2.67393608950895  0.50271840284028
 1 -12.09680491549155 -3.29925651455145  0.39992289028903
 1 -12.73316117511751 -2.25410460236024 -0.92590533253325
 1  8.87228913191319 -0.57017142814281  0.31892901390139
 1 -10.18570333533353 -2.25107217111711 -0.38371217321732
 1  10.65018631063106  1.61912658265827 -1.88272033103310
 1  12.08382421142114  2.24837578047805 -1.18691429942994
 1  12.31322299229923  1.34679553445345 -2.59140182918292
 1 -11.21307570857086  2.51209677377738 -2.33119384038404
 1 -10.10281625962596  0.99599361846185 -2.60489645664566
 1 -9.76003018701870  2.17266992109211 -1.07175033103310
 1  14.75719484748475 -3.03019834693469  0.04577285728573
 1 -15.16488118111811  1.35406270637064  1.75492658865887
 1  10.04991091009101  2.40442735073507  0.03344016901690
 1 -8.64835957195720  0.52568716981698 -0.19020964696470
 1  8.78472615961596  4.24860824282428  0.89738557955796
 1  7.08583497049705  4.04622948394840  0.05890954495450
 1  7.40602986298630  4.08528959695970  1.75530236823682
 1 -8.06139893389339 -3.40398505640564 -0.07938322732273
 1 -8.62337670867087 -2.77373737663766 -1.66451834083408
 1 -6.83772954495450 -3.25528006790679 -0.99235466946695
 1  6.82315817081708  0.34473768876888 -0.10567844284428
 1 -6.51011798779878  0.51224871997200 -0.56202132713271
 1  5.25892359735974  2.98006367836784  0.69160566956696
 1 -4.96647711871187 -2.36804448244825 -0.51939808980898
 1  4.85054824782478  0.04601934793479 -0.39229129712971
 1 -4.17215861986199  0.57492686468647 -0.35416413541354
 1  3.12316794479448  2.93083497349735  1.74485772677268
 1  1.71321958295830  3.23232421442144  0.52852745474547
 1  3.65446082608261  3.79173579857986  0.31050799279928
 1 -2.26310742574257 -2.85364765676568  0.18239057405741
 1 -3.07694640764076 -2.38073513551355 -1.74216295829583
 1 -1.43179356435644 -2.49911746174618 -1.24157270027003
 1  2.51376273927393 -0.44007728872887 -0.29612582458246
 1 -1.77863248624862  1.26825506950695 -0.08865277227723
 1  0.43730402940294  1.95826125312531  0.17984999499950
 1  0.11563334833483 -0.96706687068707 -0.65674734873487

