%nproc=4
%Mem=2GB
# td=(NStates=1) CAM-B3LYP/6-31G(d,p) 

TD

0 1
 8  14.87147267226723 -2.10174310741074 -0.23481040404040
 8 -14.76337140114011  1.99098440354035  0.93883341434143
 6  11.25324767076708 -1.49367191929193  0.91966812781278
 6 -12.29544470847085 -0.91979359725973  0.68678232223222
 6  12.78368193419342 -1.84128342444244  0.97941283328333
 6 -13.62730944994500 -0.22696071597160  0.76098891089109
 6  13.46236427542754 -1.86068839093909 -0.35246879187919
 6 -13.46988628162816  1.27696635773577  1.00821207220722
 6  11.01055038203820 -0.26947457445745  0.10137684468447
 6 -11.29367573157316 -0.24584559145915 -0.21053872987299
 6  13.34526501750175 -0.41825031013101 -0.93073582758276
 6 -12.67005944394439  1.88016102320232 -0.24994434743474
 6  12.00188605760576  0.26050643354335 -0.76727937093709
 6 -11.49754034903490  1.03231986108611 -0.60392238823882
 6  10.87036807780778 -1.25372081308131  2.35756914091409
 6  10.50787140714071 -2.70519828782878  0.34650804080408
 6 -11.76263806980698 -0.97884757665767  2.13733986498650
 6 -12.68051454645465 -2.36393761566157  0.21656291829183
 6  9.74900014101410  0.28522747574757  0.23549750975097
 6 -10.11980755275528 -1.01800454235424 -0.45985727072707
 6  11.78080396039604  1.43596877077708 -1.71584357435744
 6 -10.70789907790779  1.77897737483748 -1.61314820482048
 6  9.27532143714371  1.55269151215122  0.21608824882488
 6 -8.81751314831483 -0.51506345524552 -0.44136923892389
 6  7.96679578457846  2.20343632663266  0.33654442944294
 6 -7.65764379837984 -1.40591891979198 -0.64521069006901
 6  7.82849463346335  3.67986684168417  0.56797098109811
 6 -7.81326962396240 -2.80277985488549 -1.09787847284728
 6  6.81852182318232  1.47219616061606  0.12623013801380
 6 -6.45992868986899 -0.72315057695770 -0.40385931093109
 6  5.51324203820382  1.98101233923392  0.20727769676968
 6 -5.14706325232523 -1.35272234513451 -0.57564444244424
 6  4.45925471147115  1.33387958195820 -0.08234031903190
 6 -4.02431372837284 -0.39149137313731 -0.32828564356436
 6  3.13706119711971  1.69194358535854  0.09260337633763
 6 -2.63778923492349 -0.70673075207521 -0.54002235723572
 6  2.85076664366437  3.08634632663266  0.54457211521152
 6 -2.38778754675468 -2.18860235223522 -0.86211743774377
 6  2.08287737673767  0.82884494849485 -0.29038971897190
 6 -1.57634959495950  0.19067695669567 -0.35087903890389
 6  0.69894672367237  0.92506532053205 -0.22684135613561
 6 -0.30821069106911 -0.02245984598460 -0.53093406340634
 1  13.28724730473047 -1.26947035713571  1.76795248424843
 1  12.72748624762476 -2.78490170427043  1.59996768076808
 1 -14.20872384538454 -0.72960040194019  1.49554047504751
 1 -14.33831732673267 -0.26037390929093 -0.20675253125313
 1  13.00951195819582 -2.63546285338534 -1.01417197519752
 1 -12.90093052505251  1.56952093419342  1.71743947794780
 1  14.35342992999300  0.02167474537454 -0.66634181518152
 1  13.46530208720872 -0.52709806690669 -2.17626035703570
 1 -13.37312252125212  1.89532459255926 -1.09404214721472
 1 -12.46263223622362  2.95614063416342  0.08198923492349
 1  10.90012270127013 -2.05460388938894  3.06332102810281
 1  9.84916324332433 -0.81447124612461  2.38568532353235
 1  11.07898164016402 -0.25061392849285  2.91702508850885
 1  11.05277154015402 -3.11347612161216 -0.38546522952295
 1  10.54432343524352 -3.57889653265327  1.11842128212821
 1  9.34017133413341 -2.51057236523652  0.17485420642064
 1 -11.69850153615361 -0.07645013891389  2.57181747874788
 1 -10.67966080508051 -1.30341288518852  2.14665844984498
 1 -12.37189808280828 -1.63449086898690  2.79318989898990
 1 -13.49426987598760 -2.84894359025903  0.86984511551155
 1 -11.62295753075308 -2.85567215611561  0.34892779077908
 1 -12.85081294029403 -2.24404359625963 -0.79594233623362
 1  8.95718762176218 -0.43059747074707  0.69891701270127
 1 -10.22009677467747 -2.06637370127013 -0.64589839183918
 1  10.66758805080508  1.59176384638464 -1.84239629862986
 1  12.29006483548355  2.36748769166917 -1.45566117411741
 1  12.28926059605960  1.12608346324632 -2.78234092309231
 1 -11.41653605460546  2.02680824492449 -2.58119884088409
 1 -9.70991696969697  1.23024704380438 -2.06956292329233
 1 -10.26587077107711  2.73338599269927 -1.11887504350435
 1  14.79867899589959 -3.11093642074207 -0.12684440444044
 1 -15.11987668066807  1.79335663576358  1.78899999599960
 1  10.17952387138714  2.27047395539554  0.00188701370137
 1 -8.54741947794779  0.52766736783678 -0.45324595059506
 1  8.87379506650665  4.14869825182518  0.44880072107211
 1  7.34970135713571  4.19654451545154 -0.25195154115412
 1  7.09731899189919  3.90570163816382  1.43725056305631
 1 -8.13123591759176 -3.52540719861986 -0.10988627762776
 1 -8.45873024402440 -2.98233823672367 -2.05736762576258
 1 -6.91426719871987 -3.25790032993299 -1.39994542854285
 1  6.86680253525353  0.35807902290229 -0.12267014201420
 1 -6.40535751175118  0.47808530363036 -0.17141226622662
 1  5.47331503650365  3.00573624562456  0.78354486348635
 1 -5.06706717771777 -2.43764144214421 -0.84940109010901
 1  4.48795198819882  0.14580932693269 -0.36251831983198
 1 -4.26355775977598  0.61686105810581 -0.15837455645565
 1  3.21170679867987  3.04184607460746  1.67104034503450
 1  1.70511877287729  3.30953193519352  0.47009161116112
 1  3.58593397339734  3.89147577257726  0.08343528552855
 1 -2.65034614961496 -2.87111940394039 -0.16588425342534
 1 -2.89139785278528 -2.40257731973197 -1.65074381638164
 1 -1.37438782378238 -2.31824937493749 -1.06123466646665
 1  2.61118248124813 -0.03241652265226 -0.72923913591359
 1 -1.81787641064106  1.18386663066307  0.04074016701670
 1  0.42946324532453  1.88433386038604  0.43504551455146
 1  0.12329411441144 -1.09567973197320 -0.64663633763376

