%nproc=4
%Mem=2GB
# td=(NStates=1) CAM-B3LYP/6-31G(d,p) 

TD

0 1
 8  14.97157268226823 -1.94812774587459 -0.43668059105911
 8 -14.73008807280728  2.10853615871587  0.61895142614261
 6  11.37807015301530 -1.40180273237324  0.86305246624662
 6 -12.45862102610261 -0.92696431433143  0.57528117211721
 6  12.95731929792979 -1.61646094219422  0.96661155315532
 6 -13.72088880788079 -0.09359737963796  0.54213702570257
 6  13.50859889888989 -1.63004532663266 -0.40391393639364
 6 -13.57397669066907  1.40345900700070  0.70888213921392
 6  11.02533186018602 -0.26796442344234 -0.05614890789079
 6 -11.38410477447745 -0.14311531843184 -0.14094177017702
 6  13.36125661666166 -0.36207469256926 -1.11831458545855
 6 -12.63541597959796  1.94788779587959 -0.33953330633063
 6  11.91120698969897  0.13763414631463 -0.94989763276328
 6 -11.35861645664566  1.14984161326133 -0.54980697669767
 6  10.81324236523652 -1.08516395739574  2.34895827982798
 6  10.62637325732573 -2.73023079107911  0.36611000100010
 6 -12.06381818781878 -1.28971866376638  2.02824895589559
 6 -12.78930542554255 -2.32785400730073 -0.01415015301530
 6  9.76935217621762  0.38468742174217  0.03583754375438
 6 -10.01549712171217 -0.90289303120312 -0.32860414541454
 6  11.58785466546655  1.21608678257826 -2.00570256025603
 6 -10.46619490749075  1.87507698479848 -1.51266815681568
 6  9.39311321632163  1.71999824282428  0.09278591859186
 6 -8.77024842184218 -0.48781072997300 -0.13110821282128
 6  7.99713881888189  2.20551653465347  0.40369114411441
 6 -7.62996103010301 -1.31746007390739 -0.56204237323732
 6  7.84743652765277  3.63542239723972  0.74289847384738
 6 -7.76262455945595 -2.66583616051605 -0.92033071807181
 6  6.94392436343634  1.45112405340534  0.18052556755676
 6 -6.42523522052205 -0.71176943884388 -0.32835176017602
 6  5.54068478247825  1.94855909390939  0.36320328932893
 6 -5.11343988998900 -1.27877495039504 -0.53271014901490
 6  4.41824061006101  1.16781297529753  0.08331624662466
 6 -3.96403770077008 -0.43014523852385 -0.41480429542954
 6  3.02667015801580  1.58888327932793  0.16057017301730
 6 -2.66864232023202 -1.01335141414141 -0.54217257225723
 6  2.51815338233823  2.90897858985899  0.45388304630463
 6 -2.44933370137014 -2.39405289728973 -0.79528075407541
 6  2.14764385338534  0.60289235323532 -0.01155183518352
 6 -1.63002496249625 -0.09621173217322 -0.20259421042104
 6  0.66785361436144  0.72609542354235  0.14080540854085
 6 -0.19783965396540 -0.27262486248625 -0.10441141114111
 1  13.43507208720872 -0.78291170127013  1.67626331533153
 1  13.23813731273127 -2.50355356945695  1.39974765876588
 1 -14.51832480548055 -0.28408585048505  1.32650357135714
 1 -14.34089758475848 -0.07097496939694 -0.28086994299430
 1  13.00773178017802 -2.44720402750275 -0.97309786778678
 1 -13.25541597359736  1.71180516261626  1.79004673867387
 1  14.10014460146015  0.19969254715472 -0.56371155215522
 1  13.68137369436944 -0.67353271037104 -1.97992072307231
 1 -13.01402661166117  1.97223228332833 -1.54669741274127
 1 -12.23784975797580  2.91035605570557 -0.29518848284828
 1  10.90964365336534 -1.91047947694769  3.03623831983198
 1  9.84793312031203 -0.83496329532953  2.19918667366737
 1  11.40358410041004 -0.15030389748975  2.87082046804681
 1  10.98816507950795 -2.86202097609761 -0.69447613061306
 1  11.01758076097610 -3.66815545854585  0.91882132213221
 1  9.50357767476748 -2.54942625062506  0.44420114111411
 1 -12.04892657865786 -0.28770126402640  2.55846614361436
 1 -11.02422526152615 -1.65981852575258  2.40370415441544
 1 -12.79896078907891 -1.74974239413941  2.71851243124312
 1 -13.69555000400040 -2.77983667956796  0.52394052505251
 1 -11.90823605860586 -2.96193278217822 -0.13722082408241
 1 -13.09815767476748 -2.08364755665567 -1.01209395139514
 1  8.71697360036004 -0.11122553355336  0.13540066106611
 1 -10.08527329232923 -1.86958402230223 -0.68143194519452
 1  10.44590588258826  1.25225989598960 -2.12543460246025
 1  11.89862569156916  2.22046298919892 -1.74823043104310
 1  11.94971664166417  0.85310616551655 -2.90922361136114
 1 -11.04206860786078  2.27573313741374 -2.28088880988099
 1 -9.65874185218522  1.22712673177318 -1.90152611961196
 1 -9.78483266726673  2.69006166026603 -0.94924808080808
 1  14.91215034303430 -2.77421274837484  0.36725500550055
 1 -15.36956164916491  1.53254055415542  1.16162725872587
 1  10.12588850785079  2.35343225122512  0.43041986698670
 1 -8.60588532453245  0.60881548264826  0.31388076207621
 1  8.83644133113311  4.21936531853185  0.80514635563556
 1  7.48366475347535  4.37638249924992 -0.03102944894490
 1  7.17007626762676  3.93856492449245  1.55041187918792
 1 -8.01036383038304 -3.23668832673267 -0.05897118611861
 1 -8.45233960496050 -2.97743774667467 -1.64363625262526
 1 -6.91238701070107 -3.12769730963096 -1.25040047404741
 1  7.06228208320832  0.46638985398540 -0.06743461846185
 1 -6.24847182318232  0.28218571367137  0.11612648764877
 1  5.46451415641564  2.96170184218422  0.66603311231123
 1 -4.88146861786179 -2.32855053305331 -0.72091824182418
 1  4.42602579557956  0.04214896089609 -0.03210527852785
 1 -3.97984938893889  0.54396376837684 -0.09790850985099
 1  2.31327695569557  2.92169405940594  1.76333957495750
 1  1.53994225522552  3.45708669066907  0.12066666866687
 1  3.49681506150615  3.67289391439144  0.15176211821182
 1 -2.55295641064106 -3.24095638763876  0.06194852985298
 1 -3.04005271827183 -2.72605966796680 -1.59311805380538
 1 -1.36106649164916 -2.34087163716372 -1.31194973797380
 1  2.63973533653365 -0.35679896089609 -0.15157136913691
 1 -1.85429005200520  0.95501374537454  0.14857095009501
 1  0.25916621562156  1.78150357735774  0.49232124212421
 1  0.05876766176618 -1.37468763276328 -0.23366504050405

