%nproc=4
%Mem=2GB
# td=(NStates=1) CAM-B3LYP/6-31G(d,p) 

TD

0 1
 8  14.72860838583859 -2.23800673377338 -0.27285420842084
 8 -14.69022408640864  1.97481278637864  1.03821335233523
 6  11.19548189418942 -1.47349990209021  0.95667182818282
 6 -12.38500366436644 -1.05427704560456  0.44750839483948
 6  12.70352391839184 -1.97855715181518  1.00898579057906
 6 -13.68857557655766 -0.28574659455946  0.57312012401240
 6  13.29551759075908 -1.94667698979898 -0.33823736873687
 6 -13.47673696669667  1.16008466956696  0.94606585758576
 6  11.00559988698870 -0.21289891689169 -0.03265655865587
 6 -11.24899126312631 -0.27975898279828 -0.20598827482748
 6  13.32296278727873 -0.48764724982498 -0.89501225522552
 6 -12.67312975097510  1.85429843694369 -0.18820817381738
 6  11.92573844284428  0.11964234713471 -0.94049669266927
 6 -11.48583917891789  0.98670529962996 -0.54354635063506
 6  10.84137517851785 -0.89014445544554  2.38734211821182
 6  10.34051467146715 -2.55171293929393  0.68375176517652
 6 -11.90580238623862 -1.38776846874687  1.85829196019602
 6 -12.77837433243324 -2.36712793469347 -0.16930566856686
 6  9.63082832383238  0.34668362136214  0.13574753475348
 6 -9.95182075407541 -0.95105784768477 -0.37032831783178
 6  11.67916379637964  1.19181435533553 -1.86867885788579
 6 -10.43889217721772  1.87229670677068 -1.38641553155316
 6  9.40328423342334  1.69780602360236 -0.10069342934293
 6 -8.74503590059006 -0.46334828372837 -0.31558666066607
 6  8.09518862386239  2.26088207120712  0.08090886588659
 6 -7.51661969596960 -1.15521384928493 -0.60722689168917
 6  7.84682646664667  3.85085394039404  0.21095527952795
 6 -7.58677697469747 -2.57526710361036 -1.00495918091809
 6  6.84696466746675  1.52774171517152  0.03960147514751
 6 -6.28647134413441 -0.53530179207921 -0.36969589458946
 6  5.55612632663266  1.99169340734073  0.26777374637464
 6 -5.05802434843484 -1.07408448134813 -0.57378425642564
 6  4.44426321232123  1.11767796179618  0.05629354435444
 6 -3.96231752875288 -0.38432065606561 -0.48670148514852
 6  3.06861435243524  1.64938932993299  0.21849596559656
 6 -2.60507596359636 -0.86336641564156 -0.47404575957596
 6  2.78507007400740  2.99546723872387  0.69129678767877
 6 -2.32376114411441 -2.29137262926293 -0.95803702970297
 6  2.05290437943794  0.76291835583558  0.00780010001000
 6 -1.66156811681168  0.15701359035904 -0.18173212421242
 6  0.62636946594659  0.97986080008001  0.04959628762876
 6 -0.25254512451245 -0.06558415841584 -0.20872184218422
 1  13.12316089608961 -1.14305771587159  1.52089777877788
 1  12.66305980498050 -3.00670388448845  1.43563124712471
 1 -14.22954592759276 -0.63342078397840  1.44856577757776
 1 -14.56755025002500 -0.41102897479748 -0.15108696469647
 1  12.86980798779878 -2.65577488458846 -0.98826938493849
 1 -13.21942237423742  1.25585956805681  1.91743947794779
 1  13.92144673167317  0.02122470037004 -0.32057723872387
 1  13.87238279527953 -0.41130648774878 -1.83907663866387
 1 -13.45917112611261  1.82549760986099 -1.19988273127313
 1 -12.25570154315432  2.71743676377638  0.00387142314231
 1  10.92303499249925 -1.60277870687069  3.30770546654665
 1  9.70657898489849 -0.52842264126413  2.45752250725072
 1  11.31354509650965  0.02324345724572  2.67171055705571
 1  10.47340360336034 -3.00366514051405 -0.35448213121312
 1  10.24197320022002 -3.38015665866587  1.60510995099510
 1  9.18016533353335 -2.45255656365637  0.33243996499650
 1 -11.44754644064406 -0.51406390029003  2.26272656965697
 1 -11.14159699869987 -2.21247379127913  2.11797558155816
 1 -12.75799669266927 -1.80620804070407  2.46294687468747
 1 -13.79585003400340 -2.69114781068107  0.36983511451145
 1 -12.00557579257926 -3.17519410831083 -0.08354545654565
 1 -12.99620747974797 -2.21985117701770 -1.18381112311231
 1  8.67909981298130 -0.23162757375738  0.51902902390239
 1 -10.14705947094710 -2.05555261916192 -0.81133493549355
 1  10.55939723172317  1.22507717771777 -2.18127018601860
 1  12.22001783078308  2.19612055495549 -1.64465007300730
 1  12.19891156115611  0.90442129702970 -2.75597828682868
 1 -10.91095549654965  2.71406697079708 -1.98050877187719
 1 -9.91178715671567  1.26102012111211 -2.07959392639264
 1 -9.72765694969497  2.45024767886789 -0.63387654365437
 1  14.76031515951595 -3.15561088818882  0.15138341834183
 1 -15.27732242524252  1.58860616071607  1.85975707170717
 1  10.21447736673668  2.37010391839184 -0.18756193119312
 1 -8.47979271527153  0.47029163026303 -0.13190381638164
 1  8.71877956495650  4.37896127812781  0.38503434443444
 1  7.33131951895189  4.18629349034903 -0.79352569856986
 1  7.22870213021302  4.19679074707471  1.06524336233623
 1 -7.95807860186019 -3.24089874777478 -0.10043533253325
 1 -8.36361073207321 -2.78588859175918 -1.86612850185018
 1 -6.51846761876188 -2.96847138703870 -1.42717815181518
 1  6.98672452745275  0.51092430743074 -0.19469734473447
 1 -6.26047302330233  0.70854834993499  0.03457833283328
 1  5.51529923492349  3.03198887088709  0.65897240624062
 1 -4.74555502650265 -1.99880755875588 -1.00145629562956
 1  4.60319351235124  0.14307905390539 -0.30728279627963
 1 -4.05138654265427  0.57257662966297 -0.18262698169817
 1  3.23432906090609  3.18008989898990  1.64325756675668
 1  1.61783004400440  2.91078206020602  0.95212981498150
 1  3.08692407240724  3.73826045104511 -0.11317437543754
 1 -2.53033414841484 -2.76202849484948 -0.09570723572357
 1 -3.00034874787479 -2.43780084208421 -1.82456119811981
 1 -1.20413079807981 -2.31250880088009 -1.30117866086609
 1  2.32453381638164 -0.37380066106611 -0.29196540854085
 1 -1.86150077307731  1.16822506650665  0.23365945894590
 1  0.29880017901790  2.00719614661466  0.19682169216922
 1  0.05141692669267 -1.13534369836984 -0.37393906790679

