%nproc=4
%Mem=2GB
# td=(NStates=1) CAM-B3LYP/6-31G(d,p) 

TD

0 1
 8  14.68408393339334 -2.24425735883588 -0.21340826382638
 8 -14.56625168916892  2.00747605270527  1.05726525752575
 6  11.07095944194419 -1.35548810091009  1.03995015601560
 6 -12.35573073707371 -1.08845046294629  0.57445108910891
 6  12.58060162616261 -1.74628392449245  1.04970986298630
 6 -13.61010772977298 -0.19795781568157  0.68469128112811
 6  13.25750378937894 -1.93106542864286 -0.26505005000500
 6 -13.39103839683968  1.30109877097710  1.01026227722772
 6  10.89379870687069 -0.21260888788879  0.06433314031403
 6 -11.24210057405741 -0.19984099099910 -0.17511518751875
 6  13.14704519551955 -0.52522100720072 -1.01994474847485
 6 -12.67332977097710  1.89611261836184 -0.11071042404240
 6  11.85926179517952  0.15935631853185 -0.84535717871787
 6 -11.43788438343834  1.13436006510651 -0.51984398039804
 6  10.67115815681568 -1.00252569356936  2.50869425342534
 6  10.29786040604060 -2.53639140714071  0.41398478847885
 6 -11.82236404240424 -1.44087377927793  2.00209634063406
 6 -12.64569106410641 -2.42998422032203 -0.14076281428143
 6  9.60769601060106  0.44130308330833  0.17322128212821
 6 -10.03478905090509 -1.04604734663466 -0.49164044904490
 6  11.66102198219822  1.25570074397440 -1.92363435343534
 6 -10.43109139713971  1.88502797989799 -1.39022591259126
 6  9.32457636263626  1.76805304830483  0.04486112611261
 6 -8.84553595059506 -0.49045099399940 -0.40862596459646
 6  8.01174027902790  2.31537752075208  0.10306108110811
 6 -7.58787682168217 -1.26044437233723 -0.60111628062806
 6  7.80871265526553  3.77428628362836  0.33540772477248
 6 -7.57431572857286 -2.72139171607161 -0.86263494849485
 6  6.84359433043304  1.48846778777878  0.13438095309531
 6 -6.32304500150015 -0.57230549244925 -0.55966489148915
 6  5.53754446844684  1.99376361436144  0.19978694769477
 6 -5.02513105910591 -1.01345841874187 -0.69998687668767
 6  4.49762854885488  1.15362155615562  0.17170508550855
 6 -3.89464076107611 -0.29614183818382 -0.57156997199720
 6  3.13519101010101  1.55536992799280  0.25908002400240
 6 -2.58396385238524 -0.84496457545755 -0.62773112811281
 6  2.85117668466847  3.03846153815382  0.52112977097710
 6 -2.32943171117112 -2.30823431543154 -1.03774500050005
 6  2.04705379437944  0.60082214621462  0.01657097709771
 6 -1.55334729472947  0.00428831783178 -0.33169712071207
 6  0.78893572257226  0.89109192319232  0.05403673167317
 6 -0.14322419241924 -0.15019261926193 -0.40448141814181
 1  13.04112269226923 -0.93279668976898  1.64676036503650
 1  12.77617111611161 -2.74126734083408  1.69666735073507
 1 -14.13406637963796 -0.68127556945695  1.70698161916192
 1 -14.42238573357336 -0.32335020692069 -0.07041889788979
 1  12.74082508950895 -2.75553486058606 -0.66245680368037
 1 -12.88565899789979  1.32760674277428  1.96805453945395
 1  14.02194678167817 -0.07884530663066 -0.63056823782378
 1  13.23334889188919 -0.87050240734073 -2.07420015101510
 1 -13.33978918791879  2.05066012611261 -1.02640538353835
 1 -12.26513248624862  2.98244326442644 -0.00410937493749
 1  10.92852554155416 -1.82391082008201  2.97554225022502
 1  9.58260658765876 -1.07533733273327  2.54861161616162
 1  11.35556929892989 -0.14135300240024  2.85572895889589
 1  10.96493275627563 -2.89140391439144 -0.50934761776178
 1  9.95495449834984 -3.44478312131213  1.18430787078708
 1  9.19963728072807 -2.45622693069307  0.06468318931893
 1 -11.55408709470947 -0.48569106300630  2.52180247724773
 1 -10.77947078607861 -1.78608115201520  2.11726551055105
 1 -12.53196408940894 -2.15510293019302  2.44407498749875
 1 -13.66335678467847 -2.73508220412041  0.16837496849685
 1 -11.90452568756876 -3.07868445734573  0.26938983698370
 1 -12.63831169016902 -2.19233842574257 -1.19375211721172
 1  8.87623952695270 -0.35629004000400  0.65881300230023
 1 -10.12662742774278 -1.96450351425143 -0.84320812281228
 1  10.64936622862286  1.23414808480848 -2.18769082808281
 1  12.09441527052705  2.21927287018702 -1.98179378737874
 1  12.13449511951195  0.68222907780778 -2.94705739473947
 1 -10.86517091809181  2.67310287438744 -1.90495121612161
 1 -9.65324130213021  1.25405942504250 -1.74880084708471
 1 -9.82004618861886  2.53478613271327 -0.54096725272527
 1  14.70354948294830 -2.84156948404840  0.59724800480048
 1 -15.17121181418142  1.59699699979998  1.66341743774377
 1  10.02460837983798  2.51790869886989 -0.02345552055206
 1 -8.76787152315231  0.52606720782078 -0.13068369436944
 1  8.90020770777078  4.05844922692269  0.60420626162616
 1  7.30079646664666  4.07329219021902 -0.64887123312331
 1  7.09376863686369  4.00899196719672  1.13251008900890
 1 -8.37941073507351 -3.25234989288929 -0.13464875387539
 1 -8.07320169116912 -2.66554655755576 -1.81573346234623
 1 -6.57662343434343 -3.05953049294929 -0.94986042004200
 1  6.91090694569457  0.48918213321332 -0.03749162416242
 1 -6.29099607560756  0.69724721982198 -0.65699082408241
 1  5.36426413141314  3.16318199019902  0.37391390039004
 1 -5.02382285328533 -2.14965264326433 -0.94753090309031
 1  4.74931812481248  0.06049079507951  0.15669360136014
 1 -4.08922032603260  0.72793216521652 -0.47088580758076
 1  3.12416804480448  3.38611050105011  1.44628786978698
 1  1.83834209520952  3.38474945694569  0.50762536453645
 1  3.17699307930793  3.70929755475548 -0.24656771477148
 1 -2.58456957195720 -2.81190348234823 -0.32448011301130
 1 -3.02082079507951 -2.69513657565757 -1.88593733573357
 1 -1.36868725372537 -2.53942149214921 -1.23834237723772
 1  2.45093645664566 -0.33155643664366 -0.08525473747375
 1 -1.82518714171417  1.09689793379338 -0.07743165016502
 1  0.38903920292029  1.90652607960796  0.27353936393639
 1  0.28017980298030 -1.05924608860886 -0.75063673767377

