%nproc=4
%Mem=2GB
# td=(NStates=1) CAM-B3LYP/6-31G(d,p) 

TD

0 1
 8  14.73592911791179 -2.14392732583258 -0.19642656565657
 8 -14.82213727772777  1.99463476857686  0.82759229022902
 6  11.22286463246325 -1.48297084918492  0.87100326132613
 6 -12.44285944994499 -1.05391700960096  0.52204584858486
 6  12.60853441944194 -1.85356465256526  0.98133302530253
 6 -13.72160887988799 -0.24971299119912  0.46751956395640
 6  13.38517655665567 -1.79684200630063 -0.36293983898390
 6 -13.54471376437644  1.23020168126813  0.78360961196120
 6  11.02115144214421 -0.27180480748075 -0.10279357235724
 6 -11.35049141314131 -0.32912391929193 -0.20114779077908
 6  13.42433292429243 -0.44168265336534 -1.10223297729773
 6 -12.70605304330433  1.82361536863686 -0.31656100910091
 6  12.06190205920592  0.20443082598260 -0.94426706970697
 6 -11.50220081508151  0.96715334443444 -0.68114011001100
 6  10.63050409140914 -1.13297873887389  2.30127351135114
 6  10.35737635763576 -2.70762853085309  0.42343573357336
 6 -11.93900570657066 -1.07936762866287  2.00708683968397
 6 -12.64066056105611 -2.41932315421542  0.01043230523052
 6  9.65640088108811  0.43883283628363 -0.00321636163616
 6 -10.04791036303630 -1.04717745964596 -0.36895818081808
 6  11.74082996299630  1.31413658755876 -1.74944693469347
 6 -10.44920320832083  1.87966744384438 -1.36074296429643
 6  9.34025793079308  1.64507075007501 -0.02929628962896
 6 -8.83715511251125 -0.44634658355836 -0.29049415141514
 6  8.05289439443944  2.25668165116512  0.15610638563856
 6 -7.58384641864186 -1.25584391229123 -0.41820798979898
 6  7.98319010301030  3.75476433143314  0.45061924592459
 6 -7.65783408040804 -2.65938551545155 -0.99196788178818
 6  6.90944091509151  1.52690163116312  0.15328284328433
 6 -6.35087778477848 -0.52297055895590 -0.27636656165617
 6  5.61745245924592  2.03558779677968  0.34802177117712
 6 -5.08063660966097 -1.08550562346235 -0.42284916291629
 6  4.50082886888689  1.21359755375538  0.12566048104810
 6 -3.96815811281128 -0.37338956295630 -0.20182299729973
 6  3.11480897189719  1.64716910791079  0.22951706770677
 6 -2.59788524452445 -0.85628570757076 -0.44939329432943
 6  2.83249481648165  3.05648334033403  0.55358301630163
 6 -2.42811157915792 -2.23252674467447 -0.95506673267327
 6  2.15663475247525  0.62828489248925 -0.08252893289329
 6 -1.58595055505551  0.07810569956996 -0.15874982598260
 6  0.74200102910291  0.88017083108311 -0.03928260026003
 6 -0.25857572757276 -0.18602620262026 -0.25697666766677
 1  13.15375395539554 -1.27068047814781  1.86882257125713
 1  12.65291879087909 -2.82584579867987  1.39637732173217
 1 -14.23595656865687 -0.49856729862986  1.32954387538754
 1 -14.23313680868087 -0.23299117101710 -0.48534039003900
 1  12.79585059205921 -2.68000730783078 -1.00864142214221
 1 -12.90335076707671  1.52761674377438  1.74154188818882
 1  14.05004959195920  0.35297787568757 -0.50976615761576
 1  14.06744230123012 -0.42042739983998 -2.02970570157016
 1 -13.28700390939094  2.06401146124612 -1.18442118511851
 1 -12.53833980698070  2.75860088018802 -0.07524648864886
 1  10.58615130413041 -2.01105953495350  2.98531322732273
 1  9.53950227722772 -0.89535933493349  2.19716647164717
 1  11.19705344734473 -0.24964383148315  2.75586897289729
 1  10.92441870487049 -2.97231200520052 -0.57853453645365
 1  10.37629663256326 -3.57597624062406  1.22445188518852
 1  9.31645896289629 -2.53291459945995  0.44315103610361
 1 -11.83865555155516 -0.21941443534353  2.44945524252425
 1 -10.92651549054906 -1.64509705360536  2.01127491149115
 1 -12.71406229922992 -1.73119053895390  2.40696127612761
 1 -13.52980342934293 -2.84933362926293  0.39095722672267
 1 -11.94177941294130 -3.16103269216922  0.20849374737474
 1 -12.83563142214221 -2.43374256615662 -1.10560330233023
 1  8.93236513951395 -0.41482589358936  0.27840496149615
 1 -9.96350111511151 -2.09967703160316 -0.83899770177018
 1  10.55600689268927  1.47187185718572 -2.00763282228223
 1  11.95659148814882  2.19863080598060 -1.36310191819182
 1  12.20449211921192  1.23997485238524 -2.79372206120612
 1 -10.90833523452345  2.60756632073207 -1.94236495749575
 1 -9.72458843684368  1.33244726382638 -2.07784375137514
 1 -9.55133931793179  2.30343299739974 -0.60203335933593
 1  14.80030915891589 -2.89058438553855  0.65150343034303
 1 -15.03762845584558  1.83008030813081  1.71140223622362
 1  10.02720863986399  2.33111001900190 -0.24582775777578
 1 -8.66221095709571  0.46531113221322  0.15819519351935
 1  8.95406309330933  4.27336071807181  0.82182802380238
 1  7.37021340834083  4.39900476147615 -0.44810115611561
 1  7.04471373137314  3.70364143214321  1.37935477347735
 1 -8.23482627662766 -3.10826548444844 -0.20156544554455
 1 -8.19995436643664 -2.72775277817782 -1.90957284628463
 1 -6.64844061606161 -3.08169270917092 -1.04697013101310
 1  7.12160801580158  0.59406262126213 -0.00859873487349
 1 -6.43792076807681  0.60647814291429 -0.11038616361636
 1  5.51126883188319  2.96939261126113  0.70239674867487
 1 -5.03499397039704 -2.05670334833483 -0.96080223022302
 1  4.80227342034203  0.16867161316132 -0.11284335233523
 1 -4.02853425742574  0.46131550355035  0.30122140314031
 1  3.10882651065107  3.21081297129713  1.58818205920592
 1  1.85102336333633  3.29668065006501  0.48586318831883
 1  3.20083546354635  3.77685431043104 -0.26797985598560
 1 -2.72017313231323 -2.92515480748075 -0.21871953695370
 1 -2.98749746274627 -2.47804486648665 -1.97727646964696
 1 -1.28091847684768 -2.48413596359636 -1.07837638063806
 1  2.55607697069707 -0.30875415641564 -0.30754696669667
 1 -2.00177480048005  0.96673491749175  0.26864295729573
 1  0.36837713671367  1.81084651165117  0.21371338133813
 1  0.10004178917892 -1.23949411341134 -0.67001867586759

