%nproc=4
%Mem=2GB
# td=(NStates=1) CAM-B3LYP/6-31G(d,p) 

TD

0 1
 8  14.58547407240724 -2.33670660376038 -0.38702562556256
 8 -14.41964702870287  2.05877118221822  1.17864739573957
 6  11.13341568756876 -1.47172972507251  1.05405156615662
 6 -12.22659782378238 -1.01540315821582  0.66019966396640
 6  12.65677924392439 -1.86882617871787  0.97386227822782
 6 -13.59083580258026 -0.29443746364636  0.72364517651765
 6  13.21879991899190 -2.07298962106211 -0.48644218921892
 6 -13.31970126312631  1.19031769286929  0.98681993299330
 6  10.90486981398140 -0.28285591259126  0.08124483148315
 6 -11.20281664566457 -0.23383439033903 -0.20107778377838
 6  13.07589808080808 -0.65367385248525 -1.06863961796180
 6 -12.61113355135513  1.88760176727673 -0.17201655465547
 6  11.81004687368737  0.07533791669167 -0.87171981498150
 6 -11.43734432943294  1.03328995809581 -0.58381037703770
 6  10.87951899289929 -1.19838527952795  2.52798618261826
 6  10.18106872687269 -2.53467123512351  0.70569395939594
 6 -11.66839864586459 -1.39141883378338  2.06087221822182
 6 -12.55652214721472 -2.33727494939494 -0.03033177117712
 6  9.64924016501650  0.42709166216622  0.25459941994199
 6 -10.06497206920692 -1.10441318321832 -0.41844312931293
 6  11.55393127312731  1.18725389928993 -1.70432242224222
 6 -10.58379666766677  1.76394587168717 -1.70767765776578
 6  9.27804170917092  1.83695993899390  0.23380002000200
 6 -8.85178657565757 -0.58969091799180 -0.48935403740374
 6  7.99669877487749  2.35401138413841  0.35414618961896
 6 -7.57569560356036 -1.31257958585859 -0.57875404440444
 6  7.96798858285829  3.77331618661866  0.72692687668767
 6 -7.75525382238224 -2.80461003790379 -0.83809249424943
 6  6.82826279727973  1.73350229122912  0.04066158115812
 6 -6.29531222822282 -0.62884114601460 -0.65753467846785
 6  5.55233594759476  2.16312055005501  0.15266223522352
 6 -5.06979552555256 -1.19837691059106 -0.73776065406541
 6  4.44632341834183  1.45915210921092  0.02709062406241
 6 -4.00570186718672 -0.34944716871687 -0.48742155715572
 6  3.05206269726973  1.76231062206221 -0.08177406140614
 6 -2.61921737773777 -0.78504858385839 -0.50221857685769
 6  2.74653622062206  3.21106879887989  0.43659131713171
 6 -2.25744451245125 -2.17617110911091 -0.91855308130813
 6  2.11725081408141  0.79789185318532 -0.35054573457346
 6 -1.58700066006601  0.16701459045905 -0.37048099909991
 6  0.76630345934593  0.92027484148415 -0.19514818681868
 6 -0.21546141614161 -0.03124072407241 -0.38593956395640
 1  13.18798737873787 -0.86421983208321  1.37001269026903
 1  12.91984548354836 -2.65187840194019  1.77450513451345
 1 -14.12163513651365 -0.60232767466747  1.68696961796180
 1 -14.25976947194719 -0.44087195909591  0.00709885388539
 1  12.71441244824483 -2.94800410751075 -1.21651220922092
 1 -12.54019445144514  1.29431341344134  1.91834956895690
 1  13.87412199919992  0.01238381628163 -0.62695787678768
 1  13.27798335533553 -0.61415677277728 -2.23792652365236
 1 -13.30555576457646  1.92736779687969 -0.97335007800780
 1 -12.56152212521252  3.00998601870187  0.05096613261326
 1  11.15161785078508 -1.95611404040404  3.22566726272627
 1  9.75140346734673 -1.20066986598660  2.68965572057206
 1  11.23006674867487 -0.14760362746275  2.89669305530553
 1  10.47744400740074 -3.18880365436544 -0.20685736873687
 1  10.18010701360136 -3.35788443144314  1.40775021502150
 1  9.19622693969397 -1.99641094909491  0.78786550755075
 1 -11.04350603660366 -0.55229772367237  2.57737803480348
 1 -10.75996883588359 -2.15444798869887  2.10935471947195
 1 -12.54992588558856 -1.73398081798180  2.84182476247625
 1 -13.43267371637164 -2.80358905480548  0.24943307430743
 1 -11.84459969496950 -3.02447903680368  0.18374127212721
 1 -12.72860071907191 -2.21869106100610 -1.09333207520752
 1  8.91181308430843 -0.12785719671967  0.64360148114811
 1 -10.14496926192619 -2.14920198409841 -0.78425222722272
 1  10.48809010101010  1.29232390239024 -1.93377543654365
 1  11.95989181818182  2.26109705260526 -1.30089569756976
 1  11.96243791379138  1.04077493239324 -2.75547823682368
 1 -11.16360076107611  2.17130269436944 -2.51599232023202
 1 -9.79593557155716  1.06520053915392 -2.18635460246025
 1 -10.10000418441844  2.79961261536154 -1.20159331533153
 1  14.73877300530053 -3.13994932203220  0.18770705070507
 1 -14.92284697769777  1.70271757185719  1.96968806480648
 1  9.97458337733773  2.75259216721672 -0.03838701370137
 1 -8.55241997799780  0.42414701580158 -0.11065169116912
 1  9.00091777877788  4.00813419541954  0.66355219621962
 1  7.08524491149115  4.59380424142414  0.39122277627763
 1  7.88087734773477  3.86308737673767  1.91396823482348
 1 -8.27154994899490 -3.13259791769177  0.24121883288329
 1 -8.47304167516752 -3.05669567246725 -1.67735962496250
 1 -6.78945471747175 -3.22468700860086 -1.03859929392939
 1  6.99565542054205  0.75382859785979 -0.12636051105111
 1 -6.52890986698670  0.34085158025803 -0.44399952495250
 1  5.31556926192619  3.14685035703570  0.45297180618062
 1 -4.85008547954796 -2.24108178617862 -0.88527467746775
 1  4.47203039603960  0.30714546054605 -0.21068313631363
 1 -4.30663206720672  0.77072644464446 -0.44067278627863
 1  3.16855248324832  3.31518340834083  1.59292253325333
 1  1.55183344434443  3.27963894589459  0.47977257925793
 1  3.49835521552155  3.95198182318232 -0.17576063406341
 1 -2.75780689568957 -2.96254854685469 -0.16954461946195
 1 -2.78084679767977 -2.56721378337834 -1.72366110811081
 1 -1.23595398039804 -2.58357590759076 -0.92541108410841
 1  2.43702506550655  0.08518523752375 -0.77252346434643
 1 -1.87460208320832  1.16477472147215 -0.06612051905190
 1  0.35183548254826  1.75624105110511  0.42678468846885
 1  0.17621940694069 -1.12095225922592 -0.55650732473247

