%nproc=4
%Mem=2GB
# td=(NStates=1) CAM-B3LYP/6-31G(d,p) 

TD

0 1
 8  14.82742826782678 -2.27375030813081 -0.14904182718272
 8 -14.89219428342834  1.74683998909891  0.97761729272927
 6  11.24771711771177 -1.55065761786179  0.92034819581958
 6 -12.39043420742074 -1.05967758565857  0.66952059605961
 6  12.72228579457946 -1.89354865096510  1.02256714871487
 6 -13.73696041504151 -0.34589260916092  0.71841465346535
 6  13.42558059705971 -1.91968429052905 -0.30166371137114
 6 -13.62912220522052  1.15475413651365  0.86868811981198
 6  10.93983331033103 -0.33272089908991 -0.01721501450145
 6 -11.29517588158816 -0.22281328822882 -0.17166484248425
 6  13.32642313331333 -0.64189267436744 -1.00308306230623
 6 -12.82986542454245  1.70893390049005 -0.31953130613061
 6  11.98237410641064  0.13486386928693 -0.75704834783478
 6 -11.54468506350635  1.03813044214421 -0.56416841284128
 6  10.60957199819982 -1.25105054605461  2.27301068506851
 6  10.35104572457246 -2.75907367536754  0.41035442544254
 6 -11.91754356035604 -1.23217290919092  2.00083621462146
 6 -12.70078657365737 -2.38354957685769 -0.02986172417242
 6  9.65145038603860  0.37256620962096  0.06841080108011
 6 -10.09976554855486 -0.99282202410241 -0.43519480448045
 6  11.80857673767377  1.18341351525153 -1.86366835683568
 6 -10.62407069506951  1.74350382748275 -1.60819770977098
 6  9.35336924192419  1.77275351835184  0.08200484048405
 6 -8.76814821182118 -0.57441939083908 -0.42000710271027
 6  8.08521762676268  2.34204018701870  0.13028380338034
 6 -7.56397443144314 -1.31832015991599 -0.47294346334633
 6  7.91920370437044  3.66584543954395  0.62619680368037
 6 -7.77777607460746 -2.70238981588159 -0.93942262726273
 6  6.92482245324532  1.60989993099310 -0.02545503050305
 6 -6.38360105710571 -0.57540580248025 -0.39824874987499
 6  5.65333604760476  2.03911814981498  0.26291326032603
 6 -5.01669021502150 -1.00569764266427 -0.46272315031503
 6  4.48434722072207  1.29253544754475 -0.13427551255126
 6 -3.96290758775878 -0.18753097709771 -0.40087290229023
 6  3.17308479947995  1.77856224722472  0.08819293529353
 6 -2.58046350235024 -0.60478055705571 -0.47171552655266
 6  2.96936850385039  3.21529922192219  0.56246390439044
 6 -2.26579534753475 -2.08263175517552 -0.86844807080708
 6  2.18198728772877  0.82987505150515 -0.13366404640464
 6 -1.59220118011801  0.28920680968097 -0.28106205720572
 6  0.73282011101110  1.08536135013501 -0.05010368236824
 6 -0.15220509050905  0.08279067906791 -0.21381235123512
 1  12.93817239723972 -1.07982139223922  1.81102679167917
 1  12.90230372937294 -2.87900111421142  1.41177886188619
 1 -14.32312528552855 -0.84102154405441  1.61636255725572
 1 -14.40559405440544 -0.52069994189419 -0.25085694169417
 1  12.88473948094810 -2.72672197929793 -0.96248680668067
 1 -13.06283671567157  1.42151613371337  1.86449418341834
 1  14.13573816081608  0.17758033593359 -0.48747392839284
 1  13.41653721072107 -0.69328468556856 -1.96698942994299
 1 -13.53113832283228  1.75184024412441 -1.32936567956796
 1 -12.54921089408941  2.69537455755576 -0.05602456645665
 1  10.55646833583358 -2.01433986298630  3.13487818381838
 1  9.53595192219222 -0.75042484148415  2.17683443844384
 1  11.27912165416542 -0.35472433953395  2.91647503350335
 1  10.51756801980198 -3.14462923692369 -0.61786846984698
 1  10.55644464736474 -3.58064670767077  1.01928136813681
 1  9.15191250825083 -2.60538184618462  0.54365108610861
 1 -11.55973765976598 -0.25737823172317  2.57810810781078
 1 -10.87189002800280 -2.15480802470247  2.07696148014802
 1 -12.70263115611561 -1.57036445634563  2.62602318231823
 1 -13.59170961996200 -2.76157485338534  0.36726485748575
 1 -12.04785002000200 -3.18066465536554 -0.21087818981898
 1 -13.10206806580658 -2.37115630753075 -1.09378212021202
 1  8.74538644164416 -0.36712112311231  0.02605972697270
 1 -10.43864862986299 -2.18954601850185 -0.28468227022702
 1  10.81767305930593  1.34485915591559 -1.89360141914191
 1  12.27239306830683  2.21238218111811 -1.59816542454245
 1  12.21494316431643  0.84613546844684 -2.91524421342134
 1 -11.43374777577758  2.32637820192019 -2.18311903290329
 1 -9.92334831283128  1.00518453755376 -2.04753072007201
 1 -10.04687887188719  2.61709436353635 -1.14097725372537
 1  14.81743087108711 -3.17789311641164  0.29338761876188
 1 -15.23429812281228  1.39333663376338  1.82611370737074
 1  10.13803972297230  2.46760366836684  0.01213803880388
 1 -8.62894763076308  0.52182678377838 -0.24029465546555
 1  8.83506119311931  4.10913429542954  0.45840168116812
 1  7.18559494649465  4.26010087108711  0.04755840984098
 1  7.60322958295829  3.80982205020502  1.71928876687669
 1 -8.62349514351435 -3.14355901380138 -0.43412870187019
 1 -8.08550292129213 -2.69055905880588 -1.85300718971897
 1 -6.73693946594659 -3.29827436733673 -0.71884731873187
 1  6.90442629762976  0.55958917391739 -0.24561243624362
 1 -6.21468844484448  0.62549004410441 -0.33217834283428
 1  5.35121282628263  3.02466813881388  0.55464197319732
 1 -4.87069754075408 -2.04575225322532 -0.62796894689469
 1  4.66093928692869  0.29698444444444 -0.55177724572457
 1 -4.08076948094809  0.99723909590959 -0.25402412141214
 1  2.90510613861386  3.20729261926193  1.71368460946095
 1  1.99597785878588  3.75146612861286  0.00773537553755
 1  4.20665604560456  3.69215584058406  0.39260620262026
 1 -2.31780289528953 -2.73799609160916 -0.08792645764576
 1 -2.80718943194319 -2.37443450545054 -1.56673541554155
 1 -1.22398278327833 -2.00510806080608 -1.14537308030803
 1  2.35426678967897 -0.04218749974998 -0.60614682668267
 1 -1.92048667166717  1.14423266726673  0.07629372237224
 1  0.35446574557456  2.11732715971597  0.22172418241824
 1  0.16133791879188 -1.06582674667467 -0.25867754175418

