%nproc=4
%Mem=2GB
# td=(NStates=1) CAM-B3LYP/6-31G(d,p) 

TD

0 1
 8  14.55717124212421 -2.21881481458146 -0.27449437243724
 8 -14.75896096009601  1.75695100020002  1.04852438343834
 6  11.23068541454145 -1.42773532563256  0.99383554455446
 6 -12.36069123312331 -1.00893251115111  0.55642928692869
 6  12.63995756175617 -1.82215151125113  1.03491838383838
 6 -13.69730644964496 -0.31757977787779  0.52912572457246
 6  13.21527956695670 -1.97003932603260 -0.35480902590259
 6 -13.52571186418642  1.16008466956696  0.96078732973297
 6  10.90914024102410 -0.31051867886789  0.07857456445645
 6 -11.27496386038604 -0.25719672657266 -0.16140381638164
 6  13.11496198719872 -0.72012049714971 -1.13105585958596
 6 -12.65690812881288  1.82954596169617 -0.11740109310931
 6  11.79204507350735  0.03009339223922 -0.90686332933293
 6 -11.43881447644764  1.04651128022802 -0.59355135113511
 6  10.79186022702270 -0.98190363136314  2.48917230123012
 6  10.34033465346535 -2.58617638563856  0.60064345434543
 6 -11.93857566356636 -1.40462015391539  2.01971810281028
 6 -12.58489498449845 -2.37048827072707 -0.15756449444944
 6  9.59313455445544  0.41103005600560  0.28091205120512
 6 -9.99694526652665 -0.98693143504350 -0.50990227522752
 6  11.58359423942394  1.01517669156916 -1.96113810381038
 6 -10.57260554855485  1.80512999009901 -1.47963485348535
 6  9.36133003800380  1.74758100110011  0.09310595059506
 6 -8.73894529152915 -0.46234818371837 -0.37199230123012
 6  8.02552165716572  2.43163914691469  0.14048482348235
 6 -7.54818285228523 -1.19541786968697 -0.56623279227923
 6  7.97284906890689  3.86840569556956  0.42520670467047
 6 -7.87246554355435 -2.60346992389239 -1.04618330333033
 6  6.92908287928793  1.60947988898890  0.08854636963696
 6 -6.34451714871487 -0.55433369526953 -0.49395832083208
 6  5.64531524552455  2.06443068106811  0.16473344234423
 6 -5.10198874487449 -1.13253032593259 -0.49655653365337
 6  4.56343512951295  1.21748794279428  0.00064797979798
 6 -3.91184248124812 -0.34898712271227 -0.39446226122612
 6  3.19981747274728  1.68579297029703  0.14788890489049
 6 -2.51516697269727 -0.73074315331533 -0.55812416741674
 6  2.97263883088309  3.05013270527053  0.50785844384438
 6 -2.20084885288529 -2.15421891389139 -0.91275250125012
 6  2.18389747874787  0.76279834383438 -0.02715339533953
 6 -1.57370933093309  0.23879176817682 -0.24448839983998
 6  0.76140296929693  0.99315212921292  0.12375370337034
 6 -0.16353622362236  0.02036443644364 -0.28933990399040
 1  13.13070165016502 -1.05754916501650  1.61340702970297
 1  12.81004450345035 -2.93671688578858  1.47281496549655
 1 -14.61547452045204 -0.66325376727673  1.08517943894389
 1 -13.92195569056906 -0.34945281718172 -0.54064592059206
 1  12.69555056205621 -2.57121642874287 -1.00416097409741
 1 -12.86907733973397  1.23691767386739  1.75642337633763
 1  14.02646723372337 -0.06764418651865 -0.84208938993899
 1  13.33669922692269 -0.72866822392239 -2.17081981298130
 1 -13.35317052605260  2.33234829492949 -0.93922666566657
 1 -12.53162913591359  2.96536155625563  0.41917295329533
 1  11.32269495849585 -1.78734716371637  3.09169386538654
 1  9.75413374037404 -1.03663346234623  2.65942269726973
 1  11.18814255625563  0.01685281818182  2.86152953895390
 1  10.55357162016202 -2.89817459145915 -0.46579326232623
 1  10.68894789768977 -3.46565520852085  1.32874231423142
 1  9.30802811981198 -2.53244455245525  0.62963968496850
 1 -11.91197288328833 -0.63904639853985  2.77835813281328
 1 -11.00055289428943 -1.92957550145014  2.30142392639264
 1 -12.66852774577458 -2.24780220012001  2.42598317831783
 1 -13.53860430943094 -2.91706040194019  0.44155228622862
 1 -11.75703093809381 -3.04778136703670  0.01842474047405
 1 -12.64472233123312 -2.42390158205821 -1.19673241524152
 1  8.82692459545955 -0.20281469246925  0.53707082808281
 1 -10.15050981598160 -2.03385044894489 -0.79309311131113
 1  10.43871516351635  1.21557622762276 -2.08014007300730
 1  12.15495132413241  1.84002494539454 -1.83813942194219
 1  11.77373904390439  0.55484633953395 -2.96239892889289
 1 -11.26174057505751  2.47331289538954 -1.91679240024002
 1 -10.01682766076608  1.11421544064406 -2.33610957795780
 1 -9.85261944594459  2.35666832093209 -0.92457561356136
 1  14.92524165216522 -2.93053838093809  0.30853913391339
 1 -15.29263395639564  1.34658195829583  1.77477857385739
 1  10.29847576657666  2.37607451545155 -0.33484665966597
 1 -8.55420015601560  0.52566716781678  0.00225959996000
 1  8.94978266526653  4.29838322032203  0.46789263026303
 1  7.21578796579658  4.27157201820182 -0.33916026202620
 1  7.58471773177318  4.04596566456646  1.35150198819882
 1 -8.50152294629463 -3.06995165306531 -0.37184247324733
 1 -8.41694606560656 -2.45470547344735 -2.01839372837284
 1 -6.87827359935994 -3.07383192309231 -1.16439187318732
 1  7.19584543954395  0.59328254325433 -0.07290516551655
 1 -6.40672764876488  0.43704119921992 -0.21120624562456
 1  5.41231893689369  2.96349202120212  0.69968647764776
 1 -4.81266173717372 -2.09414709270927 -0.80847699769977
 1  4.72834602760276  0.35412015801580 -0.50117218521852
 1 -4.15244664866487  0.72704207620762 -0.00130884988499
 1  3.29220484848485  3.24133602360236  1.37116035703570
 1  1.98075633663366  3.28701968396840  0.67771237323732
 1  3.59204458445844  3.78915554055406 -0.24738779677968
 1 -2.47441855685569 -2.63123541554155  0.20995333033303
 1 -2.81833054605461 -2.44099116111611 -1.72634137613761
 1 -1.18754913991399 -2.36466401640164 -1.16228477147715
 1  2.58502986598660 -0.27101038203820 -0.32195840784078
 1 -2.01371599459946  1.07278552255226  0.14364045704570
 1  0.23177347634763  1.96484191119112  0.23294530453045
 1  0.13982576757676 -1.03602376637664 -0.54504617861786

