%nproc=4
%Mem=2GB
# td=(NStates=1) CAM-B3LYP/6-31G(d,p) 

TD

0 1
 8  14.62199772477248 -2.19017195029503 -0.32026894989499
 8 -14.52999806380638  2.04362966806681  0.92988251925193
 6  11.10963330933093 -1.34570712281228  1.00829699069907
 6 -12.39665482948295 -1.01079269716972  0.53884752875288
 6  12.62031559755975 -1.71423071917192  1.04397928992899
 6 -13.58752547154715 -0.18295631553155  0.65496830883088
 6  13.32760079907991 -1.94001632373237 -0.38350189518952
 6 -13.40830012301230  1.24656331743174  0.91627287828783
 6  10.87136646364636 -0.24397202420242  0.02666937393739
 6 -11.31520788478848 -0.22281328822882 -0.12881055705571
 6  13.12905339633963 -0.56058454355436 -1.02022477647765
 6 -12.59646208420842  1.94890789788979 -0.12074142714271
 6  11.83757962696270  0.10479086198620 -0.95511815481548
 6 -11.40844143914391  1.07181381048105 -0.54393638963896
 6  10.79000004100410 -0.98758419941994  2.46432981698170
 6  10.28694931493149 -2.60297806580658  0.43526691669167
 6 -12.00759256525652 -1.51742143404340  1.89741587258726
 6 -12.89909640464046 -2.20301152305231 -0.26136487448745
 6  9.60474571557156  0.36539549254925  0.13874783478348
 6 -10.07678325032503 -0.93523626552655 -0.46865815081508
 6  11.64557043704371  1.26438161206121 -1.99831182118212
 6 -10.39017730573057  1.72233171027103 -1.44405129512951
 6  9.41377528252825  1.76449269226923  0.06677331733173
 6 -8.78624002100210 -0.44253620252025 -0.40481558355836
 6  8.09643874887489  2.39766574957496  0.11779255425543
 6 -7.52324035803580 -1.15682401030103 -0.68630479947995
 6  8.00147193119312  3.80513936893689  0.34128831283128
 6 -7.68905720272027 -2.73728330523052 -1.12991167616762
 6  6.93578354935494  1.54784372537254  0.08845636063606
 6 -6.31049374637464 -0.65474373627363 -0.38234715971597
 6  5.57020773477348  1.96968120612061  0.25189215821582
 6 -5.07143568956896 -1.25008208110811 -0.55217209520952
 6  4.43625241124112  1.20083627762776  0.09538745374537
 6 -3.96168746574658 -0.44032625662566 -0.21144395939594
 6  3.12566005700570  1.66835122612261  0.19247336333633
 6 -2.58804426042604 -1.00121020002000 -0.26641499649965
 6  2.92019358635864  3.10182787478748  0.41451910991099
 6 -2.31962073007301 -2.42611610361036 -0.71307253325333
 6  2.11102019101910  0.69973203720372  0.08443776377638
 6 -1.58609056905691 -0.00586269726973 -0.12613656465647
 6  0.71000782978298  0.95767858185819  0.04171549954995
 6 -0.23915378537854 -0.08015561556156 -0.21679264926493
 1  13.31124970497050 -0.89399280938094  1.43056874587459
 1  12.69262276127613 -2.59019223332333  1.66683436743674
 1 -14.27654062706271 -0.80240768266827  1.16787770877088
 1 -14.02164565956596 -0.05671354325433 -0.27866972297230
 1  12.62943395039504 -2.51726103320332 -0.91535209320932
 1 -12.81077150915091  1.06451043314332  1.89785751975198
 1  13.84112869986999  0.22144472237224 -0.70218539953995
 1  13.52457801480148 -0.62156751385138 -2.10928365936594
 1 -13.09457466646665  2.04551961206121 -0.98167091009101
 1 -12.10062603560356  2.79242426252625  0.37466850285029
 1  10.81149383838384 -1.73908233723372  3.16743143914391
 1  9.66553488048805 -0.74054385338534  2.58469522452245
 1  11.44858860086009 -0.06109497659766  2.67968135413541
 1  10.69018528152815 -2.73228800280028 -0.69124580758076
 1  10.45970497339734 -3.40799944294429  0.98644808480848
 1  9.11667898489849 -2.22513382138214  0.70975769676968
 1 -11.73231491749175 -0.86856935083508  2.71257155415542
 1 -11.14385722472247 -2.13287583148315  1.92618640264026
 1 -12.95170606360636 -2.03080049994999  2.27643822382238
 1 -13.77928837783778 -2.76017471337134  0.11596972797280
 1 -12.12125736073607 -3.15062165106511 -0.34803190519052
 1 -12.94329218821882 -1.89148834073407 -1.31774451645165
 1  8.81329323232323 -0.24866927792779  0.61224834583458
 1 -10.19418418341834 -1.88992605650565 -0.66439024102410
 1  10.57729902190219  1.50648531853185 -1.99131119011901
 1  12.35093092209221  2.11684262716272 -1.84931053905390
 1  12.12206387638764  0.89092994789479 -2.84465715471547
 1 -10.85227962896290  2.62091765586559 -2.03074379537954
 1 -9.66842282028203  1.29821384048405 -2.14315028202820
 1 -9.52595677967797  2.29418207230723 -0.86329948594859
 1  14.65263439143915 -2.85655098219822  0.23998227822782
 1 -15.35522021502150  1.55912321242124  1.31523261926193
 1  10.28067398639864  2.27603451145115  0.16741356635664
 1 -8.60882561856186  0.66995159625963 -0.01318194419442
 1  8.76304399139914  4.43051643364336  0.07354319531953
 1  7.09322570957096  4.12740760176018 -0.11868821482148
 1  7.92299155915592  3.88167923592359  1.54672151015102
 1 -8.19443223722372 -3.27034169206921 -0.32187747674767
 1 -8.51497586858686 -2.73213321622162 -1.92714460346035
 1 -6.84218999099910 -3.13152769266927 -1.71825725972597
 1  7.00256611161116  0.52102531753175 -0.13540141514151
 1 -6.45206218221822  0.44598209330933  0.02391726672667
 1  5.47163486848685  3.05597126912691  0.40802731173117
 1 -4.79614008500850 -2.23889156715672 -1.12115826582658
 1  4.60836402940294  0.13931867786779 -0.08904097209721
 1 -3.83201460546055  0.43207257925793  0.17453873487349
 1  3.32834846284628  3.33624551455146  1.36679992099210
 1  1.74357261826183  3.17930891289129  0.33380798279828
 1  3.27970335033503  3.50905753075308 -0.45813887188719
 1 -2.76252736773677 -3.17574986698670 -0.23204086908691
 1 -2.54817353035303 -2.48776583858386 -1.67497623962396
 1 -1.21306169116912 -2.62747029702970 -0.64873341634163
 1  2.51266262926293 -0.35183846484648  0.20094388238824
 1 -2.21786640964096  0.91962020602060  0.10616670967097
 1  0.26729702870287  1.90911633863386  0.25353736373637
 1  0.25694747974798 -1.04483464746475 -0.87700937493749

