%nproc=4
%Mem=2GB
# td=(NStates=1) CAM-B3LYP/6-31G(d,p) 

TD

0 1
 8  14.64539006400640 -2.31662459555956 -0.20835775877588
 8 -14.84217928192819  1.88149345444544  1.01427095809581
 6  11.08094044004400 -1.44101665376538  0.92646880788079
 6 -12.28075323932393 -1.07192881078108  0.59696334033403
 6  12.60291385738574 -1.86913620972097  1.01888678067807
 6 -13.55713243224322 -0.28758677857786  0.61615442744274
 6  13.19781782078208 -1.94448677077708 -0.38571211621162
 6 -13.51243053605361  1.15533419451945  0.89690094109411
 6  10.92833216021602 -0.29230685768577 -0.08528182118212
 6 -11.25753211721172 -0.24623563046305 -0.31711938793879
 6  13.20204069506951 -0.50441892699270 -0.96217897189719
 6 -12.82758519651965  1.82671567866787 -0.18373772677268
 6  11.86473234223423  0.09916029892989 -0.86665930893089
 6 -11.45373596859686  1.00917754685469 -0.60065206120612
 6  10.59255029602960 -1.02865830683068  2.27663104710471
 6  10.24876549654966 -2.72201996999700  0.49927331733173
 6 -11.68586039203920 -1.16984667656766  2.05456158715872
 6 -12.49519601460146 -2.36411763366337  0.04207546954695
 6  9.66976221722172  0.31571052405241  0.16418037803780
 6 -9.99873544554456 -0.90884362626263 -0.66022730773077
 6  11.66500238023802  1.12505767966797 -1.95339732973297
 6 -10.58221650965096  1.93913339043904 -1.41409829982998
 6  9.41561546654666  1.76962320532053  0.30034667466747
 6 -8.69402079907991 -0.49421137003700 -0.41901700370037
 6  8.05103420842084  2.29128511151115  0.28200897589759
 6 -7.43541157515752 -1.32303063096310 -0.51424759375938
 6  8.02383416741674  3.76438529352935  0.55275945994599
 6 -7.72093039003900 -2.76755633253325 -0.91258994399440
 6  6.87373734473447  1.56547548854885  0.08965648064806
 6 -6.27559025602560 -0.68124638653865 -0.33819274427443
 6  5.51464217821782  2.13071730973097  0.26476344534453
 6 -4.98396694269427 -1.15751282418242 -0.55705258325833
 6  4.44913369936994  1.35299149314931 -0.06058814381438
 6 -3.92314361136114 -0.26204842884288 -0.39292210721072
 6  3.10250774177418  1.69646403740374  0.18094221022102
 6 -2.54220967696770 -0.73405348434843 -0.63805216021602
 6  2.78496006300630  3.21056874887489  0.45168282628263
 6 -2.36224499249925 -2.24651814381438 -0.99974120012001
 6  2.12003109210921  0.73531559555956  0.03886320632063
 6 -1.56082804280428  0.20049793879388 -0.32172612361236
 6  0.74145097409741  0.93647646164616  0.05111643964396
 6 -0.17922779277928 -0.07548514851485 -0.21813278327833
 1  13.32718129812981 -1.00400381048105  1.35867155615562
 1  12.75683918291829 -2.68230144424442  1.70191787578758
 1 -14.17581055405541 -0.83677111901190  1.45291621262126
 1 -14.12531602660266 -0.42781065296530 -0.28695055105511
 1  12.66720772777278 -2.60444975207521 -1.10575113311331
 1 -12.73310374237424  1.37496147824782  1.67704543854385
 1  13.87832241924192  0.31834441234123 -0.47179236023602
 1  13.58250380738074 -0.68071342844284 -2.01098382938294
 1 -13.45263047204720  1.82801786188619 -1.13424616761676
 1 -12.51961793479348  2.82862788288829  0.11746278227823
 1  10.83316600560056 -1.79456788578858  2.97791248724872
 1  9.75747407440744 -0.57101690069007  2.36358311331133
 1  11.21754549654965 -0.11067993509351  2.58219160516052
 1  10.68955521852185 -3.06448122212221 -0.49588627162716
 1  10.15612461536153 -3.48263690669067  1.25256469646965
 1  9.19082639963997 -2.50947225522552  0.43584030503050
 1 -11.42129381538154 -0.01498399229923  2.58919921692169
 1 -10.92811565056506 -1.71662420632063  2.10395417941794
 1 -12.34355524852485 -1.69597701760176  2.95806638663866
 1 -13.16321677067707 -2.93589228512851  0.74561269226923
 1 -11.67152238723872 -3.00684727362736  0.09361225922592
 1 -12.81075893489349 -2.22654184608461 -0.98607134913491
 1  8.74522642564257 -0.30882529352935  0.46029315031503
 1 -10.12701746674668 -1.96681374527453 -1.21042484448445
 1  10.64180547254725  1.34957962796280 -2.06049810881088
 1  11.96431226022602  2.13821476437644 -1.65022063006301
 1  12.05972764276428  0.77355821072107 -2.94768745774577
 1 -11.29509391039104  2.12572813691369 -2.53112383338334
 1 -9.91230720872087  1.44285830493049 -2.03652961996200
 1 -10.21588577257726  2.95199785388539 -1.09640279627963
 1  14.64376350435044 -3.37443277037704 -0.08138985898590
 1 -15.37170186318632  1.00548784888489  1.50581167716772
 1  10.34094001300130  2.39178608660866 -0.03651682668267
 1 -8.40244498049805  0.53692829392939 -0.14907553355335
 1  9.03678136513651  4.36686006800680  0.70250609160916
 1  7.57504389138914  4.27097195819582 -0.41906825282528
 1  7.19998925892589  3.92541360936094  1.47044388238824
 1 -8.02545533953395 -3.42125678357836  0.04274898589859
 1 -8.20791516251625 -2.92963296619662 -1.73589547854785
 1 -6.66461223322332 -3.25694023392339 -1.25625105910591
 1  6.94237009200920  0.25550876587659  0.02487461246125
 1 -6.29408638463846  0.45818331343134 -0.05119024402440
 1  5.60656836183618  3.19017468946895  0.51481799079908
 1 -4.84692516351635 -2.26841451945194 -0.82860901090109
 1  4.61889508250825  0.23889863586359 -0.24590665866587
 1 -4.19527093109311  0.75801517351735 -0.16611533053305
 1  3.13321894989499  3.35236712671267  1.49527276827683
 1  1.77700596159616  3.50912189418942  0.47296189818982
 1  3.13768914891489  4.03871049604961 -0.19776283428343
 1 -2.36381749674968 -2.96254854685469 -0.03843150815082
 1 -3.33181189418942 -2.73607066906691 -1.58139688168817
 1 -1.24889527452745 -2.16891444144414 -1.37131567456746
 1  2.39781114411441 -0.31861514251425  0.05758954695470
 1 -1.79272389538954  1.25775401940194 -0.19176308330833
 1  0.17809810881088  1.85560098709871  0.30249225922592
 1  0.06845863086309 -1.09550971497150 -0.46129780378038

