%nproc=4
%Mem=2GB
# td=(NStates=1) CAM-B3LYP/6-31G(d,p) 

TD

0 1
 8  14.94539006400640 -1.80804373747375 -0.02077900090009
 8 -14.57349241324132  2.23671897699770  1.10843037403740
 6  11.25227757375738 -1.44674722682268  0.99870603160316
 6 -12.44608977297730 -0.86834845274527  0.73612725672567
 6  12.77576114211421 -1.66139543564356  1.03629852185219
 6 -13.61768848784878 -0.09243726362636  0.88325113711371
 6  13.57709574857486 -1.63274559665967 -0.19271281628163
 6 -13.38311760476048  1.38354701580158  1.03660491149115
 6  11.01881120812081 -0.28576620362036  0.00647735473547
 6 -11.37367373137314 -0.26012701960196 -0.21062873887389
 6  13.34564505550555 -0.35938442354235 -0.98055080908091
 6 -12.73115555355536  1.93719672677268 -0.23220257325733
 6  11.95084095309531  0.20429081198120 -0.81574421742174
 6 -11.58969956495650  1.03229985908591 -0.56214821082108
 6  10.75251629262926 -1.05020046104610  2.41739512351235
 6  10.63280390039004 -2.72382015001500  0.48061145114511
 6 -11.81758356435643 -1.21053074497450  2.10129626062606
 6 -12.77734422942294 -2.28595981788179  0.17911917391739
 6  9.68601384238424  0.36597555055506  0.14025798579858
 6 -10.21118669066907 -1.07976071797180 -0.47837912291229
 6  11.69496537653765  1.32794796869687 -1.76573856385639
 6 -10.56716500450045  1.75391486858686 -1.49641653165317
 6  9.45289919491949  1.63065930893089  0.11779841984198
 6 -8.93295469246925 -0.59234118301830 -0.32542764476448
 6  8.10182928792879  2.22365834883488  0.27047782278228
 6 -7.68280631463146 -1.32114044194419 -0.54447061606161
 6  7.93350513451345  3.62105096009601  0.72436662066207
 6 -7.88547684468447 -2.72401197809781 -0.92678136313631
 6  6.93525349634963  1.41167010801080  0.12858037303730
 6 -6.49096179317932 -0.72595085698570 -0.52445137013701
 6  5.64418513251325  1.86609084708471  0.21611858085809
 6 -5.14354290029003 -1.15454252715272 -0.72128900690069
 6  4.44336312231223  1.13594978897890 -0.08536062106211
 6 -4.04238553555356 -0.29372159615962 -0.65927874287429
 6  3.06230372137214  1.47200159115912  0.06483059905991
 6 -2.66050150615061 -0.82699277827783 -0.78556691169117
 6  2.68137970497050  2.79128682068207  0.60837849584959
 6 -2.36220498849885 -2.30547403940394 -1.21354258025803
 6  2.08481757075708  0.51638370237024 -0.35085576557656
 6 -1.65702766276628  0.02852074107411 -0.44631858285829
 6  0.68651548054805  0.79427224122412 -0.19165783778378
 6 -0.30160003000300 -0.22494009400940 -0.51777274727473
 1  13.28741732173217 -1.09635304540454  1.71092678167817
 1  12.95173867286729 -2.64703791789179  1.33553123712371
 1 -14.27390036303630 -0.52650009190919  1.66699762076208
 1 -14.42570606560656 -0.28276614851485  0.06830497449745
 1  13.21770277727773 -2.69797910501050 -0.90926148414842
 1 -12.70018045004500  1.40605458755876  1.93260099409941
 1  14.08741332833283  0.32982556045605 -0.35704088508851
 1  13.47204276127613 -0.57712306940694 -2.27470020102010
 1 -13.43253846284628  1.94855991609161 -1.05445818881888
 1 -12.23986995999600  2.91961698179818 -0.02062102610261
 1  10.78057074607461 -1.78892732173217  3.09954465046505
 1  9.82662098909891 -0.42394219321932  2.63097985298530
 1  11.58650239223922 -0.46617548464846  2.54661804780478
 1  11.03531979497950 -3.10333510751075 -0.50655733873387
 1  10.76263526642664 -3.48013665666567  1.25232467246725
 1  9.50404772177218 -2.63760506850685  0.19721644264426
 1 -11.35866755275527 -0.20848334223422  2.37314761176118
 1 -10.98671151015102 -1.83551609550955  1.98813259725973
 1 -12.55163605660566 -1.70711813171317  2.63056363636364
 1 -13.63157360636064 -2.83490218611861  0.71345947694769
 1 -12.11681691669167 -3.13129971887189  0.28707160516052
 1 -12.89568742774277 -2.17900709260926 -0.86674941694169
 1  8.99631153415342 -0.25893030403040  0.44181130213021
 1 -10.33664842984298 -2.10481754565457 -0.79283308530853
 1  10.70982227422742  1.19337400740074 -2.36435849484949
 1  11.70991682068207  2.35508645154515 -1.30443605160516
 1  12.60955262526253  1.51681253615362 -2.52568525752575
 1 -11.04082848384838  2.39603516761676 -2.20647136813681
 1 -10.05159113711371  1.12597661676168 -2.18671463846385
 1 -10.10530471447145  2.71556421052105 -0.91799495549555
 1  15.00552968096810 -2.65486081318132  0.39697797779778
 1 -14.91054574757476  2.29981728182818  2.04446554255426
 1  10.22438835783579  2.44253116111611 -0.10080325532553
 1 -8.65527026302630  0.39586418751875 -0.18354898089809
 1  8.97481516851685  4.24213759575958  0.84599044004400
 1  7.27571395839584  4.18064292529253  0.09620327432743
 1  7.70227948794879  3.74196526452645  1.79876671467147
 1 -8.58550134413441 -3.09014367226723 -0.28844413341334
 1 -8.47023139413941 -2.77455745864586 -1.79618150715072
 1 -7.10403617561756 -3.42652719261926 -1.08949438343834
 1  7.06482233723372  0.55714892989299 -0.37449532453245
 1 -6.34467144314431  0.32321981708171 -0.21665679067907
 1  5.52919062406241  2.84007967996800  0.48800530953095
 1 -5.01256172717272 -2.19693737173717 -1.20045619561956
 1  4.48355154815482  0.07327207320732 -0.32157422542254
 1 -4.17653905790579  0.73525289728973 -0.28910762976298
 1  3.54081970997100  3.13658554855486  1.46363960496050
 1  1.66649491049105  3.08832981498150  1.23752835483548
 1  2.60793617361736  3.64567119211921 -0.43059611761176
 1 -2.58112922792279 -2.85979827182718 -0.28253591859186
 1 -3.06735544854485 -2.43834089608961 -2.06914565656566
 1 -1.17371775677568 -2.46191374137414 -1.54734327732773
 1  2.29579094209421 -0.45970925192519 -1.06172238423842
 1 -1.85048967196720  1.10071831583158 -0.27955186218622
 1  0.43390368936894  1.70512593959396  0.18544055405541
 1  0.14412619761976 -1.20389055305531 -0.81477315131513

