%nproc=4
%Mem=2GB
# td=(NStates=1) CAM-B3LYP/6-31G(d,p) 

TD

0 1
 8  14.72172769776978 -2.15687862096210 -0.22596951995200
 8 -14.66121118511851  1.83374867996800  1.16810634163416
 6  11.17734008000800 -1.45266781888189  1.05762192319232
 6 -12.30088525252525 -1.07436905480548  0.72229587358736
 6  12.67986155215521 -1.76188548464846  1.14112900490049
 6 -13.59142586158616 -0.25941396129613  0.82968578057806
 6  13.34377241624163 -1.85735805790579 -0.26617016201620
 6 -13.39316860986099  1.23916257735774  0.99338058905891
 6  10.89583891089109 -0.26545417241724  0.02163887088709
 6 -11.22980934493449 -0.13320432733273 -0.06832450845085
 6  13.19503999499950 -0.60612909800980 -1.01326408040804
 6 -12.71933437143714  1.86832984008401 -0.11885123812381
 6  11.78343421242124  0.08397878077808 -0.85164780778078
 6 -11.46726732173217  1.02921955105511 -0.49919191519152
 6  10.83391443244324 -1.10316575757576  2.47112049604961
 6  10.35616623662366 -2.68999676767677  0.52773616361636
 6 -11.69927173317332 -1.18543823572357  2.10168629962996
 6 -12.64138063306331 -2.41073229512951  0.19253051505151
 6  9.61501674267427  0.34444339733973  0.35965992599260
 6 -10.02612818481848 -0.94929767166717 -0.43029431443144
 6  11.53851973197320  1.09684485838584 -1.92874486448645
 6 -10.58657694569457  1.73141261836184 -1.52696958695870
 6  9.36573047804781  1.71929817281728  0.26001264126413
 6 -8.66915831283128 -0.57241919081908 -0.55172027402740
 6  7.92830193519352  2.25354133713371  0.40196097109711
 6 -7.57017505150515 -1.24097242514251 -0.78831500050005
 6  7.88078986298630  3.68704755975598  0.70773495749575
 6 -7.57770606760676 -2.69322889978998 -1.30273895889589
 6  6.81384135513551  1.53449239023902  0.02275979097910
 6 -6.41482417941794 -0.53230149204921 -0.63261218621862
 6  5.53668438243824  2.07165140314031  0.08481545054505
 6 -5.10075862186219 -1.00613768666867 -0.89654653265327
 6  4.38797758375838  1.21822801680168 -0.13923600860086
 6 -3.89096039303930 -0.35711793579358 -0.53840665566557
 6  3.01451894289429  1.73481787278728 -0.03332921692169
 6 -2.57107256325633 -0.76524660366037 -0.52053040804080
 6  2.85535710271027  3.16236392839284  0.38956661466147
 6 -2.30961972997300 -2.16024951695170 -0.91379260526053
 6  1.98194728372837  0.83897596159616 -0.30575125512551
 6 -1.55429738973897  0.10485837483748 -0.18006195719572
 6  0.71350817981798  1.03372618661866 -0.21273994599460
 6 -0.23687355735574 -0.13559115911591 -0.35461643164316
 1  13.28830741074107 -1.03854726482648  1.68344403340334
 1  12.96871037003700 -2.79195240934093  1.67548523252325
 1 -14.27829080208021 -0.65533297519752  1.64168508950895
 1 -14.08272176717672 -0.41719959185919 -0.13423527952795
 1  12.91769277627763 -2.61726103320332 -0.82196275427543
 1 -12.74729516151615  1.50093407550755  1.81434916891689
 1  13.89998458545855  0.15108768666867 -0.71289647064707
 1  13.41568712571257 -0.62505786288629 -2.07973070407041
 1 -13.24168937793779  1.55351041114111 -1.18827157015702
 1 -12.48383435643564  2.95341036113611 -0.09039800380038
 1  10.80171286028603 -2.03919234823482  3.06705140114011
 1  9.82365069206921 -0.92286208520852  2.51563831883188
 1  11.40499424142414 -0.42012087918792  2.86395978197820
 1  10.38008427142714 -3.00684545854585 -0.62624930793079
 1  10.48772777567757 -3.64389303230323  1.19760920092009
 1  9.20264758175818 -2.60787209520952  0.93466018701870
 1 -11.30221190719072 -0.29293178707871  2.68755905290529
 1 -10.93646648564857 -1.93524606850685  2.27095087908791
 1 -12.43004389738974 -1.62424984488449  2.80992157215722
 1 -13.36763721272127 -2.87352604850485  0.77771590259026
 1 -11.84794002900290 -3.14802139103910  0.42130502850285
 1 -12.66803466246625 -2.55657484938494 -0.81510425242524
 1  8.93718562156216 -0.38848325932593  0.94786190719072
 1 -10.57191195619562 -2.03631069496950 -0.63507730973097
 1  10.65702699469947  1.40526519651965 -1.89434149314932
 1  12.13952978197820  2.06179712261226 -1.57245285328533
 1  11.99911158115811  0.68594944984498 -2.96145883488349
 1 -11.24449885088509  2.28301386548655 -2.30446116711671
 1 -9.83419939793979  0.98676269536954 -1.97371333833383
 1 -10.20601478547855  2.54947760186019 -0.88690184618462
 1  14.78830795879588 -2.90124545164516  0.22733101310131
 1 -14.77718241124112  1.89254655475548  2.33863495949595
 1  10.22066798579858  2.27457436543654  0.32877970297030
 1 -8.75648038403840  0.72491709280928 -0.40728135413541
 1  8.80256794379438  4.30739412141214  0.53536937793779
 1  7.00588697569757  4.13469833083308 -0.01558790479048
 1  7.42116137613761  3.93705477347735  1.77161399939994
 1 -7.76586938093809 -3.51417607550755 -0.38139342834283
 1 -8.52668703970397 -2.89044904780478 -2.17510939993999
 1 -6.58047381938194 -2.93101764166417 -1.52876831083108
 1  6.84900075507551  0.48820203520352 -0.54716259125913
 1 -6.55561253725373  0.55308280338034 -0.22122724772477
 1  5.50468817381738  3.09998567056706  0.75244175317532
 1 -4.75421589258926 -2.17518519651965 -0.86058220822082
 1  4.57465065806581  0.26651139713971 -0.44971703970397
 1 -3.80814221822182  0.65963533553355 -0.42642136113611
 1  3.37685331333133  3.32635452545254  1.38977221822182
 1  1.76893515451545  3.51090207220722  0.28015261726173
 1  3.41989736973697  3.74126075107511 -0.24731778977898
 1 -2.52055317031703 -2.60251254325433  0.10994332933293
 1 -2.84850356335634 -2.48694575657566 -1.87125586758676
 1 -1.19308969396940 -2.74097164716472 -1.29198774177418
 1  2.16754811781178 -0.09562284328433 -0.58090430243024
 1 -1.82383700670067  1.07879612361236 -0.00689459645965
 1  0.30541084008401  1.81190661766177  0.01833384338434
 1  0.27518930393039 -1.09544970897090 -0.57563923792379

