%nproc=4
%Mem=2GB
# td=(NStates=1) CAM-B3LYP/6-31G(d,p) 

TD

0 1
 8  14.74921044604461 -2.21877481058106 -0.21594851785179
 8 -14.81795685968597  1.97409271437144  1.00459999099910
 6  11.19241158715871 -1.44633718581858  0.93214937593759
 6 -12.31686685068507 -1.04109572747275  0.75546919091909
 6  12.71169473547355 -1.77412670877088  1.02454734673467
 6 -13.63355007400740 -0.21346936683668  0.70071288328833
 6  13.30663870287029 -1.82845516761676 -0.35905945094509
 6 -13.48557785078508  1.25507416851685  0.92753400440044
 6  10.94773410041004 -0.18123575057506  0.02542924992499
 6 -11.33652001600160 -0.21647265416542 -0.10930860686069
 6  13.19752024302430 -0.47817630273027 -1.05462821682168
 6 -12.71561399939994  1.86735974307431 -0.18737809080908
 6  11.86491236023602  0.07920830373037 -0.98860150315032
 6 -11.56024661966197  1.02905953505351 -0.55926792279228
 6  10.86935797679768 -1.06986242724272  2.49519290329033
 6  10.35889650965096 -2.74774254225423  0.62414580458046
 6 -11.81375318131813 -1.19599929182918  2.09917604860486
 6 -12.64305080008001 -2.40175139703970  0.05270653265327
 6  9.62499774077408  0.38796774977498  0.15331929192919
 6 -10.05956152815282 -0.92452519441944 -0.44007529252925
 6  11.64846072607261  1.28729390329033 -1.81481347134713
 6 -10.61546983498350  1.63776325342534 -1.64779166916692
 6  9.41849575457546  1.73591983498350  0.17147378737874
 6 -8.83185458245825 -0.46672862176218 -0.37990309230923
 6  8.04191329632963  2.27500348334833  0.31005178017802
 6 -7.58466650065006 -1.23134146204620 -0.52754892389239
 6  8.00275205920592  3.70079893489349  0.70178436243624
 6 -7.67243554055405 -2.66546612351235 -0.84779346434643
 6  6.93929390039004  1.54511345234523  0.12364987998800
 6 -6.38657135413541 -0.55698396029603 -0.33681260626063
 6  5.60539125312531  1.97972221022102  0.29056602560256
 6 -5.11511005700570 -1.17022409530953 -0.58386526452645
 6  4.48630741674167  1.16472266626663  0.05069298429843
 6 -4.02943424042404 -0.40819304330433 -0.39665248024802
 6  3.17361485248525  1.54992938393839  0.09046316231623
 6 -2.56021147714771 -0.78033811281128 -0.76803515851585
 6  2.81261282828283  3.05150284228423  0.53176083408341
 6 -2.32680144814481 -2.14565805780578 -1.16414764076408
 6  2.14839392839284  0.62916498049805 -0.20339101910191
 6 -1.52619457945795  0.22880076907691 -0.43830778177818
 6  0.80677750675068  0.88005081908191 -0.23701237323732
 6 -0.24921479147915  0.00121252125213 -0.56669763976398
 1  13.19179775977598 -0.85980939103910  1.79299498849885
 1  12.76370986998700 -2.68323153725373  1.60383806780678
 1 -14.41049402240224 -0.71635907780778  1.25861678267827
 1 -14.12520601560156 -0.58131600350035 -0.26392824882488
 1  12.88188919591959 -2.53443275037504 -0.96080663866387
 1 -12.87304773677368  1.74716869896990  1.87729546354635
 1  14.05036962396240  0.06082866076608 -0.71284646564657
 1  13.28847440444044 -0.64730008710871 -2.08708143914391
 1 -13.32657786678668  2.04108916901690 -1.14780752375238
 1 -12.59363533653365  2.86473149324932  0.19685072107211
 1  11.27531022002200 -1.94913334233423  2.92394709070907
 1  9.78934726172617 -0.81400119911991  2.60558731373137
 1  11.41827556955696 -0.17000586768677  2.92572595859586
 1  10.51804806780678 -3.29688446244624 -0.38801548454846
 1  10.87531653455346 -3.33797244024402  1.52109154915492
 1  9.31780909790979 -2.79233054105410  0.91380810181018
 1 -11.54134582058206 -0.00441293519352  2.56871716871687
 1 -10.90632347134714 -1.50904344824482  2.05541932593259
 1 -12.33056394939494 -1.91257867776778  2.73596417641764
 1 -13.59332978197820 -2.65146384228423  0.44569270027003
 1 -11.90572580758076 -3.23679026792679  0.18492139013901
 1 -12.79891775077508 -2.48545773767377 -1.03718646064606
 1  8.82461436443644 -0.11413582458246  0.35959308030803
 1 -10.16187095209521 -2.03903096699670 -0.56121992399240
 1  10.71062235423542  1.91615628562856 -1.83351541054105
 1  12.30143597259726  2.24116505940594 -1.63233884188419
 1  11.68257992799280  1.23333418831883 -2.93856654565457
 1 -11.12160656165617  2.07469303340334 -2.57656837783778
 1 -9.64938091609161  0.96099011811181 -1.66585255225523
 1 -10.15968015201520  2.66909956405641 -1.22071522752275
 1  14.65448457645765 -3.18467379447945  0.11065934593459
 1 -15.45860055305531  1.27810511061106  1.57858895489549
 1  10.43467938693869  2.26938384638464  0.41166799179918
 1 -8.52275701170117  0.48181278237824  0.01216059005901
 1  8.95157284428443  4.19189257125713  0.90655649664966
 1  7.44274066106611  4.38678353935394 -0.06504285028503
 1  7.40417967796780  3.75701676967697  1.67889472747275
 1 -8.26882967696770 -3.09501415931593 -0.06230151915192
 1 -8.17810218121812 -3.08679868276828 -1.94415630463046
 1 -6.84433020502050 -3.34906944684468 -1.03315874987499
 1  6.91893774877488  0.46947016201620 -0.21154902990299
 1 -6.43032000800080  0.48137563266327 -0.11369649464946
 1  5.47692539753975  2.99500517251725  0.72117862686269
 1 -5.13666413741374 -2.29892757075707 -0.62780893089309
 1  4.88932212521252  0.12950769676968 -0.32470453845385
 1 -4.00357176117612  0.65808518051805 -0.21163988298830
 1  3.27217284528453  3.11465335533553  1.36831007200720
 1  1.84768302930293  3.35137611961196  0.83527812981298
 1  3.14724010401040  3.73003962896290 -0.34669772777278
 1 -2.86854796979698 -2.86866915891589 -0.50729839483948
 1 -2.85716442944294 -2.12922998499850 -2.08774751675168
 1 -1.35166555155516 -2.40655820582058 -1.32576111911191
 1  2.52999436243624 -0.31525480648065 -0.59008522052205
 1 -2.15732035503550  1.04909315331533  0.23410950395040
 1  0.33175347434743  1.80130555755576 -0.34848283828383
 1  0.15083686868687 -0.99583974797480 -0.87864953895390

