%nproc=4
%Mem=2GB
# td=(NStates=1) CAM-B3LYP/6-31G(d,p) 

TD

0 1
 8  14.66985251025103 -2.25263819691969 -0.45114203720372
 8 -14.78241330533053  1.84926023112311  0.98579811081108
 6  11.29146149214921 -1.40325287738774  1.06655281628163
 6 -12.43389855385539 -1.02532415031503  0.53004664866487
 6  12.79119268526853 -1.85198449454946  0.99234412641264
 6 -13.74398111711171 -0.27156517641764  0.44542735473547
 6  13.30943898289829 -1.84058638073807 -0.39382292729273
 6 -13.51404069706971  1.26477513861386  0.82203345434543
 6  10.97783711071107 -0.29196682368237  0.02684939193919
 6 -11.31315767976798 -0.27200820772077 -0.25105278127813
 6  13.23689418041804 -0.45092357745775 -0.96543929792979
 6 -12.72292473047305  1.94682768986899 -0.18634798779878
 6  11.89984585358536  0.10505088798880 -0.95505814881488
 6 -11.47139773477348  1.03877050615062 -0.59169116511651
 6  10.83805484648465 -1.07105254625463  2.48137152115212
 6  10.42494311431143 -2.69156692469247  0.59664305430543
 6 -12.02814462046205 -1.26354604650465  1.95407153815382
 6 -12.64137063206321 -2.40451167306731 -0.17882662066207
 6  9.66818205920592  0.37482643564356  0.23718767876788
 6 -10.04815038703870 -1.07310005190519 -0.40028131313131
 6  11.51283716371637  1.16968214211421 -1.96848883888389
 6 -10.44419270727073  1.78378785588559 -1.40290718071807
 6  9.37624152915292  1.61802804580458  0.13776041604160
 6 -8.69577097409741 -0.61681363026303 -0.30251535353535
 6  8.09369847484748  2.20132611561156  0.27603837883788
 6 -7.53996203020302 -1.27140546844684 -0.49441561056106
 6  8.03066485048505  3.64012286728673  0.64426861086109
 6 -7.58114641164116 -2.68175775267527 -0.75235392039204
 6  6.97981795279528  1.49436837783778 -0.01069355435544
 6 -6.35536823382338 -0.63471173307331 -0.35281420642064
 6  5.63671438543854  2.09839407740774  0.12920988998900
 6 -5.07201574757476 -1.16835390829083 -0.54117099509951
 6  4.41911069706971  1.30652684668467 -0.10023210821082
 6 -3.99337063406341 -0.26636886088609 -0.39200201520152
 6  3.13105059605961  1.74420881188119  0.09831394739474
 6 -2.62703815981598 -0.72827290629063 -0.44268262326233
 6  2.81507307430743  3.22099979197920  0.51784944294429
 6 -2.46042481048105 -2.22864635663566 -0.74769599559956
 6  2.06089517851785  0.81484354835484 -0.12078275827583
 6 -1.55350731073107  0.14984287328733 -0.25292924392439
 6  0.73445027402740  0.98143095709571 -0.16357502950295
 6 -0.16317618761876 -0.00729832983298 -0.32137310731073
 1  13.51895047504750 -1.31408481858186  1.85215090409041
 1  12.65692919191919 -2.85676889098910  1.43332101610161
 1 -14.40141311431143 -0.68728617051705  1.10986190719072
 1 -14.37547104210421 -0.05965383728373 -0.32978483448345
 1  12.66911791879188 -2.44894420152015 -0.82580313831383
 1 -12.98279871187119  1.22900688278828  1.76419415341534
 1  14.13102768976898  0.00223280118012 -0.68858403940394
 1  13.39171472847285 -0.64996035313531 -1.96895962696270
 1 -13.17284249324933  2.38072313241324 -1.12525526852685
 1 -12.45048102110211  2.80495551565157  0.31539257525753
 1  11.26015870487049 -1.91551998099810  2.95287998399840
 1  9.70433876087609 -0.99638943794379  2.53965072007201
 1  11.06469021102110  0.12999413231323  2.83996738273827
 1  10.57651391439144 -2.80951572557256 -0.45884256725673
 1  10.67997700060006 -3.66953559655966  1.11971141114111
 1  9.25375269226923 -2.57920922892289  0.95381210221022
 1 -11.69552123812381 -0.37934042794279  2.32230252725273
 1 -11.01510434943494 -1.71792433633363  1.78302208620862
 1 -12.78542943594359 -1.77020444034403  2.65707628762876
 1 -13.61007145614561 -2.82660135603560  0.32992112311231
 1 -11.94844007900790 -3.15287187608761 -0.09972707470747
 1 -12.70613847284728 -2.14019321122112 -1.31559430143014
 1  8.89826172917292 -0.22594700570057  0.38135525652565
 1 -10.08443320832083 -2.15840290419042 -0.60383418541854
 1  10.45328662066207  1.46774144414441 -2.14126618561856
 1  11.90685651465147  1.98210915381538 -1.42019762776278
 1  11.98398006800680  1.05412626752675 -3.03387607660766
 1 -11.16763116411641  2.45313087718772 -1.96787750875088
 1 -9.77989396739674  1.18312233133313 -2.26090205720572
 1 -9.93202738673867  2.47411006510651 -0.57219037503750
 1  14.64266339433943 -3.16570189728973 -0.31874359435944
 1 -15.09836452945294  1.36339363946395  1.82829392539254
 1  10.15375129412941  2.20899780778078 -0.01388456345635
 1 -8.61791652765277  0.30354495559556  0.11934130813081
 1  8.94638232523252  4.06870025202520  1.07382322332233
 1  7.78314470147015  4.18220308130813 -0.25407175317532
 1  7.43596285628563  3.99701076907691  1.71210804880488
 1 -8.10746354035403 -3.25358001590159  0.06704141514151
 1 -8.13757812881288 -2.83771377427743 -1.85792768176818
 1 -6.57794356635664 -3.10015455535554 -1.21016645064506
 1  7.08110396539654  0.45602881788179 -0.45156303130313
 1 -6.16664364036404  0.38464595969597 -0.23348847384739
 1  5.50473817881788  3.24506017801780  0.46539304830483
 1 -4.87176764776478 -2.02625030303030 -0.88305445544554
 1  4.65198839183918  0.28009275527553 -0.33899596759676
 1 -4.19302070607061  0.66867623962396  0.01870315131513
 1  2.91537716571657  3.31798368836884  1.64997823882388
 1  1.68103636463646  3.60678166016602  0.28059266126613
 1  3.44439981998200  3.89699632463246 -0.08323138113811
 1 -2.83145426042604 -3.01246353835384 -0.10642830783078
 1 -2.79224793779378 -2.50906796879688 -1.75812455445545
 1 -1.29446983198320 -2.35477302730273 -0.81331987498750
 1  2.35141650465047 -0.25986926792679 -0.31749796179618
 1 -2.05043966696670  1.11591983598360 -0.06310021702170
 1  0.34325462446245  1.74504993199320  0.37218922892289
 1  0.17183896889689 -1.03747391139114 -0.53165483948395

