%nproc=4
%Mem=2GB
# td=(NStates=1) CAM-B3LYP/6-31G(d,p) 

TD

0 1
 8  14.53127865286529 -2.39049198229823 -0.06328325132513
 8 -14.65327039103910  1.88582388748875  1.03493302430243
 6  11.09109145514551 -1.41684423652365  1.07850401140114
 6 -12.28367353135313 -1.02587420532053  0.83060670467047
 6  12.55296886288629 -1.85620491659166  1.25201009300930
 6 -13.57821454045405 -0.26700472037204  0.76094890689069
 6  13.25498353735374 -1.91644396649665 -0.13470701570157
 6 -13.46304559755976  1.18091675277528  1.11468271927193
 6  10.94842416941694 -0.28486611361136  0.08482518951895
 6 -11.15468183218322 -0.27277828472847  0.00062238623862
 6  13.24225471647165 -0.48032651775178 -0.73454620862086
 6 -12.64957739573957  1.74354736183618 -0.05377473047305
 6  11.94520038903890  0.05669605250525 -0.77429007200720
 6 -11.46335693069307  0.94455108420842 -0.38827082308231
 6  10.51866290729073 -1.15948138913891  2.42931631563156
 6  10.28704932493249 -2.59761752975298  0.41102449244924
 6 -11.84767657365737 -1.37425711761176  2.20431656265627
 6 -12.58469496449645 -2.38909013091309  0.05436669866987
 6  9.64450969196920  0.36638559155916  0.15891985198520
 6 -10.01378695069507 -0.97167990989099 -0.13319460446045
 6  11.81319719971997  1.19872504640464 -1.74377636763676
 6 -10.46606489448945  1.65561503860386 -1.31684857485749
 6  9.39255316031603  1.61945818881888  0.08706534653465
 6 -8.76334773177318 -0.49204115301530 -0.35787088908891
 6  8.05433453845384  2.30549653265326  0.22897367236724
 6 -7.56073410741074 -1.18249657755776 -0.71687785678568
 6  8.05442722672267  3.78866772177218  0.62783696769677
 6 -7.67978627562756 -2.66120569746975 -1.04534321932193
 6  6.86371634263426  1.58973791479148  0.01471898689869
 6 -6.37303000000000 -0.53257151905191 -0.50559948494849
 6  5.53757447144714  2.05151938993899  0.20930789978998
 6 -5.08909745574557 -1.00967804070407 -0.76924380238024
 6  4.38764755075508  1.29984617861786 -0.19970205520552
 6 -3.93832512951295 -0.37854007800780 -0.63861667666767
 6  3.10136762776278  1.81235562656266 -0.07978386238624
 6 -2.54773022902290 -0.80259033803380 -0.90004835983598
 6  2.85335690269027  3.20489818181818  0.41324898289829
 6 -2.30608937693769 -2.17650114211421 -1.25387661366137
 6  2.10606969596960  0.88494055805581 -0.44724540454045
 6 -1.60076203620362  0.18847673667367 -0.58744269526953
 6  0.73227005600560  1.03619643364336 -0.41186985898590
 6 -0.22836270627063  0.06338873887389 -0.54361533153315
 1  13.11085966596660 -1.22729613971397  1.77590327932793
 1  12.60728422742274 -2.83750696479648  1.73573125712571
 1 -14.17639061206121 -0.73297073897390  1.53773469446945
 1 -14.00517401240124 -0.48125599749975 -0.33526538253825
 1  12.57218822582258 -2.52253156025602 -0.75237579557956
 1 -13.01460189218922  1.62581656375638  2.09718745274527
 1  14.02435702270227 -0.13874129622962 -0.28829401040104
 1  13.77004256125613 -0.48870422752275 -1.72969570057006
 1 -13.40412562156216  2.00983604370437 -0.80735347834783
 1 -12.46351232423242  2.62036705680568  0.34409544554455
 1  10.65919860886089 -1.98972740174017  3.25975067106711
 1  9.54028235523552 -0.68134793379338  2.47157391239124
 1  11.24828857085708 -0.32966183328333  2.84185757175718
 1  10.52855911891189 -2.85609038303830 -0.81595827882788
 1  10.47010601350135 -3.60207885088509  0.88512795279528
 1  9.23579089608961 -2.45515682368237  0.66255297629763
 1 -12.00075176117612 -0.51134362826283  2.71553185018502
 1 -10.98358119711971 -1.87786032993299  2.28050183418342
 1 -12.44484537753775 -1.86667408730873  2.68107868786879
 1 -13.50379082808281 -2.66354505040504  0.62744087508751
 1 -11.79821505650565 -3.25477206610661  0.20522342034203
 1 -12.87848570757076 -2.34422361426143 -0.92968571057106
 1  8.78585048804881 -0.20171458245825  0.28268538953895
 1 -10.22107687268727 -2.05138220212021 -0.11568537053705
 1  10.78835012701270  1.22794746474647 -1.99012107110711
 1  12.27510333933393  2.13619456235624 -0.98994460246025
 1  12.48684035403540  1.19560041494149 -2.68193088208821
 1 -11.29776417741774  2.21780734483448 -2.05196591759176
 1 -9.86674265226523  0.99727374647465 -1.86082204920492
 1 -9.79279346334633  2.31432408650865 -0.83913706970697
 1  14.57374650265027 -3.24106943404340  0.31365964596460
 1 -15.35907060006000  1.52090939103910  1.67984908090809
 1  10.11290720972097  2.24295120312031  0.29002582758276
 1 -8.35105984198420  0.53087768886889 -0.28460908690869
 1  9.06790447744774  4.27073045504550  0.71507734873487
 1  7.62400878787879  4.26286114711471 -0.38173451945195
 1  7.28426768676868  3.81229229722972  1.39616645464546
 1 -8.04732752675268 -3.07941259915992 -0.19531482048205
 1 -8.60046441744175 -2.65340534343434 -1.97337922692269
 1 -6.82995876787679 -3.02262680258026 -1.59597503150315
 1  6.91104695969597  0.51694490949095 -0.13101097609761
 1 -6.47516449244925  0.55070256535654 -0.12222734773477
 1  5.36863456845685  3.08014368636864  0.53151966096610
 1 -4.90236070707071 -1.96109378737874 -1.14334048404840
 1  4.52069526252625  0.09733447944794 -0.35318738673867
 1 -3.92802420642064  0.83481285328533 -0.40905962496250
 1  3.01534716271627  3.46188807880788  1.41704494549455
 1  1.58162642364236  3.38857983998400  0.15899050105011
 1  3.50908628862886  3.93075970097010 -0.10031308930893
 1 -2.88945006000600 -3.05473776577658 -0.90322798779878
 1 -2.70281899489949 -2.30368743074307 -2.28964770677068
 1 -1.20619100410041 -2.58007555755576 -1.28608715171517
 1  2.49898126112611 -0.06688996999700 -0.80609682168217
 1 -2.05681030403040  1.18300654465447  0.03871996499650
 1  0.35598589758976  1.97117254425443 -0.09259724972497
 1  0.24918670367037 -0.90281044504450 -1.11074274827483

