%nproc=4
%Mem=2GB
# td=(NStates=1) CAM-B3LYP/6-31G(d,p) 

TD

0 1
 8  14.62765829082908 -2.23891682478248 -0.06865378837884
 8 -14.64455951995199  2.01948725382538  1.13822335333533
 6  11.05239758575858 -1.41751430353035  0.96966312731273
 6 -12.34223938793879 -1.03824544244424  0.67573121712171
 6  12.57984155015501 -1.76849614571457  1.14273916591659
 6 -13.66773349234924 -0.22780079998000  0.72193500550055
 6  13.23330136913691 -1.83405572767277 -0.20357390239024
 6 -13.46980627362736  1.24217287838784  1.11196244724472
 6  10.86642596959696 -0.28316594359436  0.12693940094009
 6 -11.31097746174617 -0.26422742964296  0.04022634663466
 6  13.16422691369137 -0.51761024612461 -0.86648940294029
 6 -12.62110454845484  1.81286429352935 -0.10063941694169
 6  11.81450731973197  0.07358774167417 -0.79145178817882
 6 -11.42639323432343  1.06844347344734 -0.49246124212421
 6  10.45047608860886 -1.30319576057606  2.42366575057506
 6  10.42039265926593 -2.67696546454645  0.37622101210121
 6 -11.81358316431643 -1.30067975987599  2.15574170517052
 6 -12.63626012101210 -2.40368159005901 -0.01056979497950
 6  9.57430267126713  0.39169812281228  0.19820378037804
 6 -10.08735430743074 -1.03812655455546 -0.29566085108511
 6  11.67291317131713  1.23833900780078 -1.77798978897890
 6 -10.55525381338134  1.85105458255826 -1.41352824282428
 6  9.37565147014702  1.69949619261926  0.07702434243424
 6 -8.74556595359536 -0.51373332223222 -0.39013411541154
 6  8.06429553455346  2.32541852485249  0.20309108410841
 6 -7.49583761776178 -1.22858118601860 -0.76761293029303
 6  8.03371515551555  3.72112096709671  0.64972915691569
 6 -7.58954725172517 -2.77565714261426 -0.92525121012101
 6  6.90066003700370  1.61433037403740 -0.01322380738074
 6 -6.33771646864686 -0.56448471037104 -0.72738166316632
 6  5.59879059305931  2.13242748074807  0.16690365936594
 6 -5.00554910091009 -1.17813488638864 -0.76275315331533
 6  4.41547033303330  1.28368456245625 -0.08264034903490
 6 -3.87924922192219 -0.39203142714271 -0.60169298429843
 6  3.06380387138714  1.75000939193919  0.07922203820382
 6 -2.52940839683968 -0.82647272627263 -0.67072542754275
 6  2.86866843384338  3.13912160416042  0.40367802580258
 6 -2.18465723372337 -2.27645113711371 -0.95906713271327
 6  2.10166925592559  0.83724578857886 -0.22588326832683
 6 -1.52713467346735  0.12690057905791 -0.53433738473847
 6  0.75863269226923  0.96421923592359 -0.26399507150715
 6 -0.13023289328933 -0.10961856185619 -0.52706367636764
 1  12.94980356035604 -0.86189960006001  1.67288297729773
 1  12.83835733473347 -2.72353556765677  1.69352703670367
 1 -14.38197117011701 -0.63447088898890  1.38929985098510
 1 -14.19559305430543 -0.14451232313231 -0.17701955795580
 1  12.52822382938294 -2.58761806890689 -0.92839339733973
 1 -12.84491492349235  1.47259124122412  1.92969070307031
 1  14.21576616361636  0.04108668656866 -0.75371055205521
 1  13.32048760576058 -0.91115647274728 -1.88632136313631
 1 -13.44917012601260  1.93076813691369 -0.89140188318832
 1 -12.34537051005100  2.88543356345635 -0.04315327932793
 1  10.77012970197020 -1.86447487648765  3.20945564156416
 1  9.23120144714471 -1.16516631563156  2.52991974697470
 1  10.72109585158516 -0.29209807690769  2.87314070007001
 1  10.91218748174818 -2.84489926392639 -0.59933661666167
 1  10.59617862076208 -3.49847849084909  1.14067350735074
 1  9.44106142314232 -2.55014632263226 -0.07408068706871
 1 -11.73580526652665 -0.58363085698570  2.72264256125613
 1 -10.94063690269027 -1.90848339223922  1.83448723272327
 1 -12.42421331433143 -2.17028444834483  2.55192577257726
 1 -13.52980342934293 -3.04738343424342  0.43250138113811
 1 -11.88675391039104 -3.19521611051105  0.12543544154415
 1 -12.94309216821682 -2.25507469936994 -0.94783752575258
 1  8.63775567856786 -0.28805321632163  0.15559268026803
 1 -10.41163592859286 -1.99829689358936 -0.77050085208521
 1  10.74853614561456  1.64220889088909 -1.94199625862586
 1  12.20873670267027  2.01769271217122 -1.50940654865487
 1  12.24141581158116  0.76332718761876 -2.70587327632763
 1 -11.20629503050305  2.48508407250725 -2.17646836783678
 1 -9.84908088608861  1.15179919901990 -1.99381534853485
 1 -9.94371855585558  2.57702035613561 -0.89064222022202
 1  14.69728885688569 -3.06050137723772  0.25305358535854
 1 -15.41072576557656  1.74590189028903  1.76708780478048
 1  9.95766168516852  2.72096900490049  0.31347817281728
 1 -8.52957769376938  0.53171777287729 -0.05055568156816
 1  9.02438012501250  4.08383176517652  0.71688752975297
 1  7.47562394939494  4.49338419941994 -0.06109245524552
 1  7.61209046904690  4.02907397539754  1.50949778777878
 1 -8.27063985798580 -3.07261191909191  0.08078278927893
 1 -8.18628299929993 -3.18834883778378 -1.74110599959996
 1 -6.74264003600360 -3.53187772767277 -1.12475790979098
 1  6.85379123412341  0.47843105810581 -0.30536841184118
 1 -6.57127410341034  0.53636113121312 -0.35501062606261
 1  5.53297100210021  3.15097076907691  0.33715022402240
 1 -4.80303077407741 -2.15661333933393 -1.03927007700770
 1  4.46499969296930  0.29047379337934 -0.32173424142414
 1 -3.94117552155216  0.62872224422442 -0.30534925392539
 1  2.68529415741574  3.18936082608261  1.64713795479548
 1  1.73372163316332  3.65743672567257 -0.05900129812981
 1  3.89508488848885  3.84429105410541 -0.07734079207921
 1 -2.56872798779878 -2.82800509250925 -0.16637430243024
 1 -2.56039475247525 -2.55915297729773 -1.91889063106311
 1 -1.07357774277428 -2.57044459445945 -0.88117666066607
 1  2.57115847884788 -0.03245652665266 -0.70998721072107
 1 -1.78625324832483  1.07463570757076 -0.43923783078308
 1  0.27582788178818  1.91572699969997 -0.01629961996200
 1  0.22161394639464 -0.96134629862986 -0.91212288628863

