%nproc=4
%Mem=2GB
# td=(NStates=1) CAM-B3LYP/6-31G(d,p) 

TD

0 1
 8  14.56680220522052 -2.42737567066707 -0.28893581658166
 8 -14.78782384638464  1.76207151225122  0.82871240224022
 6  11.09575192119212 -1.54571712381238  0.93374953595360
 6 -12.46645180918092 -1.11781339923992  0.63249689368937
 6  12.59872343834383 -1.95487478357836  1.06844173617362
 6 -13.64491121012101 -0.32591061096110  0.38944175617562
 6  13.25641368036804 -1.99740206230623 -0.33233677867787
 6 -13.48133742674267  1.10906956805681  0.84937618861886
 6  10.88342766976698 -0.32137976497650  0.05526223322332
 6 -11.24210057405741 -0.27147815471547 -0.05334301030103
 6  13.17321781278128 -0.61651013611361 -1.00408316231623
 6 -12.69439187718772  1.81225423252325 -0.20060941394139
 6  11.80046591559156  0.02351273417342 -0.84192683568357
 6 -11.42993358835884  0.96105273437344 -0.53435543154315
 6  10.71008204920492 -1.26572201320132  2.38271165516552
 6  10.21974259425943 -2.71460922892289  0.35429881988199
 6 -11.85814762076208 -1.42130182208221  2.06955308630863
 6 -12.49475597059706 -2.49137035893589 -0.21567030503050
 6  9.55494073507351  0.34288324132413  0.29759371937194
 6 -10.05663123512351 -1.04299704160416 -0.41632291729173
 6  11.57794367436744  1.22782795669567 -1.80403239323932
 6 -10.58878716671667  1.68970844794479 -1.41166805680568
 6  9.39921382638264  1.66117236023602  0.18573521352135
 6 -8.72846424342434 -0.57111906080608 -0.21977707970797
 6  8.09527863286329  2.36575255825583  0.19106988198820
 6 -7.52591062506251 -1.20793912181218 -0.41020718971897
 6  7.94779656365637  3.84300315531553  0.45016920092009
 6 -7.57941623862386 -2.72030160706071 -0.77474615961596
 6  6.86773674467447  1.56808574957496  0.08783629862986
 6 -6.32993569056906 -0.46824508640864 -0.35994491949195
 6  5.67709842384238  2.12609684768477  0.19167613661366
 6 -4.97281582758276 -0.99501657455746 -0.49569644764476
 6  4.49377816381638  1.40177637163716 -0.16503858885889
 6 -3.92494379137914 -0.19900212421242 -0.31113392839284
 6  3.14161165216522  1.84088847984798  0.04962907890789
 6 -2.52363781978198 -0.59944002300230 -0.50822917791779
 6  2.90596216321632  3.24669236123612  0.34447210521052
 6 -2.29779854785479 -2.04579807180718 -0.88320954695470
 6  2.17355644464446  0.87865992999300 -0.15359603960396
 6 -1.54296625662566  0.33881177017702 -0.21387533853385
 6  0.79986681568157  1.04408722272227 -0.08860753275328
 6 -0.14698456845685  0.10448284828483 -0.19996096609661
 1  13.26829540954095 -1.38740215031503  1.67296298529853
 1  12.61882538153816 -2.86784999909991  1.49970765476548
 1 -14.50330330333033 -0.53392083398340  1.11671259225923
 1 -13.93608710371037 -0.35443331523152 -0.69432128812881
 1  12.62944395139514 -2.70357966506651 -0.97940849884988
 1 -13.05068550055005  1.20424440654065  1.92710044404440
 1  14.01602618961896 -0.12419984208421 -0.27298247924792
 1  13.59415497249725 -0.61974733183318 -2.02107483848385
 1 -13.32727793679368  1.80762582268227 -1.09815255825583
 1 -12.25826179917992  2.69627464756476  0.39525056105611
 1  10.96915960496050 -2.04757318631863  3.10579527552755
 1  9.61644997199720 -0.98129792879288  2.40278703370337
 1  11.20587432943294 -0.34853372047205  2.76656004200420
 1  10.77777404040404 -2.98236301030103 -0.61174785778578
 1  10.06966596949695 -3.48146678967897  0.99127856785679
 1  9.18029534653465 -2.33228453645365  0.15539226022602
 1 -11.75668735473547 -0.43895638953895  2.49875017201720
 1 -10.87924076307631 -1.94507705160516  2.20530431443144
 1 -12.60989188218822 -2.21573899379938  2.59597017701770
 1 -13.29195964496450 -2.96803549944995 -0.03298516751675
 1 -11.72558779377938 -3.20410699959996  0.21488438643864
 1 -12.45331319031903 -2.14866405830583 -1.30530327232723
 1  8.74445634863486 -0.19000341134113  0.63692081308131
 1 -10.11178594359436 -2.10709777367737 -0.42724652665267
 1  10.44798609060906  1.18181285128513 -1.91433349234924
 1  11.78300412941294  2.43138408130813 -1.49195480348035
 1  11.92263393339334  0.97986884178418 -2.79533222222222
 1 -11.10269467046705  2.14022958705871 -2.20264098509851
 1 -9.58195417341734  1.18643266236624 -1.81175714271427
 1 -10.12754693869387  2.54533718781878 -0.73726688268827
 1  14.42040116811681 -3.31587691479148  0.09818809880988
 1 -15.36263095609561  1.48836613671367  1.45278637463746
 1  10.15281120012001  2.50117702570257  0.04737156215622
 1 -8.64871960796080  0.40295489658966  0.21612098609861
 1  8.95303299029903  4.25357873987399  0.69962580358036
 1  7.63986037303730  4.54309917091709 -0.44780112611261
 1  7.28051731173117  4.18939000700070  1.54377121512151
 1 -7.97772056605661 -3.22401705960596  0.21401611261126
 1 -8.46458082908291 -2.64095409830983 -1.57229911891189
 1 -6.59449522152215 -3.07867240714071 -1.41534696869687
 1  6.82111796679668  0.58725194019402 -0.16397427242724
 1 -6.41092806880688  0.84543203830383 -0.54965009000900
 1  5.59086679167917  3.11005667766777  0.65963247224723
 1 -4.84429490049005 -2.23421109910991 -0.54733088308831
 1  4.72949614261426  0.58071281728173 -0.71188325632563
 1 -4.11691309530953  0.96748612061206 -0.23675239423942
 1  3.51539716771677  3.63804569456946  1.15482872387239
 1  1.91610987198720  3.44472545454546  0.57930253225323
 1  2.97196257625763  3.87316394139414 -0.73365642364236
 1 -2.55102621762176 -2.75407769976998 -0.10496816181618
 1 -2.69325803880388 -2.10918798079808 -1.84798354035404
 1 -1.17692807780778 -2.24530208020802 -0.89775831883188
 1  2.62350371337134 -0.23435671667167 -0.39464567656766
 1 -1.68804342734273  1.35381362536254 -0.04928883588359
 1  0.56728702770277  1.92289771677168 -0.15194318431843
 1  0.28087987298730 -0.73023318731873 -0.82934460846085

