%nproc=4
%Mem=2GB
# td=(NStates=1) CAM-B3LYP/6-31G(d,p) 

TD

0 1
 8  14.61031655665567 -2.39743267636764 -0.28972589558956
 8 -14.67488255225522  1.92407771287129  1.04200373137314
 6  11.13537588358836 -1.53012556465647  0.98068422942294
 6 -12.35564072807281 -1.04690630853085  0.64284792879288
 6  12.65862942894289 -1.83551284738474  1.12342723472347
 6 -13.57064378337834 -0.24935295519552  0.73009582158216
 6  13.18454649364937 -1.88645096719672 -0.29846339133913
 6 -13.46391568456846  1.25633429452945  0.91624287528753
 6  10.96488581558156 -0.28772639963996  0.10978768576858
 6 -11.30393675767577 -0.29620062696270 -0.14787246324632
 6  13.19330982198220 -0.53354183928393 -0.99276203020302
 6 -12.62680511851185  1.78440144724472 -0.21165051805181
 6  11.85060092909291  0.12685306820682 -0.94587723072307
 6 -11.47263785878588  0.98094472357236 -0.54172616861686
 6  10.67308834983498 -1.30185562656266  2.48235161916192
 6  10.33159377937794 -2.76100386838684  0.46444983498350
 6 -11.84746655265526 -1.36355604750475  2.00032616361636
 6 -12.60721721672167 -2.39379060096010 -0.03826256425643
 6  9.66462170317032  0.40597955095510  0.15027898789879
 6 -10.05243081508151 -0.97943068496850 -0.36733801880188
 6  11.63926980698070  1.26656183008301 -1.84597658765877
 6 -10.47822611061106  1.75664514161416 -1.58519540954095
 6  9.34879878487849  1.71628787178718  0.19568620862086
 6 -8.80691208820882 -0.51710365926593 -0.36893199519952
 6  8.03680278527853  2.30765674867487  0.25991676667667
 6 -7.57103513751375 -1.32737106500650 -0.52980914991499
 6  8.01119290329033  3.80942979797980  0.48515269926993
 6 -7.64523282028203 -2.79385896279628 -0.90763944894489
 6  6.93407337833783  1.58032697369737 -0.02621510651065
 6 -6.38187088408841 -0.63385164706471 -0.42301122612261
 6  5.59696041004100  2.10262450045005  0.19081605060506
 6 -5.06379492549255 -1.16766383928393 -0.64834171217122
 6  4.51756054205421  1.38183437743774 -0.06353843884388
 6 -3.93193449044904 -0.43680590459046 -0.41619443444344
 6  3.16886437743774  1.80250464146415  0.11111522752275
 6 -2.54417987398740 -0.70239031803180 -0.53044139913991
 6  2.90884245124512  3.26621431343134  0.63523118111811
 6 -2.29896866486649 -2.04747823982398 -0.99133035903590
 6  2.07302639163916  0.95950801480148 -0.22746342634263
 6 -1.61771373137314  0.26859474847485 -0.40361431243124
 6  0.67113394239424  1.09802261626163 -0.14148282028203
 6 -0.20122999299930  0.03162556255626 -0.39915088508851
 1  13.31167974797480 -1.12880629072907  1.84257994699470
 1  12.98547204620462 -2.79775298939894  1.74391207520752
 1 -14.31397437043704 -0.64642208410841  1.38939986098610
 1 -14.14710820582058 -0.23440131203120 -0.18248010401040
 1  12.82397340434044 -2.82522182928293 -0.86184674267427
 1 -12.91493192519252  1.43888787088709  1.90301803580358
 1  13.99187377437744  0.00000257815782 -0.64473965496550
 1  13.35818137513751 -0.87229258635864 -2.15876860786079
 1 -13.43868907790779  1.91475653575358 -1.10077282028203
 1 -12.24539051205121  2.79555457555756  0.03534457045705
 1  10.79202189118912 -2.01160958995900  3.20154485048505
 1  9.50676900390039 -1.14429422842284  2.54398115311531
 1  11.19335307730773 -0.37061592869287  2.73814720072007
 1  10.56953321632163 -3.04817959195920 -0.69620630363036
 1  10.49013801670167 -3.59725836883688  1.13487292729273
 1  9.22241955895590 -2.42324363236324  0.47505422642264
 1 -11.62771445744574 -0.57859035293529  2.73968426542654
 1 -11.02098493749375 -1.70574311821182  1.99787357135713
 1 -12.63562445544554 -1.96990441034103  2.52341292129213
 1 -13.43685413441344 -2.91173986988699  0.64940307130713
 1 -11.90531576657666 -3.20410699959996 -0.01862896489649
 1 -13.00397825682568 -2.26750594249425 -0.96529927192719
 1  8.80163206620662 -0.20078448944895  0.55293241424142
 1 -10.27060182518252 -1.96986405030503 -0.50987478947895
 1  10.41417270927093  1.42463713371337 -2.22276433543354
 1  11.95462129112911  2.13374431733173 -1.41675728372837
 1  12.21830350035003  1.03225408030803 -2.67507019601960
 1 -11.09036343734373  2.25343090719072 -2.36749747074707
 1 -9.89524550255025  0.98533255235523 -2.27934390139014
 1 -9.66650083408341  2.16286894099410 -1.01551470747075
 1  14.69714884288429 -3.00471579867987  0.26279455945595
 1 -15.20996568956896  1.50137743784378  1.63997509350935
 1  10.18306422542254  2.52487939593959  0.08954577957796
 1 -8.66177091309131  0.51029563066307 -0.31789241524152
 1  8.94775246224622  4.18088147014701  0.25674151515152
 1  7.19792617961796  4.12641750275028 -0.14318066406641
 1  7.84296355635564  4.06963803180318  1.34630146814681
 1 -8.23303609760976 -3.43560821872187 -0.21052634163416
 1 -8.06741111211121 -2.80875087798780 -2.06131802080208
 1 -6.76137190919092 -3.23956849674967 -1.04115954995500
 1  6.96212206720672  0.55931914691469 -0.35428330333033
 1 -6.43535051105110  0.40869836493649 -0.15145027002700
 1  5.30696840184018  3.07784345634564  0.49870637963796
 1 -4.96946741774177 -2.38162584058406 -0.73997014701470
 1  4.66737993099310  0.29617436343634  0.00424835683568
 1 -4.19755115911591  0.49039841184118 -0.15117383638364
 1  3.06101172917292  3.61140303030303  1.66777001800180
 1  1.77486574757476  3.44235521752175  0.56533113511351
 1  3.51286666666667  3.79347597259726 -0.00371342934293
 1 -1.88894000900090 -2.77122941494149  0.07700003500350
 1 -3.61159987298730 -2.67713477547755 -1.46729547154715
 1 -1.24022440744074 -2.04947249724972 -1.62824136713671
 1  2.31397276027603 -0.02186546754675 -0.23947015901590
 1 -1.93084770777078  1.27773601760176 -0.20467437443744
 1  0.17821812081208  2.03865929292929  0.12119412941294
 1  0.35764754975498 -0.96250641464146 -0.61702337633763

