%nproc=4
%Mem=2GB
# td=(NStates=1) CAM-B3LYP/6-31G(d,p) 

TD

0 1
 8  14.60223574857486 -2.38803173627363 -0.48156507950795
 8 -14.73476854085408  1.84967027212721  0.97564709570957
 6  11.13182552855285 -1.46596914901490  1.04390055105511
 6 -12.19110427442744 -1.04489610751075  0.61277492149215
 6  12.64992855885589 -1.85805510161016  0.94829972197220
 6 -13.67083380238024 -0.33327134703470  0.66210902290229
 6  13.20956899589959 -2.05837815991599 -0.44783832883288
 6 -13.52352164516452  1.13972263336334  0.93239449044904
 6  10.91412073907391 -0.26580420742074  0.14848155515552
 6 -11.30207657165717 -0.32103311021102 -0.23753142914291
 6  13.04540503150315 -0.76769525462546 -1.15475822982298
 6 -12.80154259225922  1.65658866596660 -0.36461581458146
 6  11.79424529352935  0.00064044694469 -0.92656529952995
 6 -11.56522711771177  1.01638826792679 -0.68971096709671
 6  10.86155719671967 -1.06632207320732  2.47340072407241
 6  10.13977459745975 -2.63081084908491  0.66143953395340
 6 -11.76717852385238 -1.30903059495950  2.00361649264927
 6 -12.49052554755476 -2.43900512241224 -0.14142288028803
 6  9.58822406340634  0.40944989798980  0.25978993899390
 6 -9.93394896689669 -0.99064180608061 -0.40269155415542
 6  11.47386326632663  1.04602977687769 -2.00333232323232
 6 -10.57964625262526  1.85545502260226 -1.53392028202820
 6  9.30400430543054  1.90029627262726  0.04618125812581
 6 -8.73651504850485 -0.38183013191319 -0.26103120512051
 6  8.08347745274527  2.29392537553755  0.29431020602060
 6 -7.50413844784478 -1.14777310521052 -0.54646081508151
 6  8.01946373037304  3.84153300830083  0.46692087608761
 6 -7.55800409740974 -2.74475405230523 -0.70796948194819
 6  6.88105807680768  1.66268520952095  0.20889840484048
 6 -6.27243994099410 -0.58445670757076 -0.38919784478448
 6  5.62704341834183  2.17368160616062  0.37429439843984
 6 -4.95176372237224 -1.04967204010401 -0.57465434343434
 6  4.49721850785078  1.31296749074907  0.08610652565257
 6 -3.89074037103710 -0.20277250125012 -0.55438825382538
 6  3.17911540254025  1.75244963596360  0.26740085608561
 6 -2.52268772477248 -0.77255733473347 -0.56824517951795
 6  2.70168173517352  3.18497618961896  0.67831548954895
 6 -2.23270203820382 -2.08873236523652 -0.98851007700770
 6  2.18362745174517  0.82664472847285 -0.13747442744274
 6 -1.57098905890589  0.17347523652365 -0.29803375437544
 6  0.79422625162516  0.95504831883188 -0.01172984498450
 6 -0.18200807080708 -0.02004960496050 -0.33126409640964
 1  13.18905748574858 -1.24157756785679  1.46937262626263
 1  12.64779827882788 -2.71065427952795  1.79208689268927
 1 -14.21908488148815 -0.89132657455746  1.40119104010401
 1 -13.93485698069807 -0.63455132703270 -0.37657951395140
 1  12.65180618761876 -2.92680198729873 -0.91394195219522
 1 -12.88635906790679  1.16856083818382  1.73590132413241
 1  14.06135072207221 -0.27334475657566 -0.91538671967197
 1  13.14542009900990 -0.99356471357136 -2.29241197219722
 1 -13.46211142014201  1.69627468756876 -1.21181392439244
 1 -12.62405837883788  2.83133815391539 -0.32653161716172
 1  10.98765145414541 -1.88228665766577  3.17703239923992
 1  9.72163049004901 -0.73231303030303  2.45881263626363
 1  11.43095683768377 -0.25524439153915  2.86175956195620
 1  10.37509377237724 -2.89429420342034 -0.41135781878188
 1  10.08268727162716 -3.48878752175218  1.38316775677568
 1  9.13940125712571 -2.09308061606161  0.59668638963896
 1 -11.92375406140614 -0.35005749964996  2.56257655465547
 1 -10.71322416141614 -1.70979352325232  2.16118990299030
 1 -12.40635152815281 -2.04912233213321  2.62374295429543
 1 -13.38136858585858 -2.78941763766377  0.14179231023102
 1 -11.73130836583658 -3.21721831073107 -0.12882998499850
 1 -12.52218007700770 -2.07395658755876 -1.26600934293429
 1  8.73555545854586 -0.18109252025203  0.53484060506051
 1 -10.00764552955295 -2.13980104400440 -0.73478728072807
 1  10.28047933993399  1.32192686268627 -2.01944400340034
 1  11.85193102210221  2.03957490039004 -1.64552016001600
 1  12.07433910391039  0.60486134103410 -2.94669735873587
 1 -11.10044444544454  2.40725628972897 -2.30174089508951
 1 -9.89684566256626  1.33186720582058 -2.12095806280628
 1 -9.95827001100110  2.38627128122812 -0.94652780878088
 1  14.69653878187819 -3.39565489258926 -0.23551527152715
 1 -15.31310600360036  1.53311061116112  1.57727882388239
 1  10.20356627562756  2.53672058005801  0.15622244724472
 1 -8.63719845584558  0.68944354545454  0.02043141714171
 1  9.07884557155715  4.11999538153815  0.78860470147015
 1  7.71073746074607  4.41742660366037 -0.46008235423542
 1  7.26250551055106  4.26111717971797  1.33705054305431
 1 -8.10656345034504 -3.17447210511051  0.13117782878288
 1 -8.16151052205221 -3.03998400130013 -1.55902779177918
 1 -6.62916868886889 -3.23892843274327 -0.83825925992599
 1  6.96755261026103  0.68716193119312 -0.24731260626063
 1 -6.33829080508051  0.43631112621262  0.07806268126813
 1  5.35148285328533  3.13759943194319  0.41502801180118
 1 -4.78198866986699 -2.04101177917792 -0.62507865786579
 1  4.46447964096410  0.45753049904990 -0.23166523452345
 1 -4.16802820682068  0.68752812481248 -0.32939165816582
 1  2.80473610161016  3.50544243424343  1.75867910891089
 1  1.73490175117512  3.37752873487349  0.52167676967697
 1  3.29350473047305  3.73808043304330 -0.03520657865787
 1 -2.66334744974497 -2.60081237323732 -0.26125379037904
 1 -2.80137885088509 -2.42512957495750 -1.93461220322032
 1 -1.12705309030903 -2.05832338233823 -1.28008655165517
 1  2.43021438443844 -0.07229051005101 -0.59472568456846
 1 -1.83056767976798  1.08984722872287  0.12607870087009
 1  0.47263756275628  2.00185561256126  0.25739774977498
 1  0.25161694669467 -0.96673683768377 -0.50457213121312

