%nproc=4
%Mem=2GB
# td=(NStates=1) CAM-B3LYP/6-31G(d,p) 

TD

0 1
 8  14.78836436143614 -2.20409334243424 -0.22057898089809
 8 -14.72151721572157  2.00740604570457  0.91400093109311
 6  11.15389773577358 -1.52831538363836  0.79118527952795
 6 -12.33250841484148 -0.94027564546455  0.68535217921792
 6  12.58534210021002 -1.94948424452445  0.87331222322232
 6 -13.57168388738874 -0.17181520142014  0.75371818381838
 6  13.38903694269427 -1.93563588568857 -0.39790333533353
 6 -13.46820611361136  1.30752941404140  0.90062131313131
 6  10.93355268226823 -0.17775540254025  0.01914862186219
 6 -11.36627299129913 -0.34215522242224 -0.29817749374937
 6  13.30901139213921 -0.51605009010901 -0.98227098109811
 6 -12.70662310031003  1.86562957005701 -0.31212056505651
 6  11.92620848984899  0.09711009390939 -0.78274091709171
 6 -11.50534112911291  0.92727935703570 -0.76727872387239
 6  10.58992003300330 -1.23938937993799  2.26182956695670
 6  10.31076169616962 -2.80263803180318  0.22987637763776
 6 -11.71386319231923 -1.13451314321432  2.06240237123712
 6 -12.62384887988799 -2.35924714661466  0.09526078807881
 6  9.62654789578958  0.43753270627063  0.11730569056906
 6 -10.06384195619562 -1.05215795769577 -0.56035732073207
 6  11.82501838183818  1.27629280318032 -1.85656764676468
 6 -10.64885317331733  1.56222569966997 -1.81484837483748
 6  9.39269317431743  1.75764200720072  0.23086972697270
 6 -8.85082647964797 -0.57457940684068 -0.53720882288229
 6  8.10992009700970  2.30770675367537  0.20133090809081
 6 -7.59408744274427 -1.32928125602560 -0.64271044004400
 6  7.98122990699070  3.81247010201020  0.57069125312531
 6 -7.64164246124612 -2.79106868376838 -1.01231991699170
 6  6.92289226022602  1.59006794779478  0.04989250425043
 6 -6.43871656865687 -0.63321158305831 -0.44358328332833
 6  5.59593030703070  2.11278551655166  0.21672864186419
 6 -5.04752329832983 -1.10683775667567 -0.42406928492849
 6  4.40117890389039  1.31729792379238  0.01173908890889
 6 -3.93703500050005 -0.30060228422842 -0.22142495749575
 6  3.12990048104811  1.72896728772877  0.14973908990899
 6 -2.53119857585759 -0.76729680868087 -0.24370272527253
 6  2.88321988898890  3.11723941594159  0.65301295929593
 6 -2.35891465946595 -2.23855734773477 -0.71246247224722
 6  2.02382147114711  0.80968303230323 -0.05029570957096
 6 -1.62488444844484  0.21541943094309 -0.11906585758576
 6  0.68744557355736  0.97578039203920  0.06296762476248
 6 -0.23079294929493 -0.01017861786179 -0.20222119211921
 1  13.15290387038704 -1.32330574067407  1.52102779177918
 1  12.78154165316532 -2.99569278337834  1.04771245524552
 1 -14.03893686668667 -0.51639908180818  1.52581350235023
 1 -14.20614410941094 -0.44212208410841 -0.01755361136114
 1  12.68980998799880 -2.53131243834383 -1.20307086508651
 1 -12.69672010401040  1.46090007210721  1.73259099309931
 1  14.13868845584558  0.17013959185919 -0.47666284728473
 1  13.83233879087909 -0.56679203630363 -1.89986271727173
 1 -13.50480568956896  1.70767582768277 -1.03868661166117
 1 -12.53615958895890  2.94180920102010 -0.10192915691569
 1  10.88511120012001 -2.00374880388039  2.73667836383638
 1  9.46098442544254 -1.11658145714571  2.19102585758576
 1  11.01455519751975 -0.21796066316632  2.75184857085709
 1  10.78917518051805 -3.28492326632663 -0.83606028902890
 1  10.16517552045205 -3.67047569056906  1.06058549854985
 1  9.27111442844284 -2.34638594659466  0.05557227822782
 1 -11.66837852385239 -0.19234172807281  2.57363766076608
 1 -10.85760859985999 -1.89617216111611  2.02971675567557
 1 -12.45724661766176 -1.65877329722972  2.62569314931493
 1 -13.27586803580358 -2.77021571747175  0.77778590959096
 1 -11.69542477747775 -2.89852644154415  0.27535043304330
 1 -12.87056491549155 -2.43895308720872 -0.97280002200220
 1  8.74031593459346 -0.17217162816282  0.38348546954696
 1 -10.32927769276928 -2.06793385728573 -0.88543234523452
 1  10.74284557655765  1.44751942194219 -2.19213127212721
 1  12.21055688468847  2.12164310721072 -1.38474408240824
 1  12.39939160916092  1.24309516441644 -2.86764945394539
 1 -11.34259866086609  2.18618418251825 -2.47311803280328
 1 -10.06176215421542  0.86774079317932 -2.38688465546555
 1 -9.98030221422142  2.46099875397540 -1.36498965496550
 1  14.68284741274127 -3.24211953905391 -0.07076879687969
 1 -15.36844153715371  1.53810111021102  1.52879397539754
 1  10.19880579957996  2.41508841684168  0.20227705270527
 1 -8.63104784078408  0.40141474257426 -0.24397502350235
 1  8.88608629562956  4.31985536753675  0.80407624862486
 1  7.20683707070707  4.51701656265627  0.05110876487649
 1  7.58468772877288  3.87288835683568  1.63310014801480
 1 -8.02116491049105 -3.55474013191319 -0.19759504850485
 1 -8.22911728272827 -2.81379138203820 -1.86937882688269
 1 -6.63284905690569 -3.21857639753975 -1.01724715871587
 1  6.97454330933093  0.61263447844784 -0.25457333233323
 1 -6.60595757175718  0.38929642474247 -0.36761188618862
 1  5.56699440444044  3.06127179917992  0.50792730173017
 1 -5.04992546354635 -2.11662934093409 -0.55769191919192
 1  4.66024921792179  0.39132387838784 -0.55278734673467
 1 -4.15212661666167  0.68479785178518 -0.03496221522152
 1  2.91653728172817  3.18471036103610  1.64284752575257
 1  1.84371263226323  3.46091707370737  0.39053365536554
 1  3.38829420942094  3.86420304530453  0.26625356735674
 1 -2.66483759875988 -2.92707499949995  0.22305464046405
 1 -2.84555326832683 -2.60653771577158 -1.77640638263826
 1 -1.30569095409541 -2.41192874287429 -0.52910145314531
 1  2.37808917191719 -0.21027430843084 -0.30099631163116
 1 -1.94720934393439  1.21843008700870  0.33300939393939
 1  0.23399369836984  1.90909633663366  0.22416442644264
 1  0.27991977697770 -0.93680384438444 -0.37769944394439

