%nproc=4
%Mem=2GB
# td=(NStates=1) CAM-B3LYP/6-31G(d,p) 

TD

0 1
 8  14.61573709870987 -2.37036997009701 -0.31433835683568
 8 -14.68384344834483  1.82865817091709  1.13988351935194
 6  11.15820816681668 -1.49236178827883  1.07500366136614
 6 -12.31679684368437 -1.07903952185219  0.61348499249925
 6  12.57307087308731 -1.86537583368337  1.06488138013801
 6 -13.63453017201720 -0.31107912781278  0.66095890789079
 6  13.17558559755976 -1.99550187228723 -0.34634817981798
 6 -13.45044433743374  1.12684134523452  0.97366861786179
 6  10.99981930893089 -0.22957058405841  0.15706241324132
 6 -11.28909527352735 -0.24003501040104 -0.17525520152015
 6  13.24298478947895 -0.60966945204520 -0.82332508650865
 6 -12.73689612761276  1.68227123422342 -0.05945529852985
 6  11.88176404540454  0.17019740264026 -0.74600724372437
 6 -11.45580617561756  1.04326095519552 -0.56451844784478
 6  10.62128316931693 -1.25344078507851  2.48639202320232
 6  10.29351997199720 -2.67164493249325  0.48110150015002
 6 -11.73286509250925 -1.39869956185619  2.13568969997000
 6 -12.62244873987399 -2.40234145604560 -0.02869160716072
 6  9.67379262026203  0.36105505850585  0.33955791579158
 6 -9.99465503750375 -0.99904264616462 -0.55671695669567
 6  11.69466534653465  1.30524569846985 -1.72891488148815
 6 -10.60304859285928  1.76441591869187 -1.47194408440844
 6  9.33846775177518  1.75042128512851  0.16318295829583
 6 -8.78304970197020 -0.40808275717572 -0.39379448144814
 6  8.06384548954895  2.28565454845485  0.16011678667867
 6 -7.55412344634463 -1.08509683758376 -0.58962513151315
 6  7.99724150815082  3.73256211121112  0.42340652465247
 6 -7.68243654065406 -2.68268784568457 -0.77704638963896
 6  6.92337230823082  1.56606554755476 -0.08124060906091
 6 -6.35841853885389 -0.43526178807881 -0.56223514851485
 6  5.53238395239524  2.17866210421042 -0.05974900590059
 6 -5.04128267426743 -1.03634070697070 -0.62716959495950
 6  4.40974976097610  1.30524671867187 -0.09609169416942
 6 -3.88592988998900 -0.31524374837484 -0.52959577457746
 6  3.13460095109511  1.73750814181418  0.05554967096710
 6 -2.56695215121512 -0.80672075107511 -0.63638199319932
 6  2.87642920992099  3.14377206920692  0.43044070207021
 6 -2.27511627962796 -2.12796628862886 -0.99652087808781
 6  2.09448853785379  0.86615867986799 -0.28885956595660
 6 -1.63049500950095  0.22118000700070 -0.39234318531853
 6  0.73954078307831  1.06100891489149 -0.11962063406341
 6 -0.15254512451245 -0.01674927492749 -0.33613458345835
 1  13.20034861486149 -1.11513492359236  1.56684237323732
 1  12.84643814281428 -2.67338055215522  1.71992967696770
 1 -14.51403437643764 -0.82417985988599  1.46521744274427
 1 -13.99551304630463 -0.21898977087709 -0.45965782178218
 1  12.68102910991099 -2.82101140824082 -0.89752031003100
 1 -12.82137256925692  1.16667064916492  1.95902363636364
 1  13.93445803280328 -0.12027945004500 -0.20392557355736
 1  13.63729928692869 -0.68904426152615 -1.92458518951895
 1 -13.50700590959096  1.63780884098410 -0.97749049204920
 1 -12.49445541854185  2.72747776787679  0.21810284628463
 1  10.89099178817882 -2.01016944594459  3.11796649264926
 1  9.45021334833483 -1.08143794279428  2.30774752975298
 1  11.13449719171917 -0.27542640974097  2.99101248724872
 1  10.41892815581558 -2.97159193319332 -0.61538822182218
 1  10.41761076397640 -3.52274091709171  1.15835527552755
 1  9.28290560756076 -2.37606891489149  0.52840956195620
 1 -11.59443112911291 -0.43238573247325  2.68162845984598
 1 -10.78092093109311 -1.76532907680768  2.02659644364436
 1 -12.36775766876688 -2.32396981688169  2.77927850785079
 1 -13.33606405540554 -2.90164886078608  0.60011814281428
 1 -11.89353458845885 -3.06089267816782  0.17691058905891
 1 -12.77634549354936 -2.48135732763276 -1.32933567556756
 1  9.00022192519252 -0.31101551255126  0.51655877687769
 1 -10.10517528252825 -2.14032109600960 -0.74898870087009
 1  10.54996628862886  1.50988565856586 -1.63858591759176
 1  12.11656748574858  2.13698464136414 -1.31004661266127
 1  12.12405407540754  1.11080193509351 -2.80573326232623
 1 -11.09100350135014  2.33444900900090 -2.04436515751575
 1 -9.87142312031203  1.05907992709271 -2.03405937293729
 1 -9.92283646764676  2.52868552265227 -0.86947010301030
 1  14.66867599559956 -3.18649397649765  0.41231951195119
 1 -15.12181687468747  1.74565186528653  2.08946004200420
 1  10.14711063006301  2.37712462046205  0.01163798879888
 1 -8.70535527152715  0.65957055815582 -0.14797542354235
 1  9.01055874287429  4.26262964496450  0.49514535553555
 1  7.33807019401940  4.44481934293429 -0.17136348234823
 1  7.48872813281328  3.75652672067207  1.45098193619362
 1 -8.71248404240424 -2.88712337023702 -0.06208149714971
 1 -7.96904127512751 -2.53050305320532 -1.89191108010801
 1 -6.74244001600160 -3.26747128702870 -0.49211464546455
 1  6.97152300730073  0.50738395339534 -0.20525840084008
 1 -6.43205018101810  0.48913640874087 -0.24234935993599
 1  5.35024272927293  3.15984165616562  0.25341185018502
 1 -4.97446791779178 -2.07846552455245 -0.92968911891189
 1  4.51276446944695  0.12520726672667 -0.31390345834583
 1 -4.03096450045005  0.60370974297430 -0.28676739573957
 1  3.46474210221022  3.23439532953295  1.21255449644965
 1  1.75990425142514  3.16024700670067  0.56270087208721
 1  3.35323070307031  3.68169479447945 -0.46623968196820
 1 -2.62351346634663 -2.88693098509851 -0.28478614361436
 1 -2.93394210721072 -2.18583564556456 -2.02247098909891
 1 -1.24388477347735 -2.32199974997500 -1.23799234223422
 1  2.56238760176018 -0.24187746874687 -0.44731094309431
 1 -1.91611623462346  1.20695893989399 -0.22316622362236
 1  0.20442074107411  2.16078150515051  0.05162717271727
 1  0.10190197519752 -0.99398956295630 -0.46028770277028

