%nproc=4
%Mem=2GB
# td=(NStates=1) CAM-B3LYP/6-31G(d,p) 

TD

0 1
 8  14.80108563356336 -2.16891982508251 -0.33560048304830
 8 -14.77440250425042  2.08462376747675  1.06010554155416
 6  11.30205255125512 -1.38854140624062  1.02742890389039
 6 -12.36015117911791 -0.99045066296630  0.74468811281128
 6  12.80391395739574 -1.76944624072407  1.01125601760176
 6 -13.67263398239824 -0.23598161806181  0.74876768876888
 6  13.46437447644765 -1.79802212431243 -0.33795734073407
 6 -13.48799809280928  1.28689735083508  0.92690394139414
 6  11.11229055605561 -0.24873250025003  0.06597330433043
 6 -11.30510687468747 -0.18056906380638 -0.12481015701570
 6  13.31496198719872 -0.49706819191919 -1.04996775077508
 6 -12.78037047504750  1.82008501560156 -0.24977433043304
 6  11.96733260226023  0.10133051595160 -0.88369101210121
 6 -11.53196379137914  1.05872250135014 -0.57809980598060
 6  10.92838387938794 -0.91760720172017  2.45867925192519
 6  10.39135975597560 -2.67637540554055  0.59076246624662
 6 -11.71164297029703 -1.29062875477548  2.16310244124412
 6 -12.65682217721772 -2.33502472437244  0.06534779677968
 6  9.77886312731273  0.33652260526053  0.18429238923892
 6 -10.06492206420642 -0.97359010091009 -0.49363064806481
 6  11.78167404740474  1.24438961286129 -1.88793078307831
 6 -10.67696598459846  1.80964044114411 -1.52487937793779
 6  9.34859876487649  1.58575481848185  0.05043168316832
 6 -8.76491788878888 -0.50954290319032 -0.61997709970997
 6  8.02120122512251  2.21619760276028  0.24690546554655
 6 -7.63551158515852 -1.36427475537554 -0.74603077207721
 6  7.87910969496950  3.61138999399940  0.61736592059206
 6 -7.69546784378438 -2.72998257515752 -1.17429611461146
 6  6.85741571257126  1.47307624862486  0.02056957195720
 6 -6.47426012301230 -0.66657491939194 -0.51588051305131
 6  5.55198591259126  1.93701793979398  0.35853282228223
 6 -5.12275082108211 -1.16545361826183 -0.58944582258226
 6  4.40122890889089  1.22272846684668  0.08160607560756
 6 -3.92468376537654 -0.32653487748775 -0.41168398339834
 6  3.04555204620462  1.66901129212921  0.19062317831783
 6 -2.67459291529153 -0.77286736573657 -0.59842819781978
 6  2.71135270227023  3.02972066406641  0.57792545054505
 6 -2.30549931793179 -2.17571106310631 -0.86192741874187
 6  2.06396548554855  0.69028109210921 -0.07134781478148
 6 -1.67542950295030  0.17402529152915 -0.33890784178418
 6  0.63580040904090  0.93128594259426 -0.16222489448945
 6 -0.26990686068607 -0.08803640364036 -0.49295026502650
 1  13.37676625662566 -0.96890030013001  1.44678036703670
 1  12.88738223722372 -2.74036725082508  1.65442312631263
 1 -14.36849982298230 -0.37230467236724  1.49352027302730
 1 -14.38370186518652 -0.33681155305531 -0.23312516851685
 1  12.96100710771077 -2.55934524162416 -0.89984054205421
 1 -12.81421185318532  1.44234821692169  1.68373610761076
 1  14.04182876987699  0.09099167706771 -0.83029821082108
 1  13.45490104710471 -0.81031638873887 -2.15589832083208
 1 -13.52596780578058  2.04311937203720 -0.94901764476448
 1 -12.43071904490449  3.01098611871187 -0.08740770477048
 1  11.02159484848485 -1.68079650865086  3.04351904790479
 1  9.84399272627263 -0.60329012801280  2.54989174417442
 1  11.59422316431643 -0.14784365146515  2.83765715171517
 1  10.91739800280028 -3.14514928892889 -0.20052673567357
 1  10.25353435633563 -3.29508815181518  1.52909234923492
 1  9.41293861086109 -2.14465577357736  0.44668138913891
 1 -11.81484317031703 -0.22604509840984  2.79154945194519
 1 -10.66623946294630 -1.77911045494550  2.34482826682668
 1 -12.47099799279928 -1.86736415631563  2.57324790479048
 1 -13.50312076107611 -2.93094179007901  0.37318544954496
 1 -11.86569180418042 -3.01351794069407  0.15838873687369
 1 -13.03393125212521 -2.10462965486549 -1.02386512851285
 1  9.02493439643965 -0.41168557955796  0.73687080808081
 1 -10.25412017701770 -1.93830089398940 -0.88534233623362
 1  10.88002929492949  1.53627829782978 -2.09357141614161
 1  12.45487131613161  2.14542548544855 -1.79244485248525
 1  12.15354702470247  0.80554140904090 -2.92741543054305
 1 -11.33969837083708  2.42877844194419 -2.25459618061806
 1 -10.17718369636964  1.10178419751975 -2.12204817181718
 1 -10.16926111011101  2.42643529762976 -0.96484964096410
 1  14.89246837483748 -3.01498682578258  0.04822310231023
 1 -15.35632032503250  1.53725102520252  1.60109120512051
 1  9.99619553855386  2.44348125612561 -0.18109128412841
 1 -8.66751148714872  0.41976657775778 -0.13960458645865
 1  8.93634132113211  4.30657403940394  0.29189503050305
 1  7.05578196519652  4.13337819881988 -0.01655800180018
 1  7.56277553755376  3.78312938093809  1.67648448644864
 1 -8.09494228822882 -3.23326798469847 -0.06235152415242
 1 -8.37613198419842 -3.04833483638364 -1.85738762776278
 1 -6.59675544754475 -3.12935747564756 -1.30086552055206
 1  7.07997385238524  0.38019123412341 -0.23917179217922
 1 -6.56585356135614  0.34675217031703 -0.18880400540054
 1  5.50053775877588  2.95299097109711  0.59676618561856
 1 -4.96954742574257 -2.14881255925593 -1.17755390539054
 1  4.66643983698370  0.22295704170417 -0.13239530753075
 1 -4.14643604760476  0.59376874887489  0.00352163316332
 1  3.37150277827783  3.32335422542254  1.46581982298230
 1  1.57243550455045  3.07812879487949  0.95296989898990
 1  2.95388076807681  3.84404102910291 -0.03588664666467
 1 -3.31933304830483 -2.66500879287929 -0.32815048004800
 1 -2.29178789178918 -2.48317537953795 -1.92146088808881
 1 -1.24106449144915 -2.69691724172417 -0.29729827282728
 1  2.35355671867187 -0.27307058805881 -0.09158537053705
 1 -1.80978560156016  1.10462870687069 -0.06598050505051
 1  0.33783408240824  1.77020244724473  0.15138714871487
 1  0.22903468846885 -1.07165732973297 -0.77749942394239

