%nproc=4
%Mem=2GB
# td=(NStates=1) CAM-B3LYP/6-31G(d,p) 

TD

0 1
 8  14.71913743874387 -2.17441037413741 -0.26793371637164
 8 -14.74374943894389  1.94272957805781  0.96336586758676
 6  11.22131447744774 -1.42476502860286  1.03540970197020
 6 -12.44828999299930 -0.97453907180718  0.39749339333933
 6  12.66639020502050 -1.88901819791979  1.08741363336334
 6 -13.67309402840284 -0.24664268416842  0.58229104110411
 6  13.34930296929693 -1.89335165726573 -0.34456800180018
 6 -13.49252854585459  1.27882654375438  0.96446769776978
 6  11.01469079607961 -0.22010963796380  0.08037474447445
 6 -11.22840920492049 -0.17227823472347 -0.22117979397940
 6  13.27140763176318 -0.42990147524752 -0.91710446444644
 6 -12.71042348034803  1.91755476257626 -0.19957931093109
 6  11.93163903290329  0.24134451735174 -0.83216585958596
 6 -11.43888448344834  1.16451308040804 -0.48668066406641
 6  10.87831887288729 -0.95480092109211  2.42149553355336
 6  10.33096371637164 -2.57328509650965  0.51866525652565
 6 -12.08433023902390 -1.39599929182918  1.95327145814581
 6 -12.73651014601460 -2.27302852475248 -0.33554229222922
 6  9.70967620862086  0.39660861386139  0.18436239623962
 6 -10.04158973097310 -0.92001474337434 -0.49072035703570
 6  11.71450733073307  1.24532970687069 -1.89672166216622
 6 -10.36040432843284  1.95155463256326 -1.12265915591559
 6  9.44947885288529  1.80252649564957  0.08199483948395
 6 -8.74371576857686 -0.56166811571157 -0.20947604960496
 6  8.06155526052605  2.26162214521452  0.07403817881788
 6 -7.60340837483748 -1.30831915981598 -0.43289945894589
 6  7.87265904990499  3.76850570557056  0.34316850085008
 6 -7.74466276327633 -2.71856143304330 -0.93431211621162
 6  6.88301827282728  1.51169011001100 -0.02794527952795
 6 -6.35495819281928 -0.66856511841184 -0.40616954195420
 6  5.53465417941794  2.00563480148015  0.11099806880688
 6 -5.06500504650465 -1.25488256115612 -0.50019689768977
 6  4.39594838083808  1.14911110511051 -0.07778986398640
 6 -3.93987528452845 -0.42530475447545 -0.38603141814181
 6  3.14818230923092  1.57934232523252  0.13334745074507
 6 -2.63387884388439 -0.85862594159416 -0.47985634063406
 6  2.81512307930793  2.97379507150715  0.58664632263226
 6 -2.24232300030003 -2.24552804480448 -0.80313153915392
 6  2.12290137913791  0.69229129312931 -0.22707338733873
 6 -1.61481344134413  0.01682957195720 -0.25309926092609
 6  0.72559938893889  0.82796561056106 -0.08840751275128
 6 -0.21281115111511 -0.19608720872087 -0.27679864986499
 1  13.29131771177118 -1.05809922002200  1.35937162616262
 1  12.57455095409541 -2.82301551565157  1.59425710971097
 1 -14.38177115011501 -0.71060850275027  1.30564148514851
 1 -14.33493698869887 -0.04268214011401 -0.33642549854985
 1  12.61115212221222 -2.71328063516352 -0.83380393839384
 1 -13.09473990599060  1.13066704880488  1.95170290429043
 1  14.08441302830283  0.19268184608461 -0.49801498249825
 1  13.56085164216422 -0.39663502060206 -1.90657338833883
 1 -13.21814702370237  1.95623068316832 -1.14360710371037
 1 -12.30335630863086  3.00528554865487  0.07394843084308
 1  10.94435712471247 -1.85800422942294  3.27322201820182
 1  9.82045037203720 -0.84141394039404  2.57249400440044
 1  11.37930167216722 -0.13761262836284  2.71038442444244
 1  10.50158642164216 -2.71116589058906 -0.49321600460046
 1  10.23116211911191 -3.58284692769277  1.08476791679168
 1  9.37340465746575 -2.31918322632263  0.64109083008301
 1 -11.96222790879088 -0.45484797869787  2.49504980198020
 1 -11.04368720772077 -1.78552109600960  2.10235401940194
 1 -13.02294318731873 -1.86606402630263  2.39514009400940
 1 -13.41736218521852 -2.81823051895190  0.15726385738574
 1 -11.79861509650965 -2.95299188808881 -0.42382948494849
 1 -13.05524338333833 -2.09396858875888 -1.37345008700870
 1  9.05832773577358 -0.20350476147615  0.73034015501550
 1 -10.31124588958896 -1.90200726462646 -1.22808661066107
 1  10.59486077807781  1.58005267526753 -1.77272933193319
 1  12.53796962596260  2.04931587448745 -1.61226683468347
 1  12.13217488748875  0.81721257615762 -2.99935262426243
 1 -10.77427182818282  2.66174173827383 -2.06196691769177
 1 -9.64187016501650  1.44883890299030 -1.59501546854685
 1 -9.84268845284528  2.50794344844484 -0.35210836683668
 1  14.73921304930493 -3.26299162626263 -0.14223594359436
 1 -15.24836952995300  1.52687998809881  1.68994009000900
 1  10.16863278227823  2.58684559255926 -0.15630880588059
 1 -8.71670640664066  0.46017061816182  0.25659503350335
 1  8.77473516051605  4.30029341134113  0.52066790779078
 1  7.27176356335634  4.04215907690769 -0.54300064606461
 1  7.30216947694769  4.11216228422842  1.31274811281128
 1 -8.19664245824583 -3.48673333123312 -0.25883117211721
 1 -8.52017638863886 -2.60515051795180 -1.73865575457546
 1 -6.90184595659566 -3.06774131403140 -1.34284971897190
 1  6.91507736273627  0.52505572057206 -0.51891976697670
 1 -6.29096607260726  0.41664916001600 -0.23192831783178
 1  5.26305401040104  3.04523019501950  0.53562007100710
 1 -4.95510598159816 -2.22828050605061 -0.74274042404240
 1  4.52156534953495  0.16608135413541 -0.55819788778878
 1 -4.07351875587559  0.62463183518352 -0.36791551055106
 1  3.75142077007701  3.24460635063506  1.22589583058306
 1  1.84775303630363  3.13577455945595  1.25281988398840
 1  2.83459883988399  3.73403002800280 -0.46050910891089
 1 -2.94304541954195 -2.94219651165116 -0.01322898789879
 1 -2.32955166816682 -2.50580764276428 -1.98630737273727
 1 -1.14032441744174 -2.56406395639564 -0.51856039903990
 1  2.40404176717672 -0.40497377837784 -0.46997320932093
 1 -1.88537316031603  1.11426967096710 -0.13956786378638
 1  0.40308060706071  1.92117754475447  0.02541455145515
 1 -0.17407562256226 -1.08992915691569 -0.74462613661366

