%nproc=4
%Mem=2GB
# td=(NStates=1) CAM-B3LYP/6-31G(d,p) 

TD

0 1
 8  14.54882040704070 -2.33986691979198 -0.66671359435944
 8 -14.82893795779578  2.02963826892689  0.59571910291029
 6  11.18772111811181 -1.45582813491349  0.80924708570857
 6 -12.32964812881288 -0.97980959885989  0.40903454745475
 6  12.67220078607861 -1.71915121122112  0.78145303730373
 6 -13.68336505550555 -0.22341036093609  0.43204601660166
 6  13.16268430743074 -1.87707002910291 -0.57694123912391
 6 -13.56333562656266  1.33540220132013  0.65660691169117
 6  10.88558788578858 -0.31759938693869 -0.01499479247925
 6 -11.28218458245825 -0.21214222112211 -0.33337101310131
 6  13.08680917191719 -0.52205069016902 -1.23188594259426
 6 -12.79132157015701  1.79899290639064 -0.49828918191819
 6  11.77012288128813  0.16631701460146 -0.99727237023702
 6 -11.41082167716772  1.07854448354836 -0.72385438143814
 6  10.93430447144715 -1.22879832083208  2.40783416741674
 6  10.34989560956096 -2.62103987198720  0.31493488348835
 6 -11.88819062506251 -1.31263095499550  1.85987211821182
 6 -12.66069256425643 -2.27512873477348 -0.29818855685569
 6  9.53806904790479  0.37786673967397  0.20302426242624
 6 -10.01213678567857 -1.01282402430243 -0.62636392139214
 6  11.42548842884288  1.14992016591659 -2.09302129212921
 6 -10.44417270527053  1.81857133423342 -1.52169905990599
 6  9.31850575557556  1.63852009500950  0.22953959395940
 6 -8.70833223022302 -0.55282723162316 -0.26112121412141
 6  8.05835494049405  2.30577656065607  0.29408018301830
 6 -7.47700573457346 -1.39510783868387 -0.36893306230623
 6  8.07408919291929  3.76707556255626  0.40239442344234
 6 -7.53710200720072 -2.80504008090809 -0.77925661066107
 6  6.84008397939794  1.51123006400640  0.30803831883188
 6 -6.38799149614962 -0.71110937283728 -0.15732465746575
 6  5.59844055805581  2.25368960696070  0.44964193319332
 6 -5.03375192119212 -1.22690976387639 -0.13012989098910
 6  4.50778956495650  1.47381357535754  0.18100601560156
 6 -3.93242453945395 -0.50540276427643 -0.03948676367637
 6  3.12704019501950  1.75838022902290  0.25872998899890
 6 -2.49003445944594 -0.81790186918692 -0.09540789578958
 6  2.78819038603860  3.25894358635864  0.63020067806781
 6 -2.08081684968497 -2.36269976197620 -0.40771199719972
 6  2.18825791479148  0.79193125712571 -0.00287096709671
 6 -1.45286724672467  0.11766965596560  0.07088313731373
 6  0.76206303530353  0.88634144814481  0.16710803880388
 6 -0.11022089208921 -0.07709530953095 -0.07464843484348
 1  13.36211479147915 -0.96084949504950  1.37266295529553
 1  12.96291979097910 -2.71022423652365  1.43029071307131
 1 -14.49593256625663 -0.53558100000000  1.25570649164916
 1 -14.39288278327833 -0.29032690459046 -0.41842369836984
 1  12.44845585258526 -2.54964427152715 -1.08151870987099
 1 -13.02691312331233  1.77796177827783  1.62802053605361
 1  13.83859844684468  0.08703128102810 -0.82777795879588
 1  13.11962751975198 -0.68209356645665 -2.29022175317532
 1 -13.31471668066807  1.82292735283528 -1.61739448244824
 1 -12.54929090209021  2.75209022912291 -0.22100106410641
 1  11.24447713671367 -2.23345177417742  2.73458815481548
 1  9.79720804780478 -1.16707650665067  2.63552030703070
 1  11.53571731373137 -0.38946781388139  2.80545393139314
 1  10.46912317531753 -2.69083385738574 -0.87229391239124
 1  10.60105910881088 -3.61193983698370  0.79503894389439
 1  9.21235855285529 -2.35591689968997  0.54904162516252
 1 -11.85942762876288 -0.39478197209721  2.54992528952895
 1 -10.74795763476348 -1.56392893679368  1.78512229622962
 1 -12.50916180918092 -2.18562598249825  2.35301588158816
 1 -13.51494194319432 -2.73703239913991  0.24554268526853
 1 -11.89570480548055 -3.02789937883788 -0.35297239923992
 1 -12.96925478447845 -2.28262745464546 -1.36542928492849
 1  8.53144504750475 -0.15712012301230  0.67209433043304
 1 -10.21412617761776 -2.05887295119512 -0.98392219421942
 1  10.20290158215822  1.59591426142614 -1.81465352435244
 1  11.94910073907391  2.15821676457646 -1.83140874887489
 1  11.80489215921592  0.94191504640464 -3.06031872087209
 1 -10.79071347234724  2.10968653275328 -2.49003972497250
 1 -9.29997597559756  1.30193421252125 -1.61386735373537
 1 -10.13431761576158  2.70041269536954 -0.73402655865587
 1  14.60575970397040 -2.99268459555956 -0.08300002000200
 1 -15.43378807180718  1.59497679777978  1.17766886288629
 1  10.09475539453945  2.36977388538854 -0.06762993799380
 1 -8.76030076607661  0.40204480558056  0.10767014101410
 1  9.07110479747975  4.14263764576458  0.62967880888089
 1  7.68674506150615  4.26573143414341 -0.47067341334133
 1  7.30862012201220  4.23986505450545  1.23482032003200
 1 -8.16163895789579 -3.57382204010401 -0.21353664266427
 1 -8.09269364036404 -2.73530353325333 -1.77434932393239
 1 -6.49067483948395 -3.21685622552255 -0.76135156915692
 1  7.08675453045305  0.58368158315832 -0.11688956395640
 1 -6.49515649164917  0.28727622272227  0.10211508650865
 1  5.41247895289529  3.09374504650465  0.89279578857886
 1 -4.98545901690169 -2.32808048604860 -0.47454360436044
 1  4.70215340834083  0.42426717271727 -0.19303137113711
 1 -4.01082248624863  0.58772814481448  0.21999328032803
 1  3.26636226422642  3.46521841184118  1.52775601660166
 1  1.68459672067207  3.37843882588259  0.57712231423142
 1  3.37030241024102  3.93685031003100  0.13706064806481
 1 -2.56174728972897 -2.82144443644364  0.48098043304330
 1 -2.29261797479748 -2.81948901090109 -1.13146188818882
 1 -0.89090947594759 -2.55766331633163 -0.27118566156616
 1  2.55813717671767 -0.20482376337634 -0.23838005000500
 1 -1.88998362136214  1.07688593259326 -0.02024593159316
 1  0.29666996599660  1.98746417341734  0.33521553155315
 1  0.29741152615262 -1.05847601160116 -0.18900057405741

