%nproc=4
%Mem=2GB
# td=(NStates=1) CAM-B3LYP/6-31G(d,p) 

TD

0 1
 8  14.59515504050405 -2.30319325242524 -0.15599252225223
 8 -14.74310937493749  1.75735104020402  0.94182371337134
 6  11.10020236623662 -1.49847239933993  0.91906806780678
 6 -12.42309747374737 -1.09055067296730  0.46846049004900
 6  12.59675324132413 -1.87330662676268  1.02734762676268
 6 -13.79024574357436 -0.33711173107311  0.54612742474247
 6  13.22969100810081 -1.97085940804080 -0.38047159215922
 6 -13.53175246824683  1.07738639973997  0.90991224222422
 6  10.94496382338234 -0.29887751475147  0.05825253225323
 6 -11.32289865386539 -0.23171417831783 -0.26398407440744
 6  13.17196768776878 -0.53788227332733 -1.01252400640064
 6 -12.74097653565356  1.74468747584758 -0.23371272427243
 6  11.81569743874388  0.08426880978098 -0.86063870687069
 6 -11.49629022402240  1.06313294239424 -0.55463745974597
 6  10.64645568656866 -1.09989543054305  2.41804518851885
 6  10.16844746474647 -2.66143391139114  0.54788817881788
 6 -11.86887869386939 -1.34683437533753  1.89499563056306
 6 -12.64549104410441 -2.39235045694570 -0.19831856985699
 6  9.63652889388939  0.29931888488849  0.06599055905591
 6 -10.08284385638564 -0.89743248514851 -0.53523480848085
 6  11.62088796879688  1.22657783168317 -1.86348833883388
 6 -10.55705399339934  1.84881435853585 -1.34789167916792
 6  9.41229513451345  1.67609385238524  0.06819345934593
 6 -8.81173257025703 -0.43983593249325 -0.31019612161216
 6  8.18489759475947  2.35714169716972  0.12228300330033
 6 -7.59334736873687 -1.20357868576858 -0.39252542154215
 6  8.12953473747375  3.80540939593959  0.35909009300930
 6 -7.61634993199320 -2.64067364426443 -0.86847553255326
 6  7.01797176817682  1.63950289128913 -0.07127961296130
 6 -6.32417511451145 -0.56311457335734 -0.12895182018202
 6  5.69059977397740  2.10719495749575  0.16647361636164
 6 -5.03235178117812 -1.02329940284028 -0.38775565356536
 6  4.47966675267527  1.38201439543954  0.11121903690369
 6 -3.86270756775678 -0.26525874987499 -0.21952476747675
 6  3.18172566356636  1.74501889288929  0.23311742774277
 6 -2.62442789878988 -0.76428650765077 -0.45617397239724
 6  2.78658022502250  3.10546823882388  0.60155781378138
 6 -2.20786955495550 -2.14342783478348 -0.92255348134813
 6  2.28858794779478  0.73080514451445 -0.22420310031003
 6 -1.46999895989599  0.09488737773777 -0.28183213421342
 6  0.77445427442744  0.97661047504750 -0.08537720972097
 6 -0.14709457945795 -0.06939453945395 -0.42814378437844
 1  13.08972755275528 -0.94855826592659  1.37558324732473
 1  12.72700619961996 -2.65432864696470  1.89370705470547
 1 -14.32915588858886 -0.73319076097610  1.31186210721072
 1 -14.48684217921792 -0.47120499239924 -0.32057391339134
 1  12.50155116211621 -2.70944025112511 -1.06976753475347
 1 -12.93690412241224  1.32087606970697  1.90977871187119
 1  13.81586617361736 -0.00609803190319 -0.73995917691769
 1  13.55305086208621 -0.54904026112611 -2.06295902690269
 1 -13.55459066806681  1.81581664176418 -1.13248599159916
 1 -12.41211718471847  2.74830985108511  0.12614365036504
 1  10.87359004800480 -1.95295372437244  2.87866256225623
 1  9.43490181718172 -1.05196499549955  2.44317107210721
 1  11.04156789878988 -0.24406327342734  2.91228461446145
 1  10.57607387038704 -2.92189696369637 -0.49206588958896
 1  10.17357636053605 -3.45124376737674  1.37963740374037
 1  9.12937025402540 -2.30367167516752  0.23046976797680
 1 -11.60593227922792 -0.32899539343934  2.51213151015101
 1 -10.84835767476748 -1.82206475037504  1.89983376737674
 1 -12.51023191619162 -1.95020244014401  2.54665524552455
 1 -13.33950439943994 -3.03766246214621  0.07357548854886
 1 -11.74442967796780 -3.07416400530053  0.14152705070507
 1 -12.61533939293929 -2.17404659655966 -1.35042778477848
 1  8.77528943194319 -0.40492490349035  0.16725384638464
 1 -10.10429519451945 -1.98980604450445 -0.79479328132813
 1  10.61712300430043  1.63509817981798 -2.28623068206821
 1  12.09688551755175  2.07200814371437 -1.37078268626863
 1  12.27023869386939  0.84930578547855 -2.75018770777078
 1 -10.96650105110511  2.65307087118712 -2.08549927092709
 1 -9.85862184018402  1.17471149024902 -1.86538250525053
 1 -9.79897408140814  2.50738339243924 -0.69246240224022
 1  14.64571369936994 -3.07517284438444  0.54654293429343
 1 -15.32628732173217  1.34639193929393  1.43487458345835
 1  10.30645656465647  2.22338924692469  0.07519434443444
 1 -8.74577931393139  0.61089569066907  0.01015038903890
 1  9.07059474647465  4.55152853485349  0.24092993399340
 1  7.43228961596160  4.30271513251325 -0.34267061306131
 1  7.81762102210221  4.03560462846285  1.44837167516752
 1 -7.94067686168617 -3.26110076797680 -0.00361565056506
 1 -8.24571894289429 -2.64399440234023 -1.87379926892689
 1 -6.65903167516752 -2.82095663556356 -1.24484991899190
 1  7.15096095109511  0.58683189818982 -0.45189306430643
 1 -6.52292926892689  0.60312780788079  0.08181305630563
 1  5.63118082308231  3.16012168416842  0.34522103110311
 1 -4.94553502450245 -2.00208788678868 -0.56152230223022
 1  4.55881907490749  0.32244699069907 -0.25088715671567
 1 -3.95952735673567  0.74920429242924  0.10572185318532
 1  3.18937456545655  3.28042993299330  1.60767400840084
 1  1.59951821282128  3.30306128812881  0.65241984398440
 1  3.15968134813481  3.88247487248725  0.00303724572457
 1 -2.75716683168317 -2.78419071107111 -0.12098976397640
 1 -2.54538325132513 -2.32207926992699 -1.93738248024802
 1 -1.28939932493249 -2.32410996099610 -0.90983952695270
 1  2.55268663166317 -0.19462274327433 -0.60429664166417
 1 -1.76479110211021  1.23153139713971 -0.02453636063606
 1  0.53749404840484  1.96329175617562  0.02196420642064
 1  0.29800158515852 -0.92640280428043 -0.83212488648865

