%nproc=4
%Mem=2GB
# td=(NStates=1) CAM-B3LYP/6-31G(d,p) 

TD

0 1
 8  14.56464198919892 -2.43995692879288 -0.77946486948695
 8 -14.71435649964996  2.01249655475548  0.77883741474147
 6  11.34896724272427 -1.42589514161416  0.99886604760476
 6 -12.42140730473047 -1.02948456635664  0.59816346034603
 6  12.75827939393939 -1.76986628272827  0.94061895389539
 6 -13.72550926992699 -0.19776779667967  0.61703451545155
 6  13.25543358235824 -1.86904922702270 -0.53745729072907
 6 -13.48151744474447  1.30076873797380  0.77345859685969
 6  11.01796112311231 -0.27998562556256  0.07436414341434
 6 -11.29913627762776 -0.24414542144214 -0.16702437843784
 6  13.25813630463046 -0.46992547764776 -1.10484323832383
 6 -12.61742418041804  1.82174518161816 -0.43425277827783
 6  11.84793066206621  0.17959834273427 -0.82470511351135
 6 -11.41967256225623  1.02321895099510 -0.55376737273727
 6  11.06019706070607 -0.94681012201220  2.50644402840284
 6  10.40382100210021 -2.60872864086409  0.67283067306731
 6 -11.83664547054705 -1.26674636653665  1.95481161216122
 6 -12.73933042804280 -2.38697991989199 -0.11387012501250
 6  9.74044928592859  0.27293624662466  0.18822278227823
 6 -10.04918049004901 -1.08619136103610 -0.51153243824382
 6  11.59561544154415  1.40881605550555 -1.76870886088609
 6 -10.39834812281228  1.67770724782478 -1.58478536853685
 6  9.32290619561956  1.60120636363636  0.23902054205421
 6 -8.78921031803180 -0.61718366726673 -0.25878098009801
 6  8.04193329832983  2.17615359835984  0.31812258725873
 6 -7.59361739573957 -1.32607093499350 -0.43225939493949
 6  7.92354413841384  3.67879673467347  0.45617980198020
 6 -7.63288158515851 -2.74857443434343 -0.98751743674367
 6  6.83265323632363  1.52717165816582  0.11454896989699
 6 -6.41535423242324 -0.61128939083908 -0.28184710971097
 6  5.58204891889189  1.98511274927493  0.15520248924892
 6 -5.09613815981598 -1.07683475637564 -0.35299217721772
 6  4.40756954295430  1.23625981998200 -0.00260234523452
 6 -3.94824612161216 -0.28702092609261 -0.23539635463546
 6  3.09173666466647  1.68475286628663  0.18843295929593
 6 -2.58789424542454 -0.74897497649765 -0.32838119311931
 6  2.73021458845885  3.11892958495850  0.55755341334133
 6 -2.39260802880288 -2.20664415641564 -0.84430565656566
 6  2.11682077107711  0.78982104610461 -0.12735341534153
 6 -1.57483944394439  0.19327721672167 -0.13313726472647
 6  0.71585841484148  0.90531334533453  0.02685401340134
 6 -0.22125199519952  0.03862626262626 -0.28442941294129
 1  13.40491907190719 -1.17281069116912  1.40146583558356
 1  13.13715721472147 -2.82318553265327  1.34500218421842
 1 -14.29003197619762 -0.26835427732773  1.62892381338134
 1 -14.29918341334133 -0.29336720862086 -0.35753760976098
 1  12.48729973697370 -2.55829513661366 -1.13826438443844
 1 -13.09468990099010  1.48433241534153  1.68798653265327
 1  14.05521010801080  0.12063464136414 -0.76835201620162
 1  13.60636619361936 -0.43929928702870 -2.23403613461346
 1 -13.05640084908491  1.92735779587959 -1.36033877687769
 1 -12.44074004700470  2.92286730683068 -0.22153111711171
 1  11.37381007000700 -1.72765119411941  3.29443413941394
 1  9.99103743074307 -0.76313611261126  2.77925468046805
 1  11.57127086908691  0.12885401830183  2.71416480248025
 1  10.26457272027203 -2.88262303630363 -0.31193787678768
 1  10.68175717861786 -3.34279292229223  1.36578601860186
 1  9.23826114311431 -2.33514482248225  0.65727244824482
 1 -11.79054074007401 -0.34624711861186  2.67462775977598
 1 -10.83181602060206 -1.72105464936494  1.97959174317432
 1 -12.30085097809781 -2.00560798069807  2.45510609060906
 1 -13.62311276027603 -2.96012470837084  0.14725285628563
 1 -11.76729196419642 -3.09546613551355 -0.02546964896490
 1 -12.57639549854985 -2.28905809770977 -1.26709945194519
 1  8.68817072007201 -0.44709912091209  0.27791491249125
 1 -10.12780754575458 -2.10491755565557 -0.90804460646065
 1  10.48548984098410  1.38238290829083 -1.90731279027903
 1  11.91269709870987  2.34789573247325 -1.31837744574457
 1  12.13311498149815  1.21068192309231 -2.71749443844384
 1 -11.07167156815681  2.48485404950495 -2.10165088608861
 1 -10.01816779477948  0.87941196029603 -2.10058602560256
 1 -9.70768495249525  2.42027468156816 -0.92303545954595
 1  14.47862699069907 -3.27845317241724 -0.21950367036704
 1 -15.29475416841684  1.97229452955296  1.64442553855386
 1  10.18973489248925  2.43371027902790  0.38315514051405
 1 -8.70375511151115  0.43482808390839  0.01137051105110
 1  8.88878656565656  4.33716709870987  0.75207104810481
 1  7.28428481548155  4.17013187418742 -0.45756210221022
 1  7.20249950995099  3.89504057205721  1.24578141614161
 1 -8.23474626862686 -3.36072072997300 -0.34620990999100
 1 -7.98275264626463 -2.74369437233723 -2.22588447744774
 1 -6.62875864786479 -3.20512505240524 -0.91044647864786
 1  6.72763861886189  0.43330654565457 -0.16276415141514
 1 -6.59375635163516  0.31737923302330  0.02562743774377
 1  5.56952465746575  2.94211988398840  0.43707021602160
 1 -4.92738320932093 -2.10078775677568 -0.64119026902690
 1  4.35219841284129  0.16173091909191 -0.27708977697770
 1 -4.20446185018502  0.77495686768677 -0.23638235723572
 1  3.53213884188419  3.41324321432143  1.51593483448345
 1  1.69544780578058  3.45558654065407  0.82264686668667
 1  3.17370275027503  3.53800042504250 -0.26336939493949
 1 -2.90183129812981 -2.87043933593359 -0.26025369036904
 1 -2.82583129612961 -2.38640570257026 -1.86690543254325
 1 -1.37610799579958 -2.58453600360036 -0.83279182218222
 1  2.56371773477348 -0.18556183718372 -0.46016222822282
 1 -1.76337096009601  1.14457270127013  0.22887898089809
 1  0.32430272927293  1.85728115511551  0.64253626362636
 1  0.13018480348035 -0.97225738973897 -0.73050472447245

