%nproc=4
%Mem=2GB
# td=(NStates=1) CAM-B3LYP/6-31G(d,p) 

TD

0 1
 8  14.56298182318232 -2.40749368246825 -0.36327325032503
 8 -14.69560462446245  1.76970227532753  1.05229476047605
 6  11.15031737773777 -1.47646019811981  0.96348250925092
 6 -12.24521968596860 -0.94266588448845  0.67076072007201
 6  12.65216878287829 -1.88720801690169  0.95607049904991
 6 -13.51113783278328 -0.27695571547155  0.78657146914691
 6  13.18612665166517 -2.03181550365036 -0.37904144914491
 6 -13.38430772377238  1.20402906400640  0.92297354835484
 6  10.85560488748875 -0.23226085308531 -0.01183447644764
 6 -11.26217258125813 -0.20865187208721 -0.27813548954895
 6  13.20780127112711 -0.55203368846885 -0.98737149114911
 6 -12.73667610561056  1.77515052215222 -0.33442279527953
 6  11.83619948894890  0.08234861776178 -0.89981262426243
 6 -11.50062065706571  0.97291392049205 -0.74068606460646
 6  10.72956399739974 -1.06653209420942  2.39244262826283
 6  10.23201382138214 -2.72694046204620  0.46095948594859
 6 -11.55464727072707 -1.18618831073107  2.02974910591059
 6 -12.46182267726773 -2.37829905180518  0.04782604460446
 6  9.57874311531153  0.42388134113411  0.13996795679568
 6 -9.98947451945195 -1.00232297419742 -0.61630291529153
 6  11.54250013001300  1.12714788868887 -1.93235522552255
 6 -10.60905919391939  1.73513299039904 -1.74075096509651
 6  9.27790169516952  1.70532677567757  0.29063570357036
 6 -8.78818021502150 -0.55308725762576 -0.41705680768077
 6  8.04658376337634  2.33159914291429  0.23769454445445
 6 -7.56638467246725 -1.25130345824582 -0.54692086108611
 6  7.94649643364336  3.79946880188019  0.63367755175518
 6 -7.53977227422742 -2.76028560546055 -0.95006369136914
 6  6.84350432143214  1.62313125412541  0.01031854685469
 6 -6.36565926292629 -0.55221348324832 -0.53996292129213
 6  5.54794550855086  2.17868210621062  0.16373334233423
 6 -5.06222476847685 -1.06162323522352 -0.61683856185619
 6  4.46262504850485  1.37131332533253 -0.03983606860686
 6 -3.95686698369837 -0.28349057305731 -0.33859667466747
 6  3.11237872887289  1.70994538553855  0.21596571257126
 6 -2.58771422742274 -0.69986006500650 -0.41924027902790
 6  2.84072563956396  3.10481817381738  0.64374203220322
 6 -2.20702947094710 -2.15083857585759 -0.75122634863486
 6  1.99614870387039  0.82401446544654  0.03731305130513
 6 -1.61318327832783  0.23201109010901 -0.24724867586759
 6  0.72135896489649  1.06127894189419  0.01260258825883
 6 -0.22152202220222 -0.03458105810581 -0.18129909990999
 1  13.21747032703270 -1.11915532563256  1.50059574857486
 1  12.64716821582158 -3.08539175327533  1.39470715471547
 1 -13.92409538253825 -0.95715315721572  1.63341426242624
 1 -14.00179367436744 -0.55046291819182 -0.06030788678868
 1  12.50618162516252 -2.64953426052605 -1.02530308830883
 1 -12.71341177317732  1.60743472557256  1.72867060106011
 1  14.01405599259926 -0.18680610271027 -0.26914209520952
 1  13.34823038003800 -0.69874523162316 -1.91857458845885
 1 -13.50347555655565  1.70472553265327 -1.18968171117112
 1 -12.47929390239024  2.84973999409941  0.01692272827283
 1  10.94542723172317 -1.83249167816782  3.26625132113211
 1  9.66759508650865 -0.66314611361136  2.44693144814481
 1  11.24545828782878 -0.17738660576058  2.63665705170517
 1  10.39158542154216 -2.89985475947595 -0.61304798779878
 1  10.27891689458946 -3.70258890189019  1.01868130813081
 1  9.21845916291629 -2.31039234723472  0.54703142414241
 1 -11.47630931693169 -0.12116461036104  2.61329162616262
 1 -10.54711755075508 -1.73561610551055  1.91305508950895
 1 -12.03315420842084 -1.84230165006501  2.66602718271827
 1 -13.47542799179918 -2.78454715061506  0.29660779177918
 1 -11.69114434943494 -3.23087967686769  0.26269916791679
 1 -12.65788364736474 -2.56664585648565 -1.09730247224722
 1  8.67445934893489 -0.14057846884688  0.28953607460746
 1 -10.34128889388939 -2.01000806470647 -0.76395019701970
 1  10.61343263526352  1.43016768676868 -2.23786584558456
 1  12.13701953095309  2.13965490839084 -1.78106371437144
 1  11.97953962396240  0.80487134203420 -2.89408209720972
 1 -11.07745214621462  2.28904446854685 -2.58935965696570
 1 -9.90873685168517  1.04757877697770 -2.17237320432043
 1 -9.89062324632463  2.30887354145414 -1.21113426942694
 1  14.62190131813181 -3.29121444854485  0.04625290529053
 1 -15.04224891789179  1.60646794689469  2.00397149314932
 1  10.27571349034904  2.35727263526353  0.18824564956496
 1 -8.61953668966897  0.48661326242624 -0.10643126912691
 1  8.86187387438744  4.18180156215622  0.79421526252625
 1  7.72136852385238  4.33732859385939 -0.28261460746075
 1  7.40306956695670  3.99542061006101  1.58731556955696
 1 -7.82772556655666 -3.41858651655166 -0.12019730873087
 1 -8.32490686168617 -3.05463546644665 -1.71836372537254
 1 -6.54970074207421 -3.20565510541054 -1.30985641964196
 1  6.94059991499150  0.58325154015402 -0.22217009200920
 1 -6.32325930193019  0.59743723882388 -0.37547267226723
 1  5.48581628662866  3.18664433643364  0.69397590659066
 1 -4.85554602560256 -2.03048072607261 -0.82361851185118
 1  4.56598979197920  0.29810455645565 -0.51882395039504
 1 -4.29002040604060  0.71229060106011 -0.05796451545155
 1  3.53825945394540  3.40850274027403  1.50296353735374
 1  1.70931919291929  2.99841082308231  1.22739734173417
 1  2.85830121012101  3.67837446244624 -0.39332239023902
 1 -2.90490160516052 -2.74852714471447 -0.00191785678568
 1 -2.45165387838784 -2.42851991399140 -1.99709845184518
 1 -1.15365575057506 -2.41258880888089 -0.52910145314531
 1  2.17612897589759 -0.12735601660166 -0.44408062006201
 1 -2.12575719871987  1.34265250925093 -0.15840974797480
 1  0.32773307230723  2.05532095909591  0.16526853685369
 1  0.35821760676068 -0.99248941294129 -0.26751842584258

