%nproc=4
%Mem=2GB
# td=(NStates=1) CAM-B3LYP/6-31G(d,p) 

TD

0 1
 8  14.76685221022102 -2.15652858595860 -0.27204412741274
 8 -14.69678474247425  2.02405771087109  1.00912044304430
 6  11.18826117211721 -1.49172172427243  0.99978613961396
 6 -12.43347851185118 -1.01601321922192  0.39335297929793
 6  12.72699626562656 -1.77263655975598  1.00234512651265
 6 -13.80965768476848 -0.21883990389039  0.49685249724973
 6  13.37756579557956 -1.87650997309731 -0.34551809680968
 6 -13.51877117011701  1.25345400650065  0.97711896289629
 6  10.95957528452845 -0.35215284228423 -0.12701599459946
 6 -11.31287765176518 -0.20943195009501 -0.26991466746675
 6  13.29614010501050 -0.52466095119512 -1.11863461746175
 6 -12.67658009600960  1.77111011811181 -0.19959931293129
 6  11.91240710971097  0.09694007690769 -1.02789543254325
 6 -11.43513410841084  1.08045467456746 -0.53538553455346
 6  10.88567960896090 -0.93944938593859  2.42993637763776
 6  10.38267888788879 -2.66050381838184  0.52478586858686
 6 -11.89549135513551 -1.48542823472347  1.77113324432443
 6 -12.75901239623962 -2.28892011391139 -0.32621135913591
 6  9.67471271227123  0.37555650865087  0.09295325532553
 6 -10.10814638663866 -1.09892263416342 -0.49302058705871
 6  11.61712759275928  1.17803297719772 -2.04455644564456
 6 -10.45727401540154  1.86217569466947 -1.38823571357136
 6  9.41969587458746  1.64305054805481 -0.04979833983398
 6 -8.84484588158816 -0.57797974687469 -0.44113921592159
 6  8.15865497049705  2.28472445544554  0.13757453245325
 6 -7.65588362236224 -1.32253058095810 -0.67599376837684
 6  8.15065684968497  3.83972282728273  0.41143532753275
 6 -7.71657995499550 -2.81687126402640 -1.13965265026503
 6  6.94628459945995  1.55748468946895  0.13623113811381
 6 -6.49519221622162 -0.69378764066407 -0.37655658065807
 6  5.62263297729773  2.09180341834183  0.17269423842384
 6 -5.13084163016302 -1.07938501140114 -0.50763764176418
 6  4.48193697969797  1.18310450445044  0.05633354835484
 6 -4.00897219421942 -0.30715293929393 -0.19666248124812
 6  3.13994148514852  1.68729312031203  0.22573668966897
 6 -2.56356181218122 -0.71286136513651 -0.24386274127413
 6  2.83922548954896  3.06404409640964  0.49771742974297
 6 -2.41887065506551 -2.16695018701870 -0.48779000500050
 6  2.14577366636664  0.72096416041604  0.09354867486749
 6 -1.61440340034003  0.22816070507051  0.06880292929293
 6  0.71945877487749  0.78248106210621  0.16441776977698
 6 -0.25569543954395 -0.06040364036404 -0.13154412441244
 1  13.21657023702370 -1.05797920802080  1.45486117511751
 1  13.02494599359936 -2.61834504860486  1.73544122812281
 1 -14.43399637263726 -0.70454789668967  1.12811373237324
 1 -14.43021651665167 -0.07045491739174 -0.51691354735474
 1  12.92829383638364 -2.67778708580858 -0.75309586758676
 1 -12.90599103110311  1.39397337943794  1.77606534053405
 1  13.92696728372837  0.32048462636264 -0.67132231323132
 1  13.60541609860986 -0.62976833393339 -2.29777250825082
 1 -13.30833604260426  1.96054111421142 -1.25323806680668
 1 -12.35024099709971  2.82568758885889  0.11216225222522
 1  11.37179986898690 -1.63993242224222  3.22851754775478
 1  9.89229755675568 -0.74504430343034  2.66869362436244
 1  11.12935667766777 -0.01408027512751  2.66094948094810
 1  10.76341260426043 -3.32915768976898 -0.32794947794779
 1  10.13883288618862 -3.28655729872987  1.29389882988299
 1  9.32950026702670 -2.47219852785279  0.21054777577758
 1 -11.98146983298330 -0.55385787968797  2.54872516951695
 1 -10.87259009800980 -1.83712625652565  1.75907969196920
 1 -12.62945383838384 -1.98750617051705  2.40913149314932
 1 -13.66863731273127 -2.75403409930993  0.19025715671567
 1 -11.89237447244725 -2.94568115701570 -0.21963906590659
 1 -12.95755361436144 -1.96565575747575 -1.39059180118012
 1  8.84292619561956 -0.29961437243724  0.25727284828483
 1 -10.28817358235824 -2.08020508440844 -0.81136493849385
 1  10.64251554355435  1.38875354535454 -2.25738779777978
 1  11.89169499849985  2.15185612851285 -1.55910151815182
 1  12.15149681968197  0.89844069896990 -2.95800848984898
 1 -11.11953635463546  2.47420298439844 -2.28416913791379
 1 -9.82747872587259  1.18836285538554 -2.01366733373337
 1 -9.76883106710671  2.67683033713371 -0.84796795279528
 1  14.77767689568957 -3.01888721582158  0.01305958595860
 1 -15.39215390839084  1.50088738883888  1.61699279527953
 1  10.35830174917492  2.03033994199420 -0.50652382738274
 1 -8.79266400240024  0.55510011111111 -0.17346797279728
 1  9.16298398539854  4.16665004700470  0.57860370137014
 1  7.56123251025102  4.23755861686169 -0.53876022202220
 1  7.37387664766477  4.32013308130813  1.23400023802380
 1 -7.89754254825483 -3.42005666356636 -0.26067135613561
 1 -8.36154052505251 -2.89093909680968 -1.98924081308131
 1 -6.72342811481148 -3.35513005290529 -1.37231266526653
 1  6.77054290929093  0.39289250425043 -0.02383025802580
 1 -6.62555953195320  0.53898139323932 -0.09619474447445
 1  5.41063876887689  3.10869654165417  0.34489099809981
 1 -4.80933140414041 -2.06971464946495 -0.85244139413941
 1  4.67198039103910  0.06409115511551 -0.03103517151715
 1 -4.31520292429243  0.78190756275628 -0.03908262726273
 1  3.35807143514351  3.27089897989799  1.53082632363236
 1  1.70435869686969  3.06828781078108  0.95009961196120
 1  3.07432281228123  3.88304492949295 -0.27256031403140
 1 -2.98837995299530 -2.81068336033603  0.30370270527053
 1 -2.49164787778778 -2.37832489448945 -1.59812855485549
 1 -1.31874225922592 -2.37644519451945  0.08394985198520
 1  2.72766412941294 -0.09015229622962 -0.30817702970297
 1 -2.03663828682868  1.25001324532453  0.60406649964997
 1  0.41034133313331  1.88794422142214  0.62976498649865
 1  0.00124190919092 -0.98329849384938 -0.82398407240724

