%nproc=4
%Mem=2GB
# td=(NStates=1) CAM-B3LYP/6-31G(d,p) 

TD

0 1
 8  14.89069459445945 -2.02358529162916 -0.22798972197220
 8 -14.70144520852085  2.02183748884889  0.88756828782878
 6  11.20754310031003 -1.50181273337334  0.88020418141814
 6 -12.39632479647965 -0.98225984388439  0.61436508050805
 6  12.77004057005700 -1.72203149924992  1.10363525552555
 6 -13.66158287728773 -0.19693771367137  0.66473928592859
 6  13.42523056205621 -1.75909823192319 -0.30702424742474
 6 -13.47680697369737  1.33159182028203  0.78870012101210
 6  10.93463279027903 -0.28512613961396 -0.00759405240524
 6 -11.32741910591059 -0.16747775467547 -0.18176585258526
 6  13.31455194619462 -0.44704318941894 -1.01553430743074
 6 -12.68082052005200  1.92575558265827 -0.28754810781078
 6  11.89504537353735  0.07375775867587 -0.90126276927693
 6 -11.48528912391239  1.10212684178418 -0.60268226422642
 6  10.74702574357436 -0.99477491849185  2.31555493949395
 6  10.45257587758776 -2.65313308130813  0.50184357435744
 6 -11.86348815481548 -1.28154784668467  2.02491862286229
 6 -12.70269676467647 -2.27817903980398  0.00972223422342
 6  9.64533977497750  0.29291824482448  0.08342230223022
 6 -10.03394896689669 -1.00462320422042 -0.49508079307931
 6  11.69820570057006  1.28825399929993 -1.75558754875488
 6 -10.53165145314531  1.79001847894790 -1.41333822382238
 6  9.29784368936894  1.64947119011901  0.03781042104210
 6 -8.81186258325833 -0.55819776867687 -0.23906900890089
 6  7.99524862986299  2.22552853585359  0.04251502650265
 6 -7.61729976397640 -1.22959128702870 -0.55651182018202
 6  7.93290507450745  3.76336519151915  0.41482566656666
 6 -7.69628792579258 -2.60922049894990 -1.11057974297430
 6  6.90230020102010  1.54942388338834 -0.04437692269227
 6 -6.42392508950895 -0.55487374927493 -0.29643856885689
 6  5.55655636963696  1.96988122612261  0.28436540554055
 6 -5.20013855985599 -1.12662973587359 -0.55166204420442
 6  4.40348913491349  1.25077127112711  0.00775869086909
 6 -3.98079937693769 -0.48177040104010 -0.23282609760976
 6  3.13827131813181  1.49896428742874  0.29636375237524
 6 -2.64721017701770 -0.86888696769677 -0.56024437943794
 6  2.86390795779578  2.90747843984398  0.66973463146315
 6 -2.41218998699870 -2.31563505550555 -0.93800502650265
 6  2.09472856185619  0.63927599159916 -0.00165084508451
 6 -1.59457141714171  0.02334022302230 -0.25942989398940
 6  0.69410623962396  0.84262707670767  0.06067739573957
 6 -0.18092796279628 -0.12533013301330 -0.36755772577258
 1  13.19711829182918 -1.17785119521952  1.76153184218422
 1  12.72218571757176 -2.55232844694469  1.62924060806081
 1 -14.27459043204320 -0.49116655855586  1.47707862886289
 1 -14.12489598459846 -0.46278415031503 -0.36008786478648
 1  13.02956396339634 -2.34412371947195 -0.91971252925293
 1 -12.99853028502850  1.57206118821882  1.75196293029303
 1  14.29234382138214  0.17423000090009 -0.54747992899290
 1  13.59284484148415 -0.39593495059506 -2.05566829782978
 1 -13.42036724572457  1.93999906000600 -1.03451619461946
 1 -12.45895186818682  2.90578559865987 -0.01587055105511
 1  10.92007469646965 -1.71913034203420  3.11662635863586
 1  9.56312463946395 -0.97043684268427  2.38694544954495
 1  11.29596333833383 -0.08896776387639  2.68305169116912
 1  10.87980424342434 -3.01027580158016 -0.44599128212821
 1  10.47125612851285 -3.49190783378338  1.10795023502350
 1  9.36873419041904 -2.29530083808381  0.50985770677068
 1 -11.33505519151915 -0.39051154505451  2.55840613761376
 1 -10.96040887988799 -1.73004554845485  1.77760154415442
 1 -12.66944783778378 -1.65113253315332  2.72816339633963
 1 -13.31829227822782 -3.17058575447545  0.68406653765376
 1 -11.83206844184419 -2.83699028792879 -0.33381048304831
 1 -13.12318017701770 -2.15365455735574 -0.81851459345935
 1  8.92515441844185 -0.46701111211121  0.25355247624762
 1 -10.19549431443144 -2.04242130603060 -0.89553335533553
 1  10.68615990799080  1.32865753575358 -1.98453051205120
 1  12.01272710171017  2.17245818871887 -1.16631223922392
 1  12.35042671267127  1.36287714261426 -2.64902759175918
 1 -11.10390479147915  2.42395795989599 -2.09224994599460
 1 -9.76866284428443  1.20023404250425 -1.81840780778078
 1 -10.09620380438044  2.46252890699070 -0.78954211021102
 1  15.03975310331033 -2.84945027212721  0.17536581658166
 1 -15.08838353135313  1.52298959905991  1.59576067206721
 1  10.18732465146515  2.22178908690869  0.01277810281028
 1 -8.61521625762576  0.33630823192319  0.19792916691669
 1  8.88338602560256  4.16327970997100  0.36160200120012
 1  7.29454584158416  4.27112197319732 -0.30110645664566
 1  7.47760702070207  4.00473154115412  1.36096293429343
 1 -7.96705949995000 -3.20515517341734 -0.27378266726673
 1 -8.52975734673467 -2.57637764066407 -2.04702659165917
 1 -6.79712548454845 -3.34575911581158 -1.54807024102410
 1  7.03691954695470  0.47482069706971 -0.25902377737774
 1 -6.55225220122012  0.28493598869887 -0.01450657565757
 1  5.25392309730973  3.02718839083908  0.55301181018102
 1 -5.13950442144214 -2.12298997699770 -1.03934008400840
 1  4.68385157815782  0.25225997199720 -0.51788385638564
 1 -3.97402880688069  0.39715908790879  0.35069635063506
 1  3.59318494649465  3.26562845284528  1.39804304530453
 1  1.82978123912391  2.93887486948695  1.17834243624363
 1  3.08141352135213  3.75746237123712 -0.40873393139314
 1 -2.62988410341034 -3.02183447544754 -0.21909957495750
 1 -2.94110282328233 -2.55452251425143 -2.03815255725573
 1 -1.28411879687969 -2.45812336233623 -1.32191073407341
 1  2.26266762976298 -0.32149543054305 -0.44397060906091
 1 -2.08650327332733  0.95402364636464  0.15900199319932
 1  0.30898119711971  1.79321474847485  0.37592960296030
 1  0.28216000100010 -1.02678284228423 -0.71867354135414

