%nproc=4
%Mem=2GB
# td=(NStates=1) CAM-B3LYP/6-31G(d,p) 

TD

0 1
 8  14.67148267326733 -2.16385931903190 -0.30707763076308
 8 -14.63472853685368  2.00743604870487  1.19437896889689
 6  11.22068441444144 -1.45917846994699  1.12530869186919
 6 -12.30615577957796 -1.13247486538654  0.66188983298330
 6  12.69665323132313 -1.78029732583258  1.11008590059006
 6 -13.60571729072907 -0.24864288418842  0.75192800480048
 6  13.28344638363837 -1.93738606070607 -0.31275482048205
 6 -13.47164645764576  1.17505616671667  1.03926517751775
 6  10.90488981598160 -0.32355998299830  0.16539324632463
 6 -11.25399176317632 -0.18384939183918 -0.16563423942394
 6  13.15037552855286 -0.57173565866587 -0.99744249824983
 6 -12.68164060206021  1.84908791589159 -0.08619797279728
 6  11.75402127112711 -0.01311092819282 -0.91064370737074
 6 -11.51335193019302  1.10880750985098 -0.50654265026503
 6  11.03022406340634 -0.99455489648965  2.57837122112211
 6  10.40210083008301 -2.71570933893389  0.88425181518152
 6 -11.83836564256426 -1.31100079197920  2.15408153915391
 6 -12.66336283128313 -2.51340256215622  0.00201146314631
 6  9.55616085708571  0.25669462246225  0.18677263726373
 6 -10.04785035703570 -0.97734047594759 -0.47149843484348
 6  11.58967484748475  1.11839701360136 -1.91709369936994
 6 -10.61440972897290  1.81581105820582 -1.32660955095510
 6  9.29688359335934  1.61566780978098  0.08127476747675
 6 -8.73275467246725 -0.48238018691869 -0.52557765976598
 6  8.03614271927193  2.24320030303030  0.13997477247725
 6 -7.64144217821782 -1.30542887078708 -0.78398456745675
 6  8.09991177517752  3.71985084008401  0.42406659065907
 6 -7.67083538053805 -2.77416699359936 -1.19131781678168
 6  6.87262723372337  1.57604654565457  0.03689120412041
 6 -6.50645334233423 -0.68301656355636 -0.70069899489949
 6  5.53771448544854  2.10677491549155  0.20493746274627
 6 -5.08331687768777 -1.21724879777978 -0.78044492249225
 6  4.40620940694069  1.30943713771377 -0.08518060306031
 6 -3.95193649064906 -0.34149637363736 -0.59825264026403
 6  3.10773826482648  1.80524491549155  0.09008312431243
 6 -2.59587504350435 -0.81121120012001 -0.58783713871387
 6  2.89928149514951  3.25922361436144  0.63152081008101
 6 -2.19481824982498 -2.21012450445045 -1.06606783278328
 6  2.09638872787279  0.96689875387539 -0.22999367936794
 6 -1.62940490049005  0.20630851985199 -0.33619757075708
 6  0.68536536553655  1.03211602560256 -0.04825349734973
 6 -0.24890476047605  0.02537493749375 -0.34963593359336
 1  13.24012259225923 -0.96213962406241  1.51547723672367
 1  12.91388488748875 -2.70366358045805  1.65672335633563
 1 -14.23371634463446 -0.94447188908891  1.34894581558156
 1 -14.10655415041504 -0.37443531543154 -0.16953880988099
 1  12.62196320332033 -2.51843115021502 -1.08415897389739
 1 -12.91933236523652  1.49228321042104  2.20864859885989
 1  13.81563615061506  0.04771734963496 -0.36968214921492
 1  13.80043560056006 -0.41876723382338 -1.96768949994999
 1 -13.44692990199020  1.95108016811681 -0.91204394739474
 1 -12.36749272227223  2.96896191629163  0.31891292729273
 1  11.18495118411841 -1.60453888288829  3.26626132213221
 1  10.00457878487849 -0.66446624562456  2.75899265426543
 1  11.72279602160216 -0.12290115721572  2.73719710571057
 1  10.48572483548355 -3.15434020802080 -0.12526920992099
 1  10.76923592649265 -3.45319396239624  1.71222066206621
 1  9.22270958795880 -2.62460376837684  0.78011473247325
 1 -11.38670035603560 -0.44756725062506  2.61716201320132
 1 -11.03584642364237 -2.24059660356036  1.89424320832083
 1 -12.80869176217622 -1.71535895579558  2.51441202120212
 1 -13.56300674967497 -2.96176487238724  0.73654178517852
 1 -11.92533776877688 -3.17084367326733 -0.04219132113211
 1 -12.96887474647465 -2.28215740764076 -1.09459220122012
 1  8.87829973297330 -0.53323773477348  1.02765988698870
 1 -10.17930269526953 -2.12208927282728 -0.42053585558556
 1  10.49599089108911  1.22875754575458 -2.24168622762276
 1  11.66772260126013  2.24029497239724 -1.49176478447845
 1  12.08985065506551  0.97704855975598 -2.93950663966397
 1 -11.23015741674167  2.42838840294029 -1.94317503850385
 1 -9.78564454245424  1.18723274237424 -1.80882684968497
 1 -9.84281846584658  2.56856951105111 -0.95278843484348
 1  14.62388151615161 -3.08256358345835 -0.02927464746475
 1 -15.25710040304030  1.70446774687469  1.85617671367137
 1  10.07028294729473  2.19635654365437 -0.26137931293129
 1 -8.47693242924292  0.49710431153115 -0.23311393739374
 1  9.03907159415941  4.05046842884288  0.26177201820182
 1  7.37960434743474  4.21774663566357 -0.22881922792279
 1  7.96246550655065  4.03432450045005  1.46665350335034
 1 -8.46070886488649 -3.37037169506951 -0.58811410041004
 1 -8.09369374037404 -2.85295529842984 -2.28584047304730
 1 -6.77067283928393 -3.13254779467947 -1.28191362536254
 1  6.85321117611761  0.42001521652165 -0.14857273227323
 1 -6.55186216221622  0.33737123222322 -0.38322344734473
 1  5.47174487948795  3.07089276127613  0.65765227422742
 1 -4.84697516851685 -2.26362404040404 -1.08172432243224
 1  4.51623481648165  0.18207295329533 -0.27465953395339
 1 -4.16894829882988  0.62219159115912 -0.14927364636464
 1  3.74985061306131  3.42096398639864  1.38610185118512
 1  1.68505676667667  3.27242822482248  0.92713731573157
 1  3.33477885788579  3.85140176517652 -0.22319537753775
 1 -2.73351446644664 -2.79929222122212 -0.44516218121812
 1 -2.65245395839584 -2.16664372637264 -2.13108185018502
 1 -1.23863424842484 -2.30299784978498 -0.95342388538854
 1  2.64422578557856 -0.01698497949795 -0.59243545554555
 1 -1.98583320632063  1.13432167616762 -0.07334124112411
 1  0.50080037903790  2.11460688768877  0.10278228822882
 1  0.18335012001200 -0.90281044504450 -0.57091876587659

