%nproc=4
%Mem=2GB
# td=(NStates=1) CAM-B3LYP/6-31G(d,p) 

TD

0 1
 8  14.49676520152015 -2.43901683478348 -0.19137606060606
 8 -14.78224328832883  1.86273157825783  1.14393392439244
 6  11.09508185418542 -1.36328888098810  1.12414857585759
 6 -12.22312747674767 -1.00946256415642  0.73726737073707
 6  12.62279584558456 -1.85260455655566  1.13054794679468
 6 -13.62411913091309 -0.31305932583258  0.83942675467547
 6  13.18951699069907 -2.02511483358336 -0.20536408140814
 6 -13.50990028302830  1.21793045414541  1.12350360136014
 6  10.96031535853585 -0.23589121612161  0.05269197619762
 6 -11.26695305930593 -0.29625063196320 -0.17490516651665
 6  13.14138462946295 -0.69953843894389 -0.88019077307731
 6 -12.63550598859886  1.78764177127713  0.00693134013401
 6  11.89531540054005 -0.01073069016902 -0.86416905990599
 6 -11.47796839183918  0.97464409350935 -0.44186618261826
 6  10.76057709870987 -1.09277471847185  2.55610899489949
 6  10.16531715171517 -2.59875764376438  0.64785817581758
 6 -11.59402120812081 -1.23542323422342  2.01878800980098
 6 -12.45353184818482 -2.47043826572657  0.21013227522752
 6  9.63778901990199  0.46106505950595  0.26711067106711
 6 -9.98223379537954 -1.00958370027003 -0.44960624562456
 6  11.75388126812681  1.20724589848985 -1.83325531553155
 6 -10.65169345734573  1.86900637773777 -1.42567945794579
 6  9.29366327132713  1.89052529552955  0.01535817581758
 6 -8.75159655665566 -0.44456640554055 -0.51630673267327
 6  8.01004010901090  2.42017800080008  0.14472524752475
 6 -7.52630066406641 -1.20544887278728 -0.71036720572057
 6  7.98484026802680  3.85324417941794  0.64021820582058
 6 -7.68895719271927 -2.64720429732973 -1.14993367836784
 6  6.90716068706871  1.70120906190619  0.01352886788679
 6 -6.29634233123312 -0.65149341124112 -0.47491641664166
 6  5.51314202820282  2.15482972097210  0.18407537653765
 6 -5.01462000800080 -1.07861493439344 -0.74629150715072
 6  4.42984177017702  1.25667186118612  0.00363827882788
 6 -3.96600789778978 -0.35011723572357 -0.53004581958196
 6  3.14913240424042  1.69129352035204 -0.00418630263026
 6 -2.55802125812581 -0.74778485748575 -0.80906926192619
 6  2.76122768976898  3.03648134013401  0.49900755875588
 6 -2.26252502050205 -2.23953744574457 -1.13424465046505
 6  2.08290737973797  0.81433349734973 -0.36224690469047
 6 -1.52059401940194  0.19187707670767 -0.49429338033803
 6  0.77703453245325  0.96836965096510 -0.24823349534953
 6 -0.19179904990499 -0.09777737773777 -0.57017798779878
 1  13.26931551155115 -1.28017142724272  1.75666135513551
 1  12.42829632863286 -2.72861607570757  1.77519520352035
 1 -14.40455342834283 -0.64716215811581  1.48365928692869
 1 -14.01290478547855 -0.50975884778478 -0.13736559255926
 1  12.31648265526553 -2.77705701280128 -0.88615917391739
 1 -13.21189162116212  1.57590157225723  2.08743647764776
 1  14.01670625762576  0.00575315321532 -0.30676585758576
 1  13.58502405940594 -0.87981333843384 -1.79469220022002
 1 -13.28956416541654  1.93735879597960 -0.68755149814981
 1 -12.29597557055706  2.72409742984298  0.27557859385939
 1  11.11420410941094 -2.06274470347035  3.10399509550955
 1  9.70309863686369 -0.92323212221222  2.64515127012701
 1  11.27953169516952 -0.19404827192719  3.13883726972697
 1  10.34457072007201 -2.71746652065207 -0.39973665666567
 1  10.04133313621362 -3.44159280228023  1.31896133613361
 1  9.05631294829483 -2.32724403240324  0.72849957095710
 1 -11.45339702570257 -0.36779927382738  2.66335663266327
 1 -10.48727156615662 -1.73608615251525  1.90907469146915
 1 -12.33848474147415 -1.83887130703070  2.74453503350335
 1 -13.15419586858686 -3.08466716261626  0.80439857085709
 1 -11.61819705470547 -3.19963655255526  0.16447934593459
 1 -12.70515837483748 -2.41293048494849 -0.86544928692869
 1  8.86034793779378 -0.11666607760776  0.58704582558256
 1 -10.05150991599160 -2.03620068396840 -0.60692449444944
 1  10.65720701270127  0.81414608460846 -2.08213027202720
 1  11.99732556155615  2.06912785568557 -1.30172578057806
 1  12.62061373137314  1.15407626252625 -2.61079376837684
 1 -11.12824722572257  2.68247381148115 -2.10963168416842
 1 -10.22805878387839  1.24891891099110 -2.16638260526053
 1 -9.78972315631563  2.38498115221522 -0.93068622462246
 1  14.79453858185819 -3.39528485558556  0.07612589258926
 1 -15.32616730973097  1.40581788188819  1.72696379237924
 1  9.91758767776778  2.56688359635964 -0.19041221622162
 1 -8.52018675467547  0.62427702880288 -0.41066169216922
 1  8.94595228222822  4.33010639263926  0.67763360436044
 1  7.11697808480848  4.25866072707271 -0.08588493449345
 1  7.54788404840484  3.99317038503850  1.57393423142314
 1 -8.31131392539254 -3.01109576747675 -0.24550983998400
 1 -8.31047541854185 -2.78834883778378 -2.00729261826183
 1 -6.74805057705771 -3.30234477437744 -1.29028446244624
 1  6.95289114411441  0.72585580058006 -0.33930180518052
 1 -6.38429540554055  0.48393588868887 -0.31181630663066
 1  5.15760346534654  3.03383905590559  0.62810931993199
 1 -4.87211768276828 -1.92548022602260 -1.04209035903590
 1  4.67997119011901  0.28164291029103 -0.37691975997600
 1 -4.14250565456546  0.86206557855786 -0.31790050905091
 1  2.91401702970297  3.01752364236424  1.66864010501050
 1  1.70046830783078  3.29148013001300  0.34329893189319
 1  3.23841922192219  3.90381700670067 -0.00338339633963
 1 -3.07665878087809 -2.98770106210621 -0.72820048504850
 1 -2.43533224622462 -2.31296835883588 -2.37367610961096
 1 -1.17930831583158 -2.21785933593359 -1.21555009800980
 1  2.55301666466647 -0.21426470747075 -0.79432564456446
 1 -1.89996461946195  1.18546679067907 -0.21484539153915
 1  0.46402670167017  2.01398682568257  0.19845185518552
 1  0.16358814381438 -0.91862202620262 -1.07654932893289

