%nproc=4
%Mem=2GB
# td=(NStates=1) CAM-B3LYP/6-31G(d,p) 

TD

0 1
 8  14.69887541254126 -2.28436136923692 -0.13499042204220
 8 -14.69492455645564  1.83340864596460  1.20387991899190
 6  11.25831817781778 -1.40487303940394  0.99515567656766
 6 -12.36528169216922 -1.11533315121512  0.64252789678968
 6  12.76494006000600 -1.77313660976098  1.21232612461246
 6 -13.67815453445345 -0.36240426032603  0.76549936193619
 6  13.37897593659366 -1.99801212331233 -0.17781132613261
 6 -13.52542183518352  1.16196485758576  1.06936818781878
 6  10.93345267226723 -0.33144077107711  0.09706641364136
 6 -11.29860622462246 -0.26629763666367 -0.18874655065507
 6  13.25861635263526 -0.58581706680668 -0.84888764276428
 6 -12.72977541554155  1.81130413751375 -0.02469182218222
 6  11.89077494649465  0.12047243014301 -0.90196283928393
 6 -11.56461705670567  1.05352198129813 -0.52812480848085
 6  10.90853189418942 -1.01952739373937  2.49030241424142
 6  10.39392001200120 -2.60301806980698  0.61035442544254
 6 -11.88636044204420 -1.37370706260626  2.14966109710971
 6 -12.57325382038204 -2.45097631953195 -0.12186092409241
 6  9.65821106210621  0.34275322832283  0.17177113711371
 6 -10.04379995199520 -1.03312605450545 -0.43231451645164
 6  11.66039191919192  1.22559773367337 -1.81497348734873
 6 -10.68784707270727  1.86240571767177 -1.47989487948795
 6  9.42021592659266  1.72318856185619  0.07416405640564
 6 -8.83557495449545 -0.43860580948095 -0.31624672667267
 6  8.02116122112211  2.21704768776878  0.11487226222622
 6 -7.63921195519552 -1.14641296919692 -0.70270643964396
 6  7.92633441744174  3.61452030703070  0.54746893089309
 6 -7.74478277527753 -2.56825640254025 -1.05486417141714
 6  6.92125209620962  1.48607754875488 -0.07796028102810
 6 -6.39251194819482 -0.53946220812081 -0.51856078107811
 6  5.55761647564756  1.90673491149115  0.05761273027303
 6 -5.08357690369037 -1.00970804370437 -0.76188306630663
 6  4.46167495349535  1.16552274627463 -0.09794187918792
 6 -3.91135243224322 -0.23608583258326 -0.44901771677168
 6  3.07470496149615  1.64151854285429  0.02703681968197
 6 -2.57673312931293 -0.67844792379238 -0.62895125012501
 6  2.81685325232523  3.06400409240924  0.47029468746875
 6 -2.29824859285929 -2.06119961196120 -1.03822504850485
 6  2.13233232223222  0.67364942894289 -0.19484016401640
 6 -1.64457641764176  0.33408129712971 -0.40444439543954
 6  0.71887871687169  1.00899371337134 -0.15204387638764
 6 -0.22285215521552  0.01284368436844 -0.43128409840984
 1  13.43423200320032 -0.57732114221422  1.49355504450445
 1  12.93095659465947 -2.57562077617762  1.92449013301330
 1 -14.33231620462046 -0.71918936083608  1.51671259225923
 1 -14.18127162216222 -0.36780465236524 -0.19417127312731
 1  12.78395940294029 -2.85062436953695 -0.80462102010201
 1 -13.06706713871387  1.31938592069207  1.99755748974898
 1  13.82918750575057  0.11757433533353 -0.29777495849585
 1  13.72264782178218 -0.71932728982898 -1.85356808780878
 1 -13.53932914191419  1.91045610571057 -0.81656439943994
 1 -12.36844281728173  3.00126514661466  0.11989302530253
 1  10.87126981598160 -1.90705913491349  3.07426212221222
 1  9.84940326732673 -0.44244404340434  2.64377113211321
 1  11.74775851785178 -0.42030089718972  2.96544993099310
 1  10.62932919591959 -2.97491226522652 -0.34194087708771
 1  10.48716771967197 -3.31157980098010  1.33928336833683
 1  9.32357967496750 -2.15949725772577  0.50059678067807
 1 -11.78650033603360 -0.43774626852685  2.61118141514151
 1 -10.85550838983898 -1.80348289218922  2.04683846784679
 1 -12.49974086708671 -1.93574099399940  2.66522710271027
 1 -13.28387883688369 -3.20922961886189  0.49634776577658
 1 -11.52207744274428 -2.98260484938494  0.00853375137514
 1 -12.93108096709671 -2.39866905880588 -1.08966170817082
 1  8.92968487148715 -0.45692010301030  0.33550067106711
 1 -10.13986875187519 -1.91136820072007 -1.08783258525853
 1  10.65648694069407  1.35723039303930 -2.11029308830883
 1  11.92683851285129  2.19303024592459 -1.67219282728273
 1  12.14725639563956  0.91917277217722 -2.65885857485749
 1 -11.51354575557556  2.47794335843584 -2.15393611461146
 1 -10.18603458145814  1.12372639173917 -2.07091305830583
 1 -9.89374355835584  2.56698935303530 -1.03314647064706
 1  14.79726885488549 -3.05926125322532  0.55815409540954
 1 -15.15639033203320  1.28700600070007  1.94531562756276
 1  10.36298221722172  2.38532544054405 -0.06387956295630
 1 -8.68734347034703  0.63110771187119 -0.23538416441644
 1  9.08045573257326  4.22387576957696  0.36725256625663
 1  7.10718710571057  4.35818067906791  0.02813646764676
 1  7.73483274327433  3.83856492449245  1.66845368336834
 1 -8.43423621762176 -3.00264492239224 -0.29283457245725
 1 -8.14208857985798 -2.50084008690869 -2.24372626162616
 1 -6.82968874087409 -3.06613115301530 -1.02466790079008
 1  7.02563841884188  0.56365958095810 -0.55660353535354
 1 -6.39562653865387  0.43687118221822 -0.26042116711671
 1  5.37200490549055  2.99011468346835  0.17042355135514
 1 -4.71565203620362 -1.86295397339734 -0.94469061906191
 1  4.40631382438244  0.18181292729273 -0.51214328232823
 1 -4.17159856385639  0.85121449344935 -0.29205792479248
 1  3.47792342034203  3.53219510951095  1.37233047404740
 1  1.96156441744174  3.54095507750775  0.59163376537654
 1  3.21548692869287  3.78764538953895 -0.34030708870887
 1 -2.54783589858986 -2.82871516351635 -0.32687035203520
 1 -2.85530424342434 -2.31285834783478 -2.05417415941594
 1 -1.27716810181018 -2.38382593259326 -1.37322586558656
 1  2.45564692769277 -0.29251253225323 -0.56917312931293
 1 -1.71257588058806  1.37013525752575 -0.23847775477548
 1  0.35118541754175  2.01825725272527  0.07694970497050
 1 -0.05261347634763 -0.86281644564456 -0.54527620162016

