%nproc=4
%Mem=2GB
# td=(NStates=1) CAM-B3LYP/6-31G(d,p) 

TD

0 1
 8  14.64395992099210 -2.23442637573757 -0.22398932193219
 8 -14.65677074107411  1.89450475557556  1.10665019601960
 6  11.06121846784678 -1.55719827192719  0.92291845284528
 6 -12.23381854585458 -1.01277289518952  0.50587423142314
 6  12.49190275627563 -1.94526382248225  0.96253114511451
 6 -13.64681140014001 -0.25855387528753  0.55713852585259
 6  13.16798483748375 -1.93518584068407 -0.34223776877688
 6 -13.43558285128513  1.19812847394739  0.90929218021802
 6  10.85477480448045 -0.30915854285429 -0.01616490949095
 6 -11.26538290229023 -0.22074308120812 -0.29538721472147
 6  13.30592108310831 -0.58063654875488 -0.92214496849685
 6 -12.68755119311931  1.90272327942794 -0.06911626462646
 6  11.88810467946795  0.15713609650965 -0.91513415641564
 6 -11.42075267026703  1.10286691579158 -0.67777977397740
 6  10.61804284528453 -1.16250169116912  2.42509589358936
 6  10.19236985698570 -2.72254002200220  0.43079646964696
 6 -11.81459326532653 -1.41067075897590  1.94820095109511
 6 -12.59002549754975 -2.34283550545055 -0.23112185018502
 6  9.65935117611761  0.39247820082008  0.16454041404140
 6 -9.98612418441844 -1.00297303920392 -0.50485177017702
 6  11.90212609260926  1.35866104000400 -1.67490948094809
 6 -10.48760704870487  1.87823730083008 -1.45258214821482
 6  9.29514341934193  1.74624086708671  0.12969960996100
 6 -8.71754315131513 -0.56739868876888 -0.37581268326833
 6  8.02594169916992  2.34950093309331  0.15876665166517
 6 -7.52470050405041 -1.28820714861486 -0.47037320632063
 6  7.97087887188719  3.81505036003600  0.37716190019002
 6 -7.53013131013101 -2.71822139903990 -0.98791747674767
 6  6.80010998199820  1.52310125112511  0.16568408340834
 6 -6.34890758775878 -0.65894415631563 -0.28433735873587
 6  5.55398611261126  2.16106034403440  0.12351932093209
 6 -4.99185773177318 -1.17441451435144 -0.44888176617662
 6  4.40735952195219  1.32622881688169 -0.05073715871587
 6 -3.95912720972097 -0.34460668466847 -0.19727254225423
 6  3.08876636763676  1.78704309530953 -0.02643852785279
 6 -2.57375283128313 -0.79525960496050 -0.36583493849385
 6  2.74565613261326  3.12831052305231  0.26891454945495
 6 -2.37677644564456 -2.32378587058706 -0.57813903990399
 6  2.10757984698470  0.80195225922592 -0.12099277927793
 6 -1.56836879687969  0.15410329932993 -0.18537248824882
 6  0.71450827982798  1.02829564356436 -0.16548522052205
 6 -0.15776564656466 -0.05819341934193 -0.35183615361536
 1  13.06878545854585 -0.94187759785979  1.37379306830683
 1  12.51929542854285 -2.82579579367937  1.76940462446245
 1 -14.48441141414141 -0.69358680058006  1.19143006400640
 1 -13.90598409340934 -0.25295316721672 -0.59660151615162
 1  12.68367937493749 -2.63572287938794 -1.16188674667467
 1 -12.72252268426843  1.13566754885488  1.68871660566057
 1  14.05906049304931  0.18754133203320 -0.61526670767077
 1  13.66079163616362 -0.70500585768577 -2.02010474147415
 1 -13.23335854485448  2.06510157025703 -0.95906864986499
 1 -12.31381735473547  2.83565858595860  0.55194623062306
 1  10.81674436343634 -1.94250267926793  3.29676437243724
 1  9.64241256825682 -0.97866766576658  2.35704245924593
 1  10.98531227322732 -0.27388625572557  2.64243762976298
 1  10.71790805380538 -3.14752952695270 -0.44378106110611
 1  10.08018702160216 -3.51733037603760  1.23683312331233
 1  9.07225454245425 -2.45481678967897  0.19243596459646
 1 -11.53940562656266 -0.58895138903890  2.50631092809281
 1 -10.92665550455045 -1.83403594749475  1.88341212521252
 1 -12.57334822782278 -2.06899431933193  2.36368694869487
 1 -13.44252470147015 -2.74357305320532  0.31395952695270
 1 -11.66953218821882 -3.10264685358536 -0.30487758975898
 1 -12.81825968496850 -2.13387257915792 -1.27778052005200
 1  8.83788569156916 -0.22407681868187  0.46695381638164
 1 -10.31770653565357 -2.00379744364436 -0.83719752175217
 1  10.84808610061006  1.70278494849485 -1.80957301630163
 1  12.35350117911791  2.12376331923192 -1.10320592859286
 1  12.50899256925693  1.30307116201620 -2.64722741174117
 1 -10.99085348634863  2.46602216631663 -2.11984270527053
 1 -9.65350132813281  1.24627864696470 -1.91450741774177
 1 -10.10049423342334  2.65330798489849 -0.79106226222622
 1  14.52817194519452 -3.51789711681168 -0.47101882188219
 1 -14.96885157815781  1.37797509760976  1.98260935693569
 1  10.25443136213621  2.44833174117412  0.16202302730273
 1 -8.48984372037204  0.55434003510351 -0.04616524252425
 1  8.99179686668667  4.35177855985599  0.72388822982298
 1  7.69904629162916  4.16730159115912 -0.53525987198720
 1  7.29799905990599  4.00534160216022  1.16029286728673
 1 -8.45776857085709 -3.26852151005100 -0.31768705770577
 1 -8.17326169716972 -2.69789979287929 -1.95795768476848
 1 -6.63810958295830 -3.22384692459246 -0.75740117411741
 1  7.01013686868687  0.43144635963596 -0.06008388338834
 1 -6.36797377337734  0.48652614771477 -0.22158728372837
 1  5.33726143114311  3.23057872987299  0.34356086508651
 1 -5.04308477947795 -2.20255793379338 -0.75382153215321
 1  4.47484067706771  0.22152689868987 -0.16185825382538
 1 -4.21654305830583  0.68087745974597 -0.31215993499350
 1  2.91869749774978  3.56809869986999  1.43735697669767
 1  1.72319058005801  3.32596357835784  0.09822442444244
 1  3.32261764176418  3.78477510251025 -0.31320437843784
 1 -2.91533264826483 -3.02428472047205  0.02441477647765
 1 -3.22218093109311 -2.49402646464646 -1.50364910691069
 1 -1.27234761976198 -2.48951650165016 -0.68823736673667
 1  2.49623098609861 -0.20544382538254 -0.39681589358936
 1 -1.83777840084008  1.03096134013401  0.27410350335034
 1  0.36725702470247  2.04640006700670  0.02329433943394
 1  0.13578536353635 -1.13084324832483 -0.73117479147915

