%nproc=4
%Mem=2GB
# td=(NStates=1) CAM-B3LYP/6-31G(d,p) 

TD

0 1
 8  14.58029355435544 -2.41102403550355 -0.20959788278828
 8 -14.75260032403240  1.75669097419742  1.05999553055306
 6  10.96636898289829 -1.58883143524352  0.99000516151615
 6 -12.34263942794279 -1.23109472737274  0.54670831483148
 6  12.42910647664766 -2.16233552965297  1.05408030003000
 6 -13.69737645664566 -0.51338935883588  0.54073688568857
 6  13.18275631463146 -2.04464678677868 -0.30527407240724
 6 -13.62909220222022  1.02449111021102  0.97602885388539
 6  10.90388971597160 -0.26818444544454  0.13831053805381
 6 -11.23261962596260 -0.27714872177218 -0.20925860186019
 6  13.23603409440944 -0.62408089318932 -0.67939069306931
 6 -12.82348478647865  1.75006801390139 -0.13662301530153
 6  11.82981885088509  0.02172255515552 -0.71568421142114
 6 -11.47565816081608  1.01897852695270 -0.50893288928893
 6  10.53453449444944 -1.31169661066107  2.49637302130213
 6  10.02868348834883 -2.78051581958196  0.49876326632663
 6 -11.83908571457146 -1.34457414931493  2.07197332833283
 6 -12.55270176517652 -2.56374759665967 -0.15364410241024
 6  9.65037027802780  0.39997895089509  0.14190815081508
 6 -10.02040761276128 -1.01515425732573 -0.46171745674567
 6  11.73270915091509  1.10025519941994 -1.78210020002000
 6 -10.65231351935193  1.86594607170717 -1.31053794379438
 6  9.40679458445845  1.72446868986899  0.00517715771577
 6 -8.79791118811881 -0.53008495739574 -0.31053615561556
 6  8.12191129612961  2.40247623062306  0.06104687968797
 6 -7.46285431943194 -1.17122545044504 -0.47883405240524
 6  8.12792457645765  3.88986784178418  0.30843502750275
 6 -7.51929022602260 -2.64205378227823 -0.98384706970697
 6  6.91084105510551  1.73523246424642 -0.09211169616962
 6 -6.37451014801480 -0.57745600750075 -0.35999492449245
 6  5.67021773577358  2.25777001500150  0.01005797479748
 6 -4.99425797179718 -1.06612368526853 -0.42233911191119
 6  4.50914970097010  1.52202839683968 -0.16509859485949
 6 -3.84854615161516 -0.24684690869087 -0.30463327832783
 6  3.22812030303030  1.87939233023302 -0.04050993499350
 6 -2.52139759575958 -0.63115319431943 -0.46055441044104
 6  2.85501706870687  3.28669636163616  0.47348500650065
 6 -2.21487025502550 -2.05410890289029 -0.92665389138914
 6  2.15195428442844  1.05157722172217 -0.34485516551655
 6 -1.48573053305331  0.36750463946395 -0.37353130413041
 6  0.76290311931193  1.12655546954695 -0.09737840984098
 6 -0.04787465746575  0.14246664666467 -0.40286125612561
 1  13.01578015801580 -1.31567497759776  1.61777746674667
 1  12.43570706970697 -3.01417463156316  1.49154683868387
 1 -14.40317329032903 -1.02480992289229  1.29118003900390
 1 -14.01093458845884 -0.46254412631263 -0.33172502850285
 1  12.59167017401740 -2.61268057515752 -1.05618617661766
 1 -13.06951738373837  1.03797777987799  1.72999073307331
 1  13.77543213021302  0.01766434433443 -0.14822000300030
 1  13.68401395839584 -0.40468582568257 -1.65083781478148
 1 -13.29766497549755  2.05291035113511 -1.18657140014001
 1 -12.41937791079108  2.66382140224022  0.59928096409641
 1  10.60240292929293 -2.32336076507651  2.96721141714171
 1  9.44363269026903 -1.09548934793479  2.63540029502950
 1  11.20664440644064 -0.50225909300930  2.90722410841084
 1  10.52578884188419 -2.97475224922492 -0.43198988198820
 1  10.05808481138114 -3.67916655965597  1.03735317531753
 1  9.00124744174417 -2.42614392239224  0.37449417041704
 1 -11.52304399039904 -0.55339783368337  2.51427172417242
 1 -10.98391123012301 -1.86241878577858  1.98145192919292
 1 -12.60493138613861 -1.75336275617562  2.65101568156816
 1 -13.33137358635864 -3.30747944384438  0.33829196019602
 1 -11.78450368536854 -3.28458504740474 -0.02419952195219
 1 -12.70328818781878 -2.42700189208921 -1.25292803480348
 1  8.76818872187219 -0.27946235723572  0.47598471947195
 1 -10.09844460946095 -2.04418148204820 -0.61075487748775
 1  10.76617790979098  1.37190186018602 -1.91271333033303
 1  12.33528935793579  2.05820676357636 -1.38816442444244
 1  12.22728439843984  0.68186904180418 -2.52357504650465
 1 -11.18399280028003  2.71567713181318 -1.84716543754375
 1 -9.75150112811281  1.34938895799580 -1.71372733973397
 1 -9.98739292329233  2.48670132423242 -0.66176933293329
 1  14.49566869486949 -3.42961828892889  0.15842412241224
 1 -15.11513620662066  1.22238953905390  1.78235933193319
 1  10.22530844984499  2.41699860786079 -0.10792396739674
 1 -8.77554229022902  0.50681528262826  0.07606698069807
 1  9.23137082408241  4.30590397239724  0.52547838883888
 1  7.85954234123412  4.40402526352635 -0.66238258425843
 1  7.44773403340334  4.20224129212921  1.24229106710671
 1 -7.98409120312031 -3.28486314421442 -0.36099138813881
 1 -8.13432780378038 -2.78341834473447 -1.83190507950795
 1 -6.54064983698370 -2.85538007790779 -1.22056749074907
 1  6.99017487248725  0.57083029802980 -0.30930880588059
 1 -6.27433440944094  0.48340583568357  0.00650552555256
 1  5.62442014701470  2.98881455345535  0.57384389338934
 1 -4.81573204420442 -2.07270494849485 -0.73408955895590
 1  4.68102129512951  0.32993773977398 -0.45631769976998
 1 -3.92224362836284  0.78969834183418 -0.12501122012201
 1  3.25748137613761  3.49339122912291  1.56618985998600
 1  1.81123938493849  3.46278726072607  0.51939654165417
 1  3.31088646864686  4.13579020402040 -0.11596465446545
 1 -2.59351046604660 -2.84931722372237 -0.17410507550755
 1 -2.88278699169917 -2.20303736573657 -1.78082682468247
 1 -1.12978336333633 -2.36751430143014 -1.25005354835483
 1  2.32303366636664 -0.05311859285929 -0.50085629762976
 1 -1.88707333033303  1.44855309930993 -0.14007791479148
 1  0.36689698869887  2.21081650865086  0.04329633963396
 1  0.32430421542154 -1.01094125812581 -0.51999367336734

