%nproc=4
%Mem=2GB
# td=(NStates=1) CAM-B3LYP/6-31G(d,p) 

TD

0 1
 8  14.65611113611361 -2.36573950705071 -0.36584350735073
 8 -14.77252231623162  1.92505781088109  1.01674120512051
 6  11.16132847884788 -1.46443899599960  1.06043220422042
 6 -12.28010317431743 -0.94010562846285  0.67982162616262
 6  12.70214378037804 -1.92661195729573  0.97480237223722
 6 -13.64032075107511 -0.27793581348135  0.72118493049305
 6  13.36571461046105 -1.83811613371337 -0.43252679767977
 6 -13.56959625262526  1.22485114621462  0.91092234323432
 6  10.95989531653165 -0.15293292029203  0.21510821782178
 6 -11.19633599759976 -0.25190619751975 -0.16611428742874
 6  13.21070156115612 -0.42803128822882 -0.96418917291729
 6 -12.67634007200720  1.79737274437444 -0.18329768276828
 6  11.85709157815782  0.19886026892689 -0.76529917291729
 6 -11.47414800980098  0.98285491459146 -0.56701869786979
 6  10.73699474047405 -1.25522096309631  2.52331571557156
 6  10.20099071907191 -2.65231299929993  0.27964135413541
 6 -11.69875168116812 -1.10781047294729  2.06688281928193
 6 -12.62465896089609 -2.44138536043604  0.11169243124312
 6  9.63231847284728  0.43572252525253  0.31919587958796
 6 -9.99023459545955 -0.92918566046605 -0.37436872187219
 6  11.64824070407041  1.30388556245625 -1.81844383438344
 6 -10.58630691869187  1.76587606470647 -1.55556244624462
 6  9.35173907890789  1.80164640764076  0.17989462946295
 6 -8.75882727972797 -0.42620456935694 -0.52269737173717
 6  8.02226133113311  2.39316529952995  0.30069084408441
 6 -7.58591662566257 -1.19407773567357 -0.80446661566157
 6  7.89870165416542  3.75357421242124  0.65147933193319
 6 -7.71248954595460 -2.72734231113111 -0.90315900090009
 6  6.83468343934393  1.57612655365537  0.02766028102810
 6 -6.37344004100410 -0.54236249814981 -0.66823574857486
 6  5.54166488048805  2.06526076407641  0.12518948794879
 6 -5.07080562656266 -1.03803087598760 -0.67803468146815
 6  4.44142292829283  1.25471166516652 -0.19029111411141
 6 -3.91325262226223 -0.29990221422142 -0.35209802480248
 6  3.09438692969297  1.62377676867687  0.04198831483148
 6 -2.56227168316832 -0.88194827382738 -0.52679103410341
 6  2.81726329332933  3.10209790179018  0.30815847384738
 6 -2.33115188318832 -2.24603809580958 -0.78360958695870
 6  2.15208429742974  0.61904396839684 -0.12555323532353
 6 -1.46873883388339  0.01808969796980 -0.32293624462446
 6  0.80431726072607  0.87011982598260 -0.05179385138514
 6 -0.17615748574857 -0.17308490849085 -0.30225119511951
 1  13.44748332833283 -1.20257366746675  1.68726441544154
 1  12.58881238023802 -2.79348256235624  1.70004768876888
 1 -13.99138211121112 -0.68552599449945  1.59751067206721
 1 -14.07442093709371 -0.29801767366737 -0.11171302730273
 1  12.82301330833083 -2.53558286538654 -1.03236379437944
 1 -12.98644907690769  1.41292527462746  1.90648838283828
 1  14.07242182918292  0.07941051895190 -0.47985316631663
 1  13.38682423942394 -0.48904426152615 -2.10567329832983
 1 -13.34085929492949  2.10132519261926 -1.12655539853985
 1 -12.21335730873087  2.82919793989399  0.20181121712171
 1  10.75849853885389 -2.11553998299830  3.25532022802280
 1  9.58094642164216 -0.85235503450345  2.52959971497150
 1  11.38239198119812 -0.46073494059406  2.88806219221922
 1  10.32884914791479 -2.79732450645065 -0.93162984598460
 1  10.71669067196720 -3.62206084908491  0.91554099409941
 1  9.13238055505551 -2.53985529352935  0.67057377837784
 1 -11.61218290429043 -0.24255674957496  2.66486678367837
 1 -10.66089892889289 -1.53769631353135  2.16922070607061
 1 -12.32505339833983 -1.84753217311731  2.58201878187819
 1 -13.62065251425143 -2.76785548144814  0.70655878687869
 1 -11.72584781978198 -3.06325291419142  0.46067896589659
 1 -12.69322718171817 -2.54050324222422 -0.95418816081608
 1  8.90522242524253 -0.19081349234923  0.74182130313031
 1 -10.36281104610461 -2.03469053295329 -0.31825562756276
 1  10.65528682068207  1.40886555655566 -2.04220627962796
 1  12.11130695969597  2.44304524742474 -1.39783539153915
 1  12.22309397939794  1.23129398429843 -2.77356004500450
 1 -11.11350575157516  2.47016258035804 -2.36504722572257
 1 -9.97705368336834  0.96211023012301 -1.99581554855486
 1 -9.96158034203420  2.42190484458446 -0.94838799479948
 1  14.59589871787179 -3.24184951205121  0.19632791279128
 1 -15.27985267826783  1.34742204230423  1.61042213821382
 1  10.15292121112111  2.54446135413541  0.17007383238324
 1 -8.59329406540654  0.58416301740174 -0.35041566756676
 1  8.73426111311131  4.42681606360636  0.42520836183618
 1  6.98781516851685  4.30623548454845  0.04951860586059
 1  7.51499075907591  3.82231329932993  1.86093293129313
 1 -8.28689148314831 -3.20175483338334 -0.16288157715772
 1 -8.58335270627063 -3.00638064096410 -1.74097598659866
 1 -6.57042281428143 -3.10494503440344 -1.18032346634663
 1  6.95369122412241  0.48839205420542 -0.17198507350735
 1 -6.63798077407741  0.56344383948395 -0.38773389838984
 1  5.31063876887689  3.06716238823882  0.39143565256526
 1 -5.09723019401940 -2.15503318131813 -0.72305845584558
 1  4.44864805780578  0.25984073007301 -0.55752782078208
 1 -4.01664306830683  0.66559593159316  0.18813009400940
 1  2.85045067306731  3.24470636063606  1.38980222122212
 1  1.70817907890789  3.56409739173917 -0.05355075307531
 1  3.70867624762476  3.55160178517852 -0.08886194419442
 1 -2.71252236723672 -2.87429972197220 -0.10080774577458
 1 -2.90583929692969 -2.38959602160216 -1.76529527152715
 1 -1.09513989898990 -2.44274182418242 -0.53527207020702
 1  2.45195655865587 -0.32854613561356 -0.29600581258126
 1 -1.67214183718372  1.17483572757276 -0.20412431943194
 1  0.47878817781778  1.74193962096210  0.27206921692169
 1  0.22564434943494 -1.07576774077408 -0.63890556455646

