%nproc=4
%Mem=2GB
# td=(NStates=1) CAM-B3LYP/6-31G(d,p) 

TD

0 1
 8  14.77786331133113 -2.32020495359536 -0.28163508650865
 8 -14.81006607060706  1.92525783088309  0.95142467346735
 6  11.23377572357236 -1.40310286238624  0.96714287528753
 6 -12.36852201620162 -1.02619423732373  0.66084972897290
 6  12.71471503750375 -1.83606290239024  0.97620251225123
 6 -13.77690440944094 -0.25170319021902  0.67006981898190
 6  13.41512955195520 -1.85750807290729 -0.40059360436044
 6 -13.60997029002900  1.19227788888889  0.87487873887389
 6  11.01739106610661 -0.30418804580458  0.01083779077908
 6 -11.36183254725472 -0.28111911881188 -0.12255993199320
 6  13.25583607460746 -0.42698118321832 -0.91145389938994
 6 -12.80022246024602  1.85720872797280 -0.31285063806381
 6  11.88157402640264  0.12257264016402 -0.90878352135214
 6 -11.44203479847985  1.02355898499850 -0.66075807180718
 6  10.69369041004100 -1.03072851385139  2.42775615961596
 6  10.37131775177518 -2.61458922692269  0.57733112311231
 6 -11.91435324132413 -1.13803349524952  2.19524565556556
 6 -12.69054554955495 -2.41112233413341  0.14524578657866
 6  9.63991923292329  0.28924787778778  0.12116607660766
 6 -10.03154872687269 -1.00893363526353 -0.35812709770977
 6  11.70244612461246  1.32212738663866 -1.86215820582058
 6 -10.54004229222922  1.83078255535554 -1.48954584458446
 6  9.40480438543855  1.63869011201120  0.11228786878688
 6 -8.77568896589659 -0.50319226812681 -0.31825692769277
 6  8.07172627762776  2.25695167816782  0.44044481948195
 6 -7.62101013501350 -1.23150147804780 -0.60420658965897
 6  8.05401718571857  3.74793364836484  0.64874905890589
 6 -7.69364766176618 -2.72892246914691 -1.07106579157916
 6  6.96747671867187  1.59655859685969  0.18508602360236
 6 -6.41359405640564 -0.65890415231523 -0.34751367636764
 6  5.59887060106011  2.01133537153715  0.18894586358636
 6 -5.10119866586659 -1.10160723362336 -0.53112999099910
 6  4.46309509550955  1.08348454245425  0.05952386738674
 6 -3.97032832983298 -0.33181540554055 -0.37623043804380
 6  3.13906139713971  1.69118350935094  0.09070318631863
 6 -2.64208966496650 -0.73598367736774 -0.59198755375538
 6  2.96192775977598  3.09269696169617  0.42515017301730
 6 -2.26042481048105 -2.11246473847385 -1.04567579357936
 6  2.14816390539054  0.82163422742274 -0.20616129612961
 6 -1.55142710271027  0.15537342634263 -0.30712466346635
 6  0.72838966796680  0.87520033403340 -0.16198487048705
 6 -0.25611548154815  0.00705310531053 -0.46957792779278
 1  13.36733531353135 -1.32365577567757  1.59560524952495
 1  12.90831433043304 -2.76995020912091  1.67711539553955
 1 -14.27554052705270 -0.80878832073207  1.50015093609361
 1 -14.08879237423742 -0.28552642454245 -0.45376723272327
 1  12.87528853585358 -2.59193850095010 -1.08721927992799
 1 -13.04685511751175  1.39216319841984  1.74352208620862
 1  14.13725831283128  0.13955653355336 -0.34548972997300
 1  13.70896645364537 -0.51740709780978 -1.90980371137114
 1 -13.39610481948195  1.77755281538154 -1.19893263626363
 1 -12.56254222722272  2.78029304940494 -0.03448241224122
 1  10.89977266626663 -1.87163559255926  3.04845954195420
 1  9.69020734773477 -0.76970676967697  2.26114286928693
 1  11.41997573957396 -0.19505837293729  2.94023740974097
 1  10.70116637963796 -3.25965073907391 -0.39678636163616
 1  10.22250125302530 -3.53980262326233  1.11154059405941
 1  9.25172248924892 -2.33514482248225  0.35189191019102
 1 -11.77522920892089 -0.23936643054305  2.59880017701770
 1 -10.85742858185819 -1.65955849974997  2.09224300830083
 1 -12.36464735773577 -1.86526394629463  2.84080466046605
 1 -13.57638808780878 -2.92242093799380  0.67396552755276
 1 -11.91319655465547 -3.07826441534153  0.41552445044504
 1 -12.79889774877488 -2.45548474037404 -0.95065780778078
 1  8.80507241024102 -0.25519993099310  0.36194331533153
 1 -9.96900166516652 -2.17989505340534 -0.39931373337334
 1  10.61785307730773  1.65353002300230 -2.13210526952695
 1  12.29732556155616  2.30164110701070 -1.59670527852785
 1  12.14423609360936  1.05953680858086 -2.88544123312331
 1 -11.11406580758076  2.20470603470347 -2.27021774277428
 1 -9.78623460146015  1.20670468956896 -2.01781774877488
 1 -9.99530371437144  2.56442909700970 -1.06043919991999
 1  14.38148727672767 -3.35167049414942 -0.16270799079908
 1 -15.44132882588259  1.60438773887389  1.52430352635264
 1  10.19493541254125  2.49040594859486  0.14037086208621
 1 -8.69510424642464  0.42921752285229  0.04823419741974
 1  9.13963165016501  4.13656703870387  0.93792963396340
 1  7.63800018701870  4.30489535053505 -0.25762210821082
 1  7.48328758875888  4.00823189118912  1.47885472347235
 1 -8.23038583258326 -3.57262192009201 -0.41433672267227
 1 -8.13151752275228 -2.79147915081508 -2.11100298929893
 1 -6.81827759975998 -3.37319185908591 -1.23195862986299
 1  7.00403625862586  0.31609482448245 -0.05767364236424
 1 -6.48887586358636  0.34100159525953 -0.08866399139914
 1  5.46116382138214  3.09832550455045  0.41363787278728
 1 -5.09199967096710 -2.09621729972997 -1.01418756875688
 1  4.70209340234023  0.04703944994499 -0.31459352735274
 1 -3.96579798379838  0.65737510951095 -0.06891561056106
 1  3.08862449044905  3.12488437843784  1.53485672667267
 1  1.78856711771177  3.45075605760576  0.14952955495550
 1  3.63930931093109  3.78107473247325 -0.19001205920592
 1 -2.14164527952795 -3.09027131913191 -0.23265093009301
 1 -2.77947666066607 -2.48871593359336 -2.07716645864586
 1 -1.18734911991199 -2.15062261226123 -1.46729527252725
 1  2.43944530753075 -0.08742202320232 -0.80635684768477
 1 -2.02925754875488  1.13586183018302  0.02199829282928
 1  0.24218451745174  1.79129455645565  0.35139714971497
 1  0.08851063606361 -0.95016518051805 -0.67090876487649

