%nproc=4
%Mem=2GB
# td=(NStates=1) CAM-B3LYP/6-31G(d,p) 

TD

0 1
 8  14.81440696569657 -2.24878781188119  0.10677375437544
 8 -14.86063112711271  1.73938924402440  1.31078060906091
 6  11.15998834483448 -1.46348890099010  1.06480264126413
 6 -12.45734089808981 -1.10287190509051  0.60245388938894
 6  12.57643120912091 -1.90882017811781  1.28694358635864
 6 -13.72602932193219 -0.24281230113011  0.70909372137214
 6  13.42319035803580 -1.87815013711371 -0.04702824782478
 6 -13.64136342934293  1.16104476557656  1.12272352335234
 6  11.08190751775177 -0.23583121012101  0.09756646364636
 6 -11.38517488148815 -0.23086409330933 -0.10894857085709
 6  13.39735022602260 -0.54134261936194 -0.78375112911291
 6 -12.75334777277728  1.87277028412841  0.11071171817182
 6  12.00802667166717  0.13153353625363 -0.79435207820782
 6 -11.59847044204420  1.07639426852685 -0.42688468446845
 6  10.57020806180618 -1.11238667966797  2.43617700170017
 6  10.37645826582658 -2.69909767776778  0.58252164216422
 6 -11.97057886388639 -1.50668035993599  1.98215434643464
 6 -12.64409090409041 -2.27629885178518 -0.21370010801080
 6  9.68879412041204  0.38250720372037  0.12134609460946
 6 -10.03731930393039 -1.00406314821482 -0.24615590059006
 6  11.87962384238424  1.23331850575058 -1.87254924492449
 6 -10.63023131113111  2.02232170927093 -1.19618650865086
 6  9.43779768476848  1.66965320832083  0.14142078207821
 6 -8.77301869886989 -0.43681563046305 -0.30775587758776
 6  8.06099520452045  2.33824980798080  0.18615939093909
 6 -7.60836887088709 -1.30867919581958 -0.47718388738874
 6  8.15281706570657  3.73796265126513  0.42639682368237
 6 -7.77057535453545 -2.73141271817182 -1.03729241424142
 6  6.92839281028103  1.50152909390939 -0.06267875287529
 6 -6.46365906290629 -0.53955221712171 -0.54302322732273
 6  5.60389110311031  2.05115935393539 -0.04901793279328
 6 -5.14258280428043 -1.13181025392539 -0.68623550155016
 6  4.44974376037604  1.28144433843384 -0.18881096609661
 6 -3.98376967396740 -0.33480570457046 -0.61113392839284
 6  3.11493898489849  1.67896228722872 -0.07614349834983
 6 -2.58466392239224 -0.72468254725473 -0.79628798379838
 6  2.78119968696870  3.11757944994499  0.28243590159016
 6 -2.19398816681668 -2.18601209320932 -1.19544077007701
 6  2.17898698769877  0.78385044904490 -0.35576625662566
 6 -1.58970093009301  0.20594848384838 -0.69382333333333
 6  0.84323115211521  1.02344515851585 -0.32069074107411
 6 -0.14841471147115  0.00543294329433 -0.56655762576258
 1  13.04929350935093 -1.18081149124913  1.95621131013101
 1  12.68382188118812 -2.77254046814682  1.95028271227123
 1 -14.42328530153015 -0.85515295719572  1.44760568156816
 1 -14.27895139013901 -0.39988786068607 -0.29326118211821
 1  13.21930293729373 -2.73411271837184 -0.83780433843384
 1 -13.10598103010301  1.43934791689169  2.30917865186519
 1  14.21165575257526 -0.14079150125013 -0.17723290429043
 1  13.82266782378238 -0.43033839093909 -1.83884661566157
 1 -13.35844105310531  1.92092715281528 -0.85468821182118
 1 -12.48923489648965  2.67837285738574  0.55956699269927
 1  10.52613530253025 -2.05385381438144  3.06303099909991
 1  9.47704603160316 -1.01938173717372  2.22712946794679
 1  10.95473921592159 -0.18859772687269  2.93234662066207
 1  10.84311057405741 -2.87960273427343 -0.45477216021602
 1  10.35027403030303 -3.43901254425443  1.46212565256526
 1  9.39649696669667 -2.39884119211921  0.28593531453145
 1 -11.97468915491549 -0.52888538243824  2.60363066006601
 1 -11.06434927392739 -1.95845838973897  1.89626341034103
 1 -12.73151404440444 -2.17409482938294  2.50679125912591
 1 -13.54739518851885 -2.70099879577958  0.21695982698270
 1 -11.71342657765777 -2.98999558845885 -0.20701780378038
 1 -12.90809866886689 -2.19880907280728 -1.19404214621462
 1  8.87421932493250 -0.39899431043104  0.17008412941294
 1 -10.00344510951095 -2.11773883778378 -0.39362316431643
 1  10.75854714671467  1.42396706670667 -2.07754981398140
 1  12.70237606660666  2.16061700460046 -1.60571617961796
 1  12.23834550455045  0.84145500040004 -2.79391208020802
 1 -11.38871327232723  3.09785534963496 -1.49660038103810
 1 -10.12078805680568  1.49020303940394 -2.08681464846485
 1 -9.84326851085108  2.50478313241324 -0.25868902490249
 1  14.79078820682068 -3.18078340544054  0.29775805580558
 1 -15.01912660566057  1.31849915001500  2.17703879987999
 1  10.25537145614562  2.40561746974697  0.41919874487449
 1 -8.55811054705470  0.52772737383738 -0.11104173017302
 1  9.20443813081308  4.00804418641864  0.43029887088709
 1  7.46894328132813  4.15475033603360 -0.42173851985199
 1  7.79600886088609  4.11290235823582  1.45934277227723
 1 -8.46650944494450 -3.04146880478048 -0.07508279727973
 1 -8.66601097209721 -2.76253625652565 -1.64160604960496
 1 -6.81839761176118 -3.48331287118712 -1.23750918491849
 1  6.83208906390639  0.48597181218122 -0.23652152715272
 1 -6.64075105110511  0.43998149324933 -0.47382250725073
 1  5.53466117111711  3.11628730073007  0.16206271527153
 1 -4.93162363336334 -2.06597427542754 -1.01153730373037
 1  4.60528372137214  0.31825657165717 -0.31985405340534
 1 -4.03070447444744  0.74099347134713 -0.46377509650965
 1  3.03382901090109  3.40147203720372  1.44429767076708
 1  1.83781204220422  3.13393437543754  0.39856445844584
 1  3.22622800280028  3.89210583558356 -0.36441949995000
 1 -2.23817493249325 -2.95516780878088 -0.33324098909891
 1 -2.80298901190119 -2.33142020402040 -2.02540128212821
 1 -1.19024940994099 -2.34385193519352 -1.45937448044805
 1  2.45638700170017 -0.22664594559456 -0.69464567656766
 1 -1.78289291229123  1.29928817281728 -0.39930383738374
 1  0.44582488148815  2.00676610361036 -0.25090308030803
 1  0.20848263326333 -1.14977514151415 -0.78205987998800

