%nproc=4
%Mem=2GB
# td=(NStates=1) CAM-B3LYP/6-31G(d,p) 

TD

0 1
 8  14.72232775777578 -2.17971090419042 -0.20231715471547
 8 -14.73958902290229  1.92538784388439  0.84841437243724
 6  11.11892423842384 -1.36517907000700  0.95323148414841
 6 -12.38833399739974 -0.99707132503250  0.49962360636064
 6  12.63130669666967 -1.90653995009501  0.99344423642364
 6 -13.65820253925393 -0.17941596149615  0.68988180018002
 6  13.28015605460546 -1.97386970907091 -0.40913445844584
 6 -13.52356164916492  1.30832949404941  0.95615686668667
 6  10.92405173217322 -0.23554118111811  0.08818552555256
 6 -11.28356472047205 -0.21727273417342 -0.16429410541054
 6  13.20551104210421 -0.48633711881188 -1.01019377337734
 6 -12.74079651765176  1.83074608170817 -0.30256960996100
 6  11.92040790979098  0.21681206410641 -0.87582022502250
 6 -11.54503509850985  1.00490711981198 -0.62404440044004
 6  10.73370441144114 -1.11246668766877  2.37789117311731
 6  10.27275789578958 -2.44567233523352  0.32984637463746
 6 -11.81478328432843 -1.21651134303430  2.04529066006601
 6 -12.66941343634363 -2.29282050395040 -0.19647838583858
 6  9.69526476747675  0.32843179617962  0.19575353535354
 6 -10.02260783278328 -0.91244398629863 -0.40471175617562
 6  11.70414629462946  1.33971914581458 -1.83181517151715
 6 -10.55490377837784  1.82656213331333 -1.40654754475448
 6  9.33413731873187  1.73449969296930  0.03442008200820
 6 -8.71473287028703 -0.41113306220622 -0.34019912191219
 6  8.03118222322232  2.35286126912691  0.18196897189719
 6 -7.55398343234323 -1.21127945584558 -0.53606977597760
 6  7.95241702570257  3.78889774477448  0.39944412841284
 6 -7.67978627562756 -2.59411898879888 -0.91361004600460
 6  6.85680565156516  1.63802274327433  0.06782429742974
 6 -6.31837453445345 -0.56393465536554 -0.43802272727273
 6  5.61176189018902  2.17156139413941  0.13809077807781
 6 -5.02408095409541 -1.16107318021802 -0.49816669466947
 6  4.50221900790079  1.10508670267027  0.12917083208321
 6 -3.93842513951395 -0.52612483648365 -0.23330614561456
 6  3.08819631063106  1.49191358235824  0.20148426442644
 6 -2.50618607460746 -0.88896897589759 -0.43261161616162
 6  2.80166173317332  2.97665535753575  0.52902056005601
 6 -2.23122189018902 -2.29698319031903 -0.91346257225723
 6  2.13806289528953  0.54941700570057 -0.23082376237624
 6 -1.54268622862286  0.01185907490749 -0.12859681068107
 6  0.72283911291129  0.79975278927893 -0.03623229522952
 6 -0.17959782978298 -0.29569716971697 -0.19389035903590
 1  13.39231781178118 -1.21301471157116  1.55921161016102
 1  12.78094159315932 -2.87148036213621  1.58070575457546
 1 -14.24101707470747 -0.73953139503950  1.39584050505051
 1 -14.20257375237524 -0.41013888578858 -0.21751360736074
 1  12.77000800780078 -2.57693700080008 -1.06567712571257
 1 -13.00431086308631  1.53247722982298  1.74358209220922
 1  13.98886347334733  0.20508308620862 -0.78064324532453
 1  13.46704226122612 -0.37723308040804 -1.98166089708971
 1 -13.45989119811981  1.86383144324432 -1.16711945494549
 1 -12.16922289528953  2.82482750285029  0.11895293129313
 1  10.90493318231823 -1.81003943294329  3.06000069606961
 1  9.55590391739174 -0.91944174317432  2.44271102610261
 1  11.39598334033403 -0.35807467456746  2.72654604060406
 1  10.47014327732773 -2.68758353235324 -0.70567725072507
 1  10.45633463636364 -3.34315295829583  0.90089952995300
 1  9.16657397439744 -2.07902921092109  0.41899862086209
 1 -11.56600828682868 -0.23343583748375  2.38093839083908
 1 -10.96278911791179 -1.73554609850985  2.12045582958296
 1 -12.59060995399540 -1.51917933783378  2.57179775977598
 1 -13.62902335133513 -2.63553224912491  0.09183731473147
 1 -12.03622885788579 -3.15653224212421  0.06965986398640
 1 -12.76617447644764 -2.13907309920992 -1.34998774077408
 1  8.83146504950495 -0.37890230123012  0.68442556355636
 1 -10.20241500650065 -2.01612867676768 -0.46993079507951
 1  10.61513280528053  1.72768743874387 -2.04691675067507
 1  12.06211204020402  2.36257720062006 -1.64784039203920
 1  12.05120679067907  1.03622447734773 -2.83098578757876
 1 -11.07303170417042  2.45690125422542 -2.17909863086309
 1 -9.72627860586059  1.15250927002700 -1.85439140614061
 1 -10.13257744174417  2.55003765786579 -0.71569472547255
 1  14.76799592759276 -3.28781410851085 -0.30746246624662
 1 -15.65341003400340  1.35855315541554  1.28864996099610
 1  10.39059497849785  2.43906081408141  0.09174599959996
 1 -8.52815755175518  0.71613621472147 -0.15148577457746
 1  8.96856454345435  4.10802418441844  0.54606044704470
 1  7.35200158715871  4.29777463846385 -0.44022036803680
 1  7.52549180918092  4.05298636663666  1.37589442744274
 1 -8.36471926592659 -3.13182784068407 -0.28173346234623
 1 -8.13426779777978 -2.60694069696970 -1.90702259125913
 1 -6.73810958295830 -3.01279581948195 -1.19333476747675
 1  6.90109596459646  0.48082129712971  0.11590371537154
 1 -6.28517549354935  0.35820331543154  0.11160603560356
 1  5.40860856585659  3.21641731373137  0.29573608260826
 1 -4.91669214021402 -2.28964664266427 -0.72473862386239
 1  4.93333652665267  0.30030477647765 -0.34135620362036
 1 -3.87590899489949  0.47000637263726  0.17874915591559
 1  3.41733736173617  3.46990888088809  1.33464670567057
 1  1.76234449544954  3.07920890289029  0.80898550055005
 1  3.05365074507451  3.84872149714972 -0.14887794579458
 1 -2.82137325232523 -2.99504179617962 -0.30566823182318
 1 -2.61788050105010 -2.46817387938794 -1.93220196219622
 1 -1.10582096709671 -2.53103065306531 -0.95473401640164
 1  2.43505486848685 -0.36557983898390 -0.49123533553355
 1 -2.01280590359036  0.97568581258126  0.18079417241724
 1  0.23190348934893  1.79639506650665  0.33955596559656
 1  0.02386417141714 -1.38254841884188 -0.64515618961896

