%nproc=4
%Mem=2GB
# td=(NStates=1) CAM-B3LYP/6-31G(d,p) 

TD

0 1
 8  14.78224374937494 -2.32221515461546  0.06034911191119
 8 -14.84855991999200  1.84964026912691  1.16693622462246
 6  11.20988333433343 -1.38060061216122  1.02346850785079
 6 -12.54026919091909 -1.11271288918892  0.56475011901190
 6  12.71436500250025 -1.94978427452745  1.18130302230223
 6 -13.76568328732873 -0.26572459235924  0.63682649464947
 6  13.39692773177318 -1.92960528262826 -0.14646819181918
 6 -13.56886617961796  1.18363702480248  1.08652990399040
 6  11.04685401240124 -0.30200782778278  0.01159786678668
 6 -11.37258362236224 -0.35915692259226 -0.15810348634863
 6  13.38619911091109 -0.50968945404540 -0.87465021902190
 6 -12.72051448944895  1.85153816091609  0.05505615261526
 6  11.96506237523752  0.09056943984398 -0.88222086508651
 6 -11.53229382438244  1.05374200330033 -0.42317431343134
 6  10.66715775677568 -0.97381282228223  2.39033241724172
 6  10.32327294729473 -2.57336510451045  0.55797918791879
 6 -12.01268307430743 -1.62380207210721  1.88495462646265
 6 -12.68085458045805 -2.35007622952295 -0.41666040404040
 6  9.70424566556656  0.31784073707371  0.05063902390239
 6 -10.03045861786179 -0.98469121102110 -0.44098538353835
 6  11.69100498049805  1.09586476037604 -1.95437742774277
 6 -10.66470475847585  1.90960043714371 -1.37903479347935
 6  9.38363226822682  1.65270151315132 -0.12577593759376
 6 -8.74500589758976 -0.47761971087109 -0.31489659165917
 6  8.09515862086208  2.26075205820582 -0.02255148014801
 6 -7.58248628262826 -1.18178650655065 -0.68502467146715
 6  7.98785056905691  3.82358121312131  0.11390557455746
 6 -7.64984328132813 -2.63217279417942 -1.25811449644964
 6  6.93805377637764  1.54624356535654  0.01993950895090
 6 -6.33290598759876 -0.53657191909191 -0.27150607560756
 6  5.60905161916192  2.00668490649065  0.17067403640364
 6 -5.05532407840784 -1.07563463636364 -0.41871874987499
 6  4.43508229422942  1.25803199719972 -0.07902998799880
 6 -3.93351464846485 -0.31005322932293 -0.23118593359336
 6  3.09871736273627  1.64315870687069  0.02840695669567
 6 -2.55864132013201 -0.64542462146215 -0.49524787978798
 6  2.88000956795680  3.13159085108511  0.42858051605161
 6 -2.25890465846585 -2.04201769376938 -0.96860808680868
 6  2.13341243024302  0.73298536253625 -0.08693937393739
 6 -1.52532449244925  0.22829071807181 -0.31777572857286
 6  0.73694052305231  1.03346616061606 -0.00563923592359
 6 -0.17755762576258  0.14167656765677 -0.28565953595360
 1  13.25410399039904 -1.13087649774978  1.80202589158916
 1  12.65590908990899 -3.01418463256326  1.74618230223022
 1 -14.53169614261426 -0.76202364426443  1.27749867086709
 1 -14.13335683068307 -0.19162703460346 -0.50104196019602
 1  12.86515752275228 -2.61666097319732 -0.72615317331733
 1 -13.17446787878788  1.28302228432843  2.20491822582258
 1  14.04063865086509  0.22900547844785 -0.54519970097010
 1  13.91085664266427 -0.72667802490249 -1.71174390539054
 1 -13.36070127912791  1.81783684378438 -0.92109485248525
 1 -12.61890786378638  2.77409242934293  0.48502953895389
 1  10.75689837883788 -1.87383581258126  3.13420811681168
 1  9.51205953295329 -0.89348914791479  2.32509926492649
 1  11.19915365736574 -0.10515938303830  2.52227561356136
 1  10.68918518151815 -2.97727250125012 -0.32735941894189
 1  10.43200220312031 -3.40602924592459  1.27069650965097
 1  9.31669898689869 -2.41950325832583  0.62441916291629
 1 -12.07286897289729 -0.93317581148115  2.75973627062706
 1 -10.97188002700270 -2.27118966286629  1.83750753475348
 1 -12.97984887788779 -2.22338975887589  2.25138571857186
 1 -13.67232768176818 -2.90200889678968 -0.05651752075208
 1 -11.81093632863286 -3.00958754765477 -0.54299140114011
 1 -12.98036589558956 -2.16704589648965 -1.49740248224822
 1  8.80999290229023 -0.47317172817282 -0.04530740974097
 1 -10.08770353535354 -2.03080014391439 -0.81473527552755
 1  10.55251654365436  1.28059272927293 -1.97934999399940
 1  12.22725855485549  1.99539048194819 -1.52731833983398
 1  12.10920259025903  0.90908176307631 -2.88108079707971
 1 -11.26450085108511  2.42499806390639 -2.15045576657666
 1 -9.93043902190219  1.30152417151715 -2.03520948794880
 1 -9.97380156415642  2.88738139223922 -0.98839199519952
 1  14.78365749374938 -3.25604093119312  0.36338461846185
 1 -15.34790948394839  1.49634693479348  2.00597169316932
 1  10.08459437843785  2.30211711971197  0.14305113011301
 1 -8.84305904190419  0.45311991309131  0.18465783978398
 1  9.02331001800180  4.14642802480248 -0.23152731173117
 1  7.30203659065906  4.12400726172617 -0.56366271227123
 1  7.70502976297630  3.99394046204620  1.18003484148415
 1 -8.04656745074507 -3.59110376827683 -0.58140342934294
 1 -8.23476784778478 -2.62598260116012 -2.01707359635964
 1 -6.59534530653065 -2.96313085298530 -1.63829926392639
 1  7.00199605460546  0.37329054405441 -0.11143901890189
 1 -6.34107108310831  0.59499699479948  0.09184405940594
 1  5.26062376737674  2.98685435743574  0.57136364536454
 1 -4.77423789478948 -2.12381005900590 -0.60508665866587
 1  4.78414160716072  0.15550029602960 -0.32246431443144
 1 -4.12824422842284  0.79302867486749 -0.03054177317732
 1  2.89049467746775  3.16705859585959  1.61720496149615
 1  1.90944920592059  3.44406538853885  0.04966956895690
 1  3.84379975997600  3.59938656365637  0.09152609460946
 1 -2.85387650265027 -2.83110540254025 -0.46787445244524
 1 -2.64620333333333 -2.25860292229223 -2.09725846784678
 1 -1.08640902590259 -2.24059160916092 -1.01545008800880
 1  2.46092745574557 -0.27618089908991 -0.54898111011101
 1 -1.87309193219322  1.12000024402440  0.20724681768177
 1  0.45679597859786  2.07005243224322  0.23451546154615
 1  0.14132591759176 -0.91546171017102 -0.61119279327933

