%nproc=4
%Mem=2GB
# td=(NStates=1) CAM-B3LYP/6-31G(d,p) 

TD

0 1
 8  14.70434595959596 -2.33936686978698 -0.28112503550355
 8 -14.81825688968897  1.79372467756776  0.82765229622962
 6  11.21013335933593 -1.43448600070007  0.88302446344634
 6 -12.34561972597260 -1.00146176407641  0.64971861586159
 6  12.65918948494849 -1.80676997309731  0.94266915891589
 6 -13.68252497149715 -0.31023904380438  0.69819263126313
 6  13.33702174117412 -1.93604592669267 -0.33942748774877
 6 -13.58547784078408  1.13805246634663  0.90677192819282
 6  11.04601392839284 -0.32416004300430 -0.03466675967597
 6 -11.30103646764677 -0.24705571247125 -0.13990166616662
 6  13.25741623262326 -0.54892337743774 -1.03274602860286
 6 -12.80035247324732  1.80641364846485 -0.27280663366337
 6  11.93717958695870  0.08937932083208 -0.90447309030903
 6 -11.52834342934293  1.03166979607961 -0.67307930393039
 6  10.85204624562456 -1.11747718871887  2.39145252925293
 6  10.38944956495649 -2.77198496649665  0.53578696869687
 6 -11.79731153715371 -1.14798449034903  2.02253838483848
 6 -12.63129962496250 -2.41172239413941  0.06735799779978
 6  9.69078431943194  0.32129108210821  0.08403236323632
 6 -10.03883945594560 -0.96169891179118 -0.47646893189319
 6  11.75831171117112  1.17763293719372 -1.73009499949995
 6 -10.67717600560056  1.77254673177318 -1.63904079407941
 6  9.35799970497050  1.57795403840384  0.06603324332433
 6 -8.80906230323032 -0.40710265916592 -0.38712381438144
 6  8.05858496349635  2.31877786078608  0.17503827882788
 6 -7.56163419741974 -1.14371269916992 -0.60018618761876
 6  7.95864764876488  3.78970782578258  0.67166135013501
 6 -7.72736103310331 -2.66981655855586 -0.97140582558256
 6  6.88371834283428  1.67164610561056 -0.12943542854285
 6 -6.27189988698870 -0.49076733863386 -0.40816974197420
 6  5.58748946294629  2.25296953495350  0.24971194019402
 6 -5.00975952195220 -1.10126719961996 -0.56870374837484
 6  4.48859764576458  1.44248044204420 -0.04525661066107
 6 -3.85471676867687 -0.36008823282328 -0.31233404840484
 6  3.07186467746775  1.77664205520552  0.22658677467747
 6 -2.58238369436944 -0.84262434143414 -0.34726308130813
 6  2.66191775877588  3.12000969296930  0.69257691569157
 6 -2.38510727872787 -2.19533302530253 -0.98037926392639
 6  2.12940202920292  0.79674173817382 -0.18478915891589
 6 -1.53009496949695  0.03386127512751 -0.13254720572057
 6  0.78610543954395  0.85129794379438  0.09320064806481
 6 -0.19939980998100 -0.13982158215822 -0.26209717971797
 1  13.34186276627663 -1.20754416451645  1.39574526352635
 1  12.72993649264927 -2.77078029212921  1.57712539653965
 1 -14.33045601860186 -0.76307374927493  1.44794571557156
 1 -14.25126862186219 -0.46653452535254 -0.29657151315132
 1  12.59855086208621 -2.56425573267327 -1.03927448544854
 1 -13.14049448144814  1.48884286638664  1.77519525352535
 1  14.19919450645065  0.15623820172017 -0.80944612561256
 1  13.26354191119112 -0.54573993109311 -2.04982771377138
 1 -13.81111632063206  1.86266132623262 -1.02258500150015
 1 -12.64194016701670  2.94298931903190 -0.06633559755976
 1  11.03848653765377 -1.80799922892289  3.06463115911591
 1  9.89787811481148 -0.78329812881288  2.55122187718772
 1  11.64894863686369 -0.21313018011801  2.53652703870387
 1  10.79039530253025 -3.02330710471047 -0.22077876087609
 1  10.62934193709371 -3.39112775577558  1.31886132613261
 1  9.37739505650565 -2.40182149014902  0.49508622962296
 1 -11.62513419941994 -0.07503999789979  2.44370466746675
 1 -10.83401624062406 -1.70691323522352  2.17078086208621
 1 -12.33528442144214 -1.85476289618962  2.59485006500650
 1 -13.56575702470247 -2.60398909480948  0.70555868686869
 1 -11.89480471547155 -3.30064665356536  0.17886078407841
 1 -13.13493135213521 -2.41115030693069 -0.94288703070307
 1  8.90789269226923 -0.33427783878388  0.50444756575658
 1 -9.95781054605461 -1.98485554945495 -0.52800660266027
 1  10.67305859785978  1.65004967496750 -2.14038609760976
 1  12.15908173717372  2.13730467336734 -1.37638324632463
 1  12.18976064606461  1.01928278317832 -2.85002769176918
 1 -11.23168756975697  2.15382094619462 -2.41636235723572
 1 -9.80949692769277  1.11960597969797 -2.02912887988799
 1 -10.38714289828983  2.55898855295530 -0.88617177317732
 1  14.67349647764776 -3.07753308040804  0.35353363336334
 1 -15.21539623262326  1.55495279537954  1.61015211121112
 1  10.26684260326033  2.20729763776378 -0.23883705870587
 1 -8.73040777677768  0.61756635773577 -0.26155678167817
 1  8.95161284828483  3.94450783278328  1.20947678867887
 1  7.66516290329033  4.47889275027503 -0.14592093809381
 1  7.07198645864586  3.59194026202620  1.49609644764476
 1 -8.22496529052905 -3.12705736363636 -0.08483377237724
 1 -8.25837020802080 -2.81822182508251 -1.87086897589759
 1 -6.76313208520852 -3.20818535843584 -1.30952638663866
 1  6.80515637063706  0.61513472847285 -0.50112798779878
 1 -6.38869584558456  0.53874136923692 -0.19055418041804
 1  5.43010071507151  3.39273494549455  0.34669117811781
 1 -4.88194866586659 -2.06828450645065 -0.84336048604860
 1  4.46784997799780  0.47669241524152 -0.30991305930593
 1 -3.97563896789679  0.68628800080008 -0.06246496549655
 1  2.99693532153215  3.30648253825383  1.64972821382138
 1  1.53857211821182  3.30289127112711  0.84439904190419
 1  3.02483786378638  4.06169279427943 -0.00447350535054
 1 -3.43170428542854 -2.79623191519152 -0.48294595959596
 1 -2.66145485848585 -2.39632669466947 -2.02283102510251
 1 -1.31360174517452 -2.61490904090409 -0.64966350935094
 1  2.76297766076608 -0.15712899389939 -0.59914612661266
 1 -1.70543516651665  1.18521676567657 -0.23366727372737
 1  0.32380267926793  1.92770819781978  0.54154616461646
 1  0.25305709070907 -1.12559272327233 -0.65225689968997

