%nproc=4
%Mem=2GB
# td=(NStates=1) CAM-B3LYP/6-31G(d,p) 

TD

0 1
 8  14.51368689368937 -2.43831676477648 -0.13302022502250
 8 -14.76030109410941  1.86695200030003  0.94585411641164
 6  10.91773411941194 -1.54040659275928  0.98316447744774
 6 -12.31723688768877 -1.10985260316032  0.65366901090109
 6  12.43827739373937 -2.02587188328833  0.99522441444144
 6 -13.61419813881388 -0.27800582048205  0.75634844684468
 6  13.05606364536454 -2.09636195829583 -0.33478702370237
 6 -13.46529582258226  1.20965962706271  0.96958820982098
 6  10.89186851385139 -0.23896152315232  0.09275598259826
 6 -11.18485484948495 -0.29906091299130 -0.12543021902190
 6  13.19534002500250 -0.69119760486049 -0.94641739573957
 6 -12.75193763176317  1.75074808190819 -0.31807116011601
 6  11.85284115311531  0.06348673157316 -0.87009965296530
 6 -11.41156175117512  1.03300993009301 -0.43392538853885
 6  10.49865090609061 -1.19808524952495  2.39037242124212
 6  10.08743936393639 -2.66391415941594  0.40036342634263
 6 -11.81870367636764 -1.32178187008701  2.09173530453045
 6 -12.63570006500650 -2.41695291719172  0.02006326832683
 6  9.68038327932793  0.41230018301830  0.17758171817182
 6 -10.01202677467747 -0.93837657955796 -0.36800808580858
 6  11.77549342934293  1.25334050795080 -1.75510750075008
 6 -10.31885017301730  1.65614509160916 -1.43411030103010
 6  9.36991089608961  1.74432067506751  0.07093373337334
 6 -8.67068846584658 -0.57956990589059 -0.29595469746975
 6  8.10212931793179  2.36472245524552  0.11927270227023
 6 -7.48190622462246 -1.36949527742774 -0.64746091509151
 6  8.03049483348335  3.84884373937394  0.62293647764776
 6 -7.71524982198220 -2.85744532143214 -0.97555624062406
 6  6.88539851085109  1.74779372037204 -0.01546403140314
 6 -6.28435113211321 -0.64933319521952 -0.48297722272227
 6  5.59392010601060  2.27119135713571  0.14304127312731
 6 -4.97079562556256 -1.13467053995400 -0.67206408440844
 6  4.49713849984999  1.46039223322332 -0.15592767776778
 6 -3.87721901890189 -0.30783300730073 -0.33875669066907
 6  3.13439093009301  1.92690708170817  0.03863797979798
 6 -2.55911136713671 -0.78472855185519 -0.58507686268627
 6  2.82181374837484  3.31585927792779  0.46536419441944
 6 -2.10883965196520 -2.12467595959596 -1.11129235523552
 6  2.18483757275728  1.01297336133613 -0.11948262826283
 6 -1.59089104910491  0.22187007600760 -0.25556950795080
 6  0.80277710671067  0.99672248624862  0.00943227122712
 6 -0.23211308130813  0.04375677567757 -0.30311128112811
 1  13.11825040504050 -1.53715712581258  1.55459114811481
 1  12.59990348934894 -3.00993420752075  1.63274095809581
 1 -14.25036800980098 -0.74682212411241  1.55090601160116
 1 -14.07949144414441 -0.32030990289029 -0.21500335633563
 1  12.79875088208821 -3.08941824892489 -0.97841839983998
 1 -12.91662209420942  1.74218820092009  1.84522225622562
 1  14.12324691169117 -0.06706412851285 -0.40434561556156
 1  13.43558911591159 -0.65650100720072 -2.03089582058206
 1 -13.36932214121412  1.65372043214321 -1.27375011801180
 1 -12.77987396039604  2.95629064916492 -0.11643060706071
 1  10.75422811181118 -2.14394282328233  2.88318301430143
 1  9.41058938593859 -0.80008980798080  2.34950170517052
 1  11.09389313131313 -0.34473334043404  2.66438982498250
 1  10.31339760276028 -2.99435420942094 -0.73745042804280
 1  10.36580558345834 -3.56103474647465  1.08595803580358
 1  8.98771608860886 -2.34597590559056  0.45349207020702
 1 -11.78766045204520 -0.28898139203920  2.52661295829583
 1 -10.72299513851385 -1.59725226912691  1.99778356235624
 1 -12.38620951395139 -2.05471289118912  2.78176875687569
 1 -13.57480792979298 -2.88846754265427  0.45973410441044
 1 -11.79715495049505 -3.42560914981498  0.01331422942294
 1 -12.84918277727773 -2.18921811371137 -0.99917265926593
 1  8.76751865486549 -0.18087249824983  0.36527364836484
 1 -10.21201596659666 -2.08697576147615 -0.61307510951095
 1  10.66526781878188  1.36252092209221 -2.10213227222722
 1  12.23184901390139  2.13705464836484 -1.26706231423142
 1  12.49845151515151  1.26591744664466 -2.75519820882088
 1 -11.03008740974097  2.26813237733773 -2.07522824382438
 1 -9.74644062206221  0.91446546564656 -2.05366133313331
 1 -9.70186437043704  2.42100475457546 -0.95249840584058
 1  14.58524765276528 -3.14604993209321  0.48939721972197
 1 -15.55934062706270  1.69054635473547  1.51398249424942
 1  9.90790670967097  2.64190109810981  0.08947577257726
 1 -8.55565030103010  0.47385198629863 -0.01365199119912
 1  9.06389407640764  4.20705408740874  0.60156599759976
 1  7.53883027002700  4.39429429042904 -0.31928827482748
 1  7.70921018101810  3.95307637563756  1.54610144814481
 1 -7.71172396639664 -3.55877053495350 -0.05515080408041
 1 -8.53167753875388 -2.90681068396840 -1.55962785178518
 1 -6.65880165216522 -3.37509204910491 -1.51353678767877
 1  6.89282513751375  0.72052526752675 -0.41760963596360
 1 -6.30389736573657  0.55355285038504 -0.29463458845885
 1  5.47126483148315  3.29630530253025  0.47780428942894
 1 -4.55433590459046 -1.96786446444644 -1.25407155715572
 1  4.78067126012601  0.42251699769977 -0.58655072307231
 1 -3.93981538553855  0.65867523952395  0.35390667166717
 1  3.04805043304330  3.26758864886489  1.56304954595460
 1  1.84329259025903  3.76435741774177  0.09932453445345
 1  3.66719209920992  3.85343196819682  0.18086502850285
 1 -2.54176529152915 -2.94940723272327 -0.40779844484448
 1 -2.72821153415342 -2.30231729372937 -2.11510025202520
 1 -1.03151353635364 -2.26191374137414 -1.15907445044504
 1  2.54841620462046  0.08780549954996 -0.58272448444844
 1 -1.94302892589259  1.25606385038504  0.08384447744775
 1  0.41968226722672  1.89460488748875  0.50814282428243
 1  0.09874165916592 -0.89510967496750 -0.74338601260126

