%nproc=4
%Mem=2GB
# td=(NStates=1) CAM-B3LYP/6-31G(d,p) 

TD

0 1
 8  14.72878840384038 -2.17316024912491 -0.27928485148515
 8 -14.78397346134613  1.89571487658766  1.10976050705071
 6  11.28879122512251 -1.40435298739874  0.99373553455346
 6 -12.33322848684868 -1.04090570847085  0.51420506450645
 6  12.70419398539854 -1.83642293839384  1.03311820382038
 6 -13.71139785878588 -0.25923394329433  0.69237204920492
 6  13.33448148714872 -1.99700202230223 -0.32781632663266
 6 -13.45311460446045  1.27406606770677  0.90251150215022
 6  10.92009133613361 -0.19784741174117  0.06655336233623
 6 -11.35151151515151 -0.15652665956596 -0.33290096609661
 6  13.25244573557356 -0.56739522462246 -1.03110586458646
 6 -12.74850728872887  1.84391739883988 -0.21982133513351
 6  11.84203007200720  0.10550093299330 -0.94169681268127
 6 -11.49300989598960  1.08558518761876 -0.66925892189219
 6  10.85306634763476 -1.10824626562656  2.51143452745275
 6  10.42729334933493 -2.61366913491349  0.47803119311931
 6 -11.67579938593859 -1.21178086998700  1.95506163716372
 6 -12.74788128312831 -2.34450567246725 -0.08949768776878
 6  9.66193143414341  0.39155810881088  0.26929088908891
 6 -10.14663023502350 -0.98382112401240 -0.71289257425743
 6  11.59885576557656  1.27305247914791 -1.87817980798080
 6 -10.54547283528353  1.90475995309531 -1.49869675967597
 6  9.42125603060306  1.69681592459246 -0.08486184618462
 6 -8.78587998499850 -0.48937088598860 -0.36855195719572
 6  8.07310641564156  2.32739872287229  0.16689746474647
 6 -7.57520555455546 -1.26290461836184 -0.66669283828383
 6  8.02451423542354  3.77214606960696  0.45801998599860
 6 -7.73218151515151 -2.67498707560756 -1.13567225222522
 6  6.93549352035204  1.51509045004500 -0.07027951295130
 6 -6.34171686868687 -0.73732199409941 -0.26110503550355
 6  5.62818353235324  1.99307354535454  0.18912588158816
 6 -5.08302684868487 -1.26753382628263 -0.40388726672667
 6  4.41096988298830  1.21658785278528 -0.12301438643864
 6 -3.97131842884288 -0.48109033303330 -0.14405722072207
 6  3.05722321332133  1.66846123712371  0.12716683268327
 6 -2.61274673067307 -0.85639571857186 -0.43203155815582
 6  2.80551211821182  3.11122881488149  0.68494615261526
 6 -2.30117888588859 -2.21939543154315 -0.80836206220622
 6  2.04244333333333  0.76595865986599 -0.11701238123812
 6 -1.56611857185719  0.11382927192719 -0.19187313831383
 6  0.65291212021202  1.04777759175918 -0.06876554855486
 6 -0.25707557755776 -0.04801240124012 -0.29451042104210
 1  13.16750533053305 -1.09877328742874  1.70440612961296
 1  12.75048854785479 -2.78471168526853  1.67527521152115
 1 -14.41593456645665 -0.66422386428643  1.59626054705471
 1 -14.14029752475247 -0.24564243614361 -0.37007886388639
 1  12.79826083308331 -2.63632293939394 -0.96263682168217
 1 -12.65483591559156  1.44878886098610  1.79767750175018
 1  13.92053664066407  0.08210078797880 -0.69734491549155
 1  13.44900045704570 -0.63780913801380 -1.94355708670867
 1 -13.44274948394840  2.12454751485149 -1.08318106110611
 1 -12.49317529052905  2.92176719681968 -0.18781774577458
 1  11.35560824982498 -1.83796222522252  3.16503119911991
 1  9.80238856585659 -1.05787558655866  2.61983873887389
 1  11.25259900190019 -0.10097896499650  2.99767315331533
 1  10.90299656265627 -2.75418019201920 -0.47303398639864
 1  10.66267527042704 -3.55235387838784  1.12669210921092
 1  9.38558587558756 -2.53775508350835  0.38291501250125
 1 -11.30876256225623 -0.30706320022002  2.50430072707271
 1 -10.69417225622562 -1.42248479237924  1.91449523352335
 1 -12.23781467446745 -1.89651707160716  2.58074865486549
 1 -13.49707015601560 -2.64158285418542  0.66093422442244
 1 -11.86850208520852 -3.05385197409741 -0.40328743074307
 1 -13.20091795079508 -2.13110230213021 -1.18040078207821
 1  8.78841074407441 -0.03635804680468  0.66025314631463
 1 -10.03664842984298 -2.03871093499350 -1.04687848984898
 1  10.50699199119912  1.58971364136414 -2.21578363736374
 1  12.17371320032003  2.26362730563056 -1.47120272827283
 1  12.10887255725573  1.08183903880388 -2.89508219721972
 1 -11.09885428642864  2.41423698779878 -2.38445916691669
 1 -10.01259723772377  0.93755777487749 -1.94312027902790
 1 -10.08635281928193  2.66187884198420 -0.79295245124512
 1  14.81040016801680 -2.89604493159316  0.19914819481948
 1 -14.98479317231723  1.55034233433343  2.09502059805981
 1  10.28477439643964  2.47802471047105 -0.34424759975998
 1 -8.77920265626563  0.49230383148315  0.28629800380038
 1  9.02732041904190  4.14100748274827  0.53220906190619
 1  7.32902928992899  4.24415927692769 -0.13112945894589
 1  7.73625288528853  3.85854692269227  1.62204904290429
 1 -8.40035282928293 -3.26250090799080 -0.25381067006701
 1 -8.10992536353635 -2.84741474437444 -2.05240712971297
 1 -6.86896266826683 -3.39932447234723 -0.99493492749275
 1  7.19037489248925  0.51594480948095 -0.48773664866487
 1 -6.46376335233523  0.23842133723372  0.31455633063306
 1  5.55420312531253  2.86177184918492  0.56686319531953
 1 -4.84181465246525 -2.46721439943994 -0.73712986298630
 1  4.46096928992899  0.13870861686169 -0.39033110111011
 1 -4.28040944494450  0.56143551555155  0.04103538453845
 1  3.03406903490349  3.11273316331633  1.84995823682368
 1  1.69858811981198  3.42802378437844  0.33957855985599
 1  3.60960634063406  3.87795442044204  0.28614555655566
 1 -2.74324543954395 -3.13973626562656 -0.11097876287629
 1 -2.62778149114912 -2.49636669866987 -1.82452119411941
 1 -1.16311669666967 -2.47401495149515 -0.60132867586759
 1  2.28598996199620 -0.09713299429943 -0.45835204720472
 1 -2.10930555355535  1.14270251425142 -0.11010491749175
 1  0.18693899289929  2.00484591159116  0.46930894089409
 1  0.23628541354135 -1.04328449244925 -0.51728340234023

