%nproc=4
%Mem=2GB
# td=(NStates=1) CAM-B3LYP/6-31G(d,p) 

TD

0 1
 8  14.77098262326233 -2.16676961006101 -0.19792671567157
 8 -15.00048511251125  1.81375668076808  0.64403393439344
 6  11.24575692169217 -1.45235778787879  0.85918207920792
 6 -12.44932009600960 -1.12084370227023  0.54424806880688
 6  12.74105767176718 -1.87694699079908  0.97063195519552
 6 -13.78991571057106 -0.32773079297930  0.33482629462946
 6  13.39682772177218 -1.94807712981298 -0.32504604960496
 6 -13.70644993799380  1.10878954005401  0.70473172417242
 6  11.04884421142114 -0.32005963296330 -0.06669996299630
 6 -11.28883524752475 -0.28704971187119 -0.08698637463746
 6  13.35673616461646 -0.61837032213221 -1.08849160316032
 6 -12.81531396939694  1.74032703980398 -0.35970532353235
 6  11.99506537553756  0.01761214411441 -1.10062270527053
 6 -11.40000059505951  0.99830645974597 -0.53816581258126
 6  10.75733677467747 -1.05646108710871  2.31705508950895
 6  10.39217983798380 -2.72779054705471  0.47881127112711
 6 -12.15266707270727 -1.38432812471247  2.00253638463846
 6 -12.68205470047005 -2.36064728662866 -0.22019075707571
 6  9.69019426042604  0.35199415241524  0.00366432643264
 6 -10.06293186518652 -1.01605434733473 -0.27412869786979
 6  11.77737361736174  1.11516669056906 -2.06029801980198
 6 -10.49039732773277  1.84746422352235 -1.39133602360236
 6  9.38425233023302  1.61041728472847 -0.18418177817782
 6 -8.75533693069307 -0.45656760566057 -0.27687278927893
 6  8.07445655065506  2.21162714571457  0.15184595959596
 6 -7.59012704670467 -1.27012534043404 -0.46262243124312
 6  8.11550333433343  3.72903175817582  0.55583976797680
 6 -7.48108640564056 -2.62895247214721 -0.83684236923692
 6  6.89732970397040  1.60131907290729 -0.02555504050405
 6 -6.40919361636164 -0.50900916281628 -0.26417534253425
 6  5.62332304630463  2.01895613361336  0.27571454045405
 6 -5.17691623762376 -0.99217629052905 -0.37043392139214
 6  4.46528531453145  1.32212840684068  0.00959887488749
 6 -3.96588788578858 -0.27547977197720 -0.24513732873287
 6  3.17007449844985  1.77041143214321  0.24059817581758
 6 -2.56606206220622 -0.64330440944094 -0.39125748074807
 6  2.86682824982498  3.14748244024402  0.74161181918192
 6 -2.40757952595260 -2.08580207220722 -0.78433965996600
 6  2.13883297229723  0.87960002400240  0.08016733673367
 6 -1.60442240224022  0.24998288728873 -0.11494544554455
 6  0.78519534853485  1.02950576457646  0.28854018201820
 6 -0.26031590159016 -0.01357895789579 -0.11701267126713
 1  13.36617519751975 -1.36864027412741  1.64992068106811
 1  12.98183168216822 -2.80584379847985  1.59318700270027
 1 -14.62740571357136 -0.94970241214121  0.85283620462046
 1 -14.17573106810681 -0.36512438433843 -0.82391424742474
 1  12.87796880388039 -2.79460876797680 -1.05001555955596
 1 -13.12736316831683  1.29486346844684  1.75062279627963
 1  14.04729931693169  0.29340191809181 -0.70953613461346
 1  13.50939649664966 -0.86092144924492 -2.02992572357236
 1 -13.21587679667967  1.93092815291529 -1.29425216821682
 1 -12.51457743074307  2.76677169726973 -0.02678164216422
 1  10.79935262426243 -2.02541097009701  2.97341203720372
 1  9.58557688468847 -0.86655645464547  2.12620937593759
 1  11.14619836183618 -0.09726859395940  2.71128451445145
 1  10.85654191719172 -3.20339511351135 -0.55296197919792
 1  10.21817081998200 -3.69631827482748  1.16547598759876
 1  9.37324464146415 -2.52065337333733  0.17643436443644
 1 -12.04320600660066 -0.38659115301530  2.52363266026603
 1 -10.93536637563756 -1.62180472437244  1.92476626062606
 1 -12.94768566156616 -2.31178859875988  2.73192377237724
 1 -13.62275272427243 -3.07033572947295 -0.07802967196720
 1 -11.77787302230223 -3.02264885378538 -0.08009511151115
 1 -12.68103596259626 -2.23972316421642 -1.27117985998600
 1  8.79760166316632 -0.11212562356236  0.54662178317832
 1 -10.28950371537154 -2.02966002990299 -0.50015381738174
 1  10.72590388238824  1.41769643964396 -2.25839789878988
 1  12.30048587758776  2.14931587448745 -1.77621322932293
 1  12.24349601960196  0.84468532343234 -3.12052474147415
 1 -10.80293469446945  2.49083464756476 -2.10298101910191
 1 -10.06125210321032  1.10928494759476 -2.13062902990299
 1 -9.78467265126513  2.46169882398240 -0.89011216721672
 1  14.98903803180318 -2.86906223332333  0.47250553055305
 1 -15.61309600260026  1.34478177827783  1.30544164016402
 1  10.19229514851485  2.33376028402840 -0.46718989398940
 1 -8.63028776477648  0.49754435553555  0.04479385338534
 1  9.05246293329333  4.14109749174917  0.72078791979198
 1  7.63158954595459  4.39826468746875 -0.30149649564957
 1  7.51847110711071  3.92496356435644  1.62924976297630
 1 -7.99249204320432 -3.28193285118512 -0.11840712971297
 1 -8.00028439943994 -2.77218722162216 -1.77195908490849
 1 -6.48366413841384 -2.97754229412941 -0.65793122712271
 1  6.89410526552655  0.50001321632163 -0.32858073307331
 1 -6.34301127712771  0.64134162926293  0.01832670767077
 1  5.60799850485049  2.99438511051105  0.79956646564657
 1 -4.89835030603060 -2.05451312931293 -0.83209935993599
 1  4.63117631063106  0.22786753275328 -0.48589065706571
 1 -4.12870427442744  0.62909228122812  0.19804108510851
 1  3.45703133113311  3.25153704370437  1.64629787078708
 1  1.78260652165217  3.32336331833183  0.86213081508151
 1  3.33417879787979  3.94960158515852  0.18187512951295
 1 -2.57613872887289 -2.70517280928093 -0.03566123112311
 1 -3.03615232823282 -2.30664772677268 -1.56301504350435
 1 -1.30450083508351 -2.32698024802480 -1.22224076707671
 1  2.51063242624262 -0.16110939193919 -0.39565577757776
 1 -1.70343496649665  1.23323156715672  0.17804389738974
 1  0.46625692469247  2.05757118411841  0.56359836983698
 1  0.25645743074307 -0.84491465546555 -0.62427410141014

