%nproc=4
%Mem=2GB
# td=(NStates=1) CAM-B3LYP/6-31G(d,p) 

TD

0 1
 8  14.66868239323932 -2.33081601470147 -0.25293221622162
 8 -14.73223828782878  1.85785109020902  0.93653318431843
 6  11.19790213621362 -1.51045359745975  1.01474763576358
 6 -12.33470863486349 -1.14625624352435  0.66367001100110
 6  12.48760232623262 -2.01202049814981  0.97265215721572
 6 -13.74298101710171 -0.40082810271027  0.71918473047305
 6  13.27216525552555 -2.05976829892989 -0.32041558655866
 6 -13.57759705270527  1.16864552565256  1.00983223422342
 6  10.94149347634763 -0.26374400140014  0.18597530453045
 6 -11.27931429542954 -0.24277528442844 -0.14790246624662
 6  13.16376686768677 -0.60913939903990 -0.85286804080408
 6 -12.74536697469747  1.67741074817482 -0.21774112711271
 6  11.84138000700070  0.08469885278528 -0.75710835383538
 6 -11.45826642164216  0.99997662676268 -0.63046504250425
 6  10.66803784478448 -1.21825726672667  2.53539692369237
 6  10.28211883188319 -2.65436320432043  0.50745413541354
 6 -11.83042484848485 -1.40543023492349  2.09207533853385
 6 -12.66916341134113 -2.44887610951095 -0.05543428142814
 6  9.61359660066007  0.33681263426343  0.23550751075107
 6 -10.06600217221722 -0.99781252315232 -0.34033531853185
 6  11.75972185218522  1.27923309720972 -1.81768375837584
 6 -10.47934622262226  1.70982045914591 -1.42524941494149
 6  9.38656256125613  1.71736797979798 -0.03115647564756
 6 -8.76612800980098 -0.42262421132113 -0.35740084208421
 6  8.10655976097610  2.42229821282128  0.07819859485949
 6 -7.54690272427243 -1.17526585448545 -0.58778494749475
 6  8.15428721272127  3.78295715071507  0.41093527752775
 6 -7.58162645964596 -2.66416599349935 -1.11098978397840
 6  6.91148111911191  1.67555649664966 -0.08192067706771
 6 -6.39325202220222 -0.53853211511151 -0.32455138013801
 6  5.60091080508051  2.10410464846485  0.09840680968097
 6 -5.07711625762576 -1.01127820072007 -0.48802568056806
 6  4.44707349334933  1.29168536253625 -0.10455254025403
 6 -3.94136543354335 -0.19838206220622 -0.42737555255526
 6  3.13046053705371  1.78587297829783  0.09937405340534
 6 -2.56269172517252 -0.61915199419942 -0.57773612861286
 6  2.84087565456546  3.20882857485749  0.44114177217722
 6 -2.33108187618762 -1.98060155215522 -1.01870309630963
 6  2.21253034203420  0.77272933693369 -0.15263594359436
 6 -1.55554751475148  0.15092298129813 -0.24558850985099
 6  0.77743457245725  1.02088490249025 -0.08449712171217
 6 -0.18841871187119  0.03501590159016 -0.30660163016302
 1  13.22325090509051 -1.49896330643064  1.67316300530053
 1  12.70262376137614 -3.14069728382838  1.32438012201220
 1 -14.31596456945695 -0.79756719861986  1.51539246024602
 1 -14.17140063506351 -0.69440731263126 -0.20929278527853
 1  12.61771277827783 -2.63796310341034 -1.16585714371437
 1 -13.25760619261926  1.26925090719072  2.15790352435244
 1  13.94103869086909 -0.05534295639564 -0.34999018001800
 1  13.70724628162816 -0.52730808790879 -1.74198692969297
 1 -13.34956016501650  1.78270333043304 -1.03509625262526
 1 -12.30731670467047  2.77177219731973 -0.07907687168717
 1  10.92710539953995 -1.87468589758976  3.35382007800780
 1  9.55633396039604 -1.20895069406941  2.62429918491849
 1  11.11095483748375 -0.15982484958496  2.76566995299530
 1  10.61538780178018 -2.80014478847885 -0.57439412241224
 1  10.47520652355236 -3.63286192919292  0.91991143114311
 1  9.18876619361936 -2.45203651165117  0.35214193519352
 1 -11.98434012001200 -0.27447994189419  2.73567386438644
 1 -10.86989982898290 -1.69015155905591  1.93944772877288
 1 -12.65967686068607 -1.95133255315531  2.49646022602260
 1 -13.42688313731373 -3.13358205410541  0.27855598659866
 1 -11.91034626962696 -3.21847843674367  0.06039893789379
 1 -12.82620047904790 -2.41363055495550 -1.08589133113311
 1  8.80891279427943 -0.31032544354435  0.57911503250325
 1 -10.11357612261226 -2.00498756265627 -0.56514031603160
 1  10.69799109110911  1.33483815381538 -2.02293435243524
 1  11.91483731273127  2.30068101100110 -1.42632824082408
 1  12.41034270427043  1.09314016891689 -2.69583227222722
 1 -11.02468686968697  2.25524108820882 -2.31699242024202
 1 -9.71126710471047  1.02418643774377 -1.84990095709571
 1 -10.13697788178818  2.61673432753275 -0.99655281128113
 1  14.68813794179418 -3.29566489358936  0.03534181418142
 1 -15.41235592859286  1.57281458155816  1.66712780878088
 1  10.34883080208021  2.35146205420542 -0.20618379337934
 1 -8.48192292829283  0.76768136923692 -0.00166079207921
 1  9.06053374037404  4.47940132213221  0.60545638663866
 1  7.44457084408441  4.24464932593259 -0.42285863186319
 1  7.44746400640064  4.05819688768877  1.26106294429443
 1 -7.93584637863786 -3.39183384128413 -0.42469775877588
 1 -8.29419379037904 -2.73210321322132 -1.96817870687069
 1 -6.57694346634664 -3.17536207610761 -1.46391182518252
 1  6.87329318431843  0.66834004900490 -0.48240611561156
 1 -6.46044302030203  0.49348684378438 -0.06484160916092
 1  5.38328603360336  3.17035270727073  0.36124263326333
 1 -4.79264973597360 -2.01358903690369 -1.03466961696170
 1  4.62096528952895  0.31626637263726 -0.13416548454846
 1 -4.25714711871187  0.85697506950695 -0.00626934593459
 1  3.49476510451045  3.54967685768577  1.28301154215422
 1  1.74335259625963  3.26504748674868  0.88721332333233
 1  3.00372575257526  3.90186681168117 -0.25840889888989
 1 -2.68412952795280 -2.67176946894689 -0.23370103510351
 1 -2.72462117511751 -2.31047810981098 -1.95546428842884
 1 -1.26291667666767 -2.20429797979798 -1.14418296129613
 1  2.39889125212521 -0.12949623062306 -0.39607581958196
 1 -1.94517914091409  1.25319356335634 -0.03249715671567
 1  0.28994929392939  1.81593702070207  0.08227023702370
 1  0.24458624362436 -1.01425158915892 -0.24381605560556

