%nproc=4
%Mem=2GB
# td=(NStates=1) CAM-B3LYP/6-31G(d,p) 

TD

0 1
 8  14.63255878087809 -2.34584751785179 -0.32363928692869
 8 -14.79143420742074  1.81750705580558  0.97134666566657
 6  11.17990033603360 -1.38947149924992  0.95405156615662
 6 -12.34622978697870 -0.99205082298230  0.53350699469947
 6  12.76050961696169 -1.83580287638764  1.14262915491549
 6 -13.74086080508051 -0.25676369626963  0.48262107410741
 6  13.28442648164816 -1.85745806790679 -0.28954249924992
 6 -13.53337263026303  1.22094075517552  0.86090734173417
 6  11.03584291129113 -0.16016364336434 -0.00283357635764
 6 -11.34832119611961 -0.21915292219222 -0.26291396739674
 6  13.32910340134013 -0.54320280538054 -0.93605635963596
 6 -12.70387282528253  1.92251525862586 -0.15907526052605
 6  12.01516738573858  0.21263164606461 -0.83175581858186
 6 -11.56226682168217  1.05158178727873 -0.61206320232023
 6  10.63160420142014 -1.23097853885389  2.32260564456446
 6  10.37141776177618 -2.64831259925993  0.31497488748875
 6 -11.92167397339734 -1.32549224112411  1.96018214921492
 6 -12.55040153515352 -2.39147036893689 -0.24398313631363
 6  9.64278951995199  0.37362631563156  0.11491545154515
 6 -10.08755432743274 -0.94991773367337 -0.52022330733073
 6  11.77613349334933  1.22359753365337 -1.91228321832183
 6 -10.56165445344534  1.83456293339334 -1.47324421442144
 6  9.44496840184019  1.72166840984098  0.00490713071307
 6 -8.84340573757376 -0.44333628252825 -0.43893899589959
 6  8.04328343334333  2.30316629962996  0.16627740274027
 6 -7.65054308830883 -1.21899022692269 -0.47849401840184
 6  8.00564234823482  3.75468432343234  0.45612979697970
 6 -7.65021331833183 -2.68230780768077 -0.94274295929593
 6  6.90835080608061  1.58339728072807 -0.00368285328533
 6 -6.39746244324432 -0.62267052895290 -0.25435436043604
 6  5.56424713871387  2.12728696669667  0.12800976997700
 6 -5.05479402540254 -1.21363843674367 -0.33746062406241
 6  4.46051483748375  1.30265645964596 -0.12440452545255
 6 -4.01052234923492 -0.38559078307831 -0.22003481848185
 6  3.12298978997900  1.67234162516252  0.11928604460446
 6 -2.57740319631963 -0.83700377937794 -0.28499685468547
 6  2.81706327332733  3.15483317531753  0.46009366736674
 6 -2.33716248424843 -2.21366485848585 -0.74612583858386
 6  2.13037212621262  0.76863892789279 -0.14397507750775
 6 -1.54646660666067  0.09482737173717 -0.02330628162816
 6  0.80782761176118  0.91544435843584  0.04817614561456
 6 -0.16677654765477 -0.05708330833083 -0.21331230123012
 1  13.38543712371237 -1.07743115321532  1.64280996999700
 1  12.71172467146715 -2.84001721582158  1.58807649164916
 1 -14.28283125612561 -0.66424386628663  1.26532745374537
 1 -14.31894538953895 -0.30284815671567 -0.40183203920392
 1  12.60562156915692 -2.60489979707971 -0.88764932293229
 1 -12.98626905890589  1.22273625572557  1.86678441244124
 1  14.23465805280528 -0.07200462256226 -0.52839802080208
 1  13.45451100810081 -0.81872722982298 -2.02571530253025
 1 -13.28337354635464  1.89133419351935 -1.18634137713771
 1 -12.31047702070207  2.88693371347135  0.11954299029903
 1  10.92409509850985 -1.95523395239524  3.11706640264026
 1  9.53071139813981 -0.96597639663966  2.27263401840184
 1  11.06042978497850 -0.43213208030803  2.86138952495250
 1  10.58598486148615 -2.66026080008001 -0.89939662266227
 1  10.60683968686869 -3.53763240624062  0.88737817781778
 1  9.31940925792579 -2.34263557155716  0.51019774077408
 1 -12.11556324232423 -0.31462395629563  2.37203750075008
 1 -10.75466830583058 -1.66219876377638  1.96120990499050
 1 -12.37366825982598 -2.10416783668367  2.65112569256926
 1 -13.46187663666367 -2.87928662456246  0.24138226922692
 1 -11.71957719271927 -3.18901549044904 -0.00088719071907
 1 -12.72580043904390 -2.12387157905791 -1.18997173917392
 1  8.91104300730073 -0.54879929092909  0.41990911191119
 1 -10.10395516051605 -1.94734179807981 -0.70372417441744
 1  10.78367965996600  1.38428309830983 -2.22049410841084
 1  11.97854368336834  2.18099904280428 -1.31927753575358
 1  12.44228589858986  1.16527738263826 -2.85252794179418
 1 -11.07754215521552  2.72843840794079 -2.02326304730473
 1 -9.97418339633963  1.29640365946595 -2.04489045604560
 1 -9.71015519951995  2.41776443054305 -0.69657281328133
 1  14.81339046704671 -3.16983231033103  0.44500278027803
 1 -15.35867056005601  1.40025732583258  1.71122221822182
 1  10.24904082308231  2.36181308930893 -0.35812898789879
 1 -8.74417915391539  0.49550415151515 -0.13135376137614
 1  8.96513420042004  4.04825820782078  0.64397023802380
 1  7.46099248624862  4.26899176017602 -0.24064041004100
 1  7.34607386738674  3.99745081308131  1.36199303730373
 1 -8.14920771477148 -3.26460111801180 -0.23636892589259
 1 -8.46002037303730 -2.54927493039304 -1.83276516551655
 1 -6.62277804980498 -3.04540908080808 -1.41425685968597
 1  6.96890274527453  0.70856407140714 -0.39220709570957
 1 -6.53307028302830  0.39469696479648  0.06191106610661
 1  5.55188289328933  3.21703737573757  0.44622113111311
 1 -5.06131660266027 -2.17929560756076 -1.06624277427743
 1  4.52221541454145  0.16276102210221 -0.48637070507051
 1 -4.16882828682868  0.77981735373537  0.02279356035603
 1  2.94369999799980  3.19798168816882  1.64775801680168
 1  1.80118837983798  3.32563354535454  0.42618722072207
 1  3.52010739073907  3.72013863886389 -0.10192325032503
 1 -2.85580669566957 -3.08648094009401 -0.27488515351535
 1 -2.71368008100810 -2.38931599359936 -1.70360910291029
 1 -1.26664704970497 -2.64518206820682 -0.60482902590259
 1  2.47068843184318 -0.36282956395640 -0.27692390439044
 1 -1.75807043004300  1.02941118511851  0.26884297729773
 1  0.44391469046905  1.87527295429543  0.34861687168717
 1  0.01677346234623 -0.98125828982898 -0.64523619761976

