%nproc=4
%Mem=2GB
# td=(NStates=1) CAM-B3LYP/6-31G(d,p) 

TD

0 1
 8  14.60724624962496 -2.59300223332333 -0.32003892689269
 8 -14.91792685668567  1.68804410951095  1.00457998899890
 6  11.13202554855486 -1.54490704280428  0.95146130713071
 6 -12.36937210121012 -1.12982460036004  0.68404204820482
 6  12.64128769476948 -2.03592288838884  1.10375526752675
 6 -13.68642536153615 -0.43533155305531  0.63702651465147
 6  13.26339437843784 -2.06114843694369 -0.28304184918492
 6 -13.61834112711271  1.03238189928993  0.85783703470347
 6  10.95469479647965 -0.29939756675668  0.02448915591559
 6 -11.29953631763176 -0.34832583948395 -0.09569724572457
 6  13.25571606260626 -0.59272775787579 -0.92603535753575
 6 -12.85496793479348  1.72267527462746 -0.26499585258526
 6  11.88084395339534  0.09641002390239 -0.94463710671067
 6 -11.47911850685069  0.96734336343634 -0.55093708970897
 6  10.64822586358636 -1.09859530053005  2.44667805180518
 6  10.30351097109711 -2.72535030303030  0.52580597059706
 6 -11.90286209220922 -1.31954164606461  2.17861399239924
 6 -12.58968546354635 -2.57554877677768 -0.02766150415042
 6  9.61758699969997  0.38428738173817  0.17255121512151
 6 -10.00209578157816 -0.99573231513151 -0.27416870187019
 6  11.69714559455946  1.26325149904991 -1.87721971197120
 6 -10.66663495149515  1.66657613471347 -1.54478136813681
 6  9.42772667766777  1.69759600260026  0.02403904390439
 6 -8.81597299429943 -0.33021497039704 -0.30523562556256
 6  8.14831393639364  2.37167315031503  0.25383615861586
 6 -7.60145817981798 -1.09090741864186 -0.58292446144614
 6  8.01107289128913  3.79788864386439  0.52928711271127
 6 -7.54778307530753 -2.56434601150115 -1.01508019301930
 6  7.03076304730473  1.58850779177918  0.03231074607461
 6 -6.29285198219822 -0.51580984288429 -0.51665059005901
 6  5.70027074107411  2.06869110711071  0.10082705170517
 6 -5.03441198719872 -0.90123719661966 -0.71484836283628
 6  4.50717950395040  1.40291648564857  0.02731064606461
 6 -3.89528082508251 -0.17190941494149 -0.50557337233723
 6  3.15758324932493  1.77491188218822  0.05989010501050
 6 -2.59158461446145 -0.63674375337534 -0.57129548454845
 6  2.98602016901690  3.26337402940294  0.41753941194119
 6 -2.24711347934793 -2.00457394939494 -0.89325055105511
 6  2.09172826182618  0.80223228722872 -0.08719939993999
 6 -1.66809876987699  0.34281217021702 -0.25016896789679
 6  0.80223705270527  1.17586040004000 -0.08158683068307
 6 -0.17241711171117  0.16912931293129 -0.29071004100410
 1  13.10433901390139 -1.48472188228823  1.85983167216722
 1  12.36871037003700 -2.97974118821882  1.84105178917892
 1 -14.26707968096810 -0.91725916781678  1.59413033403340
 1 -14.19989348434843 -0.70362823472347 -0.34028588458846
 1  12.68741974897490 -2.72803211031103 -0.94238479647965
 1 -12.97182761476147  1.14579856195620  1.75393312731273
 1  14.02487707470747  0.08808138603860 -0.22382756375638
 1  13.73113867086709 -0.73108846594659 -1.84941767276728
 1 -13.20052526152615  1.76649170927093 -1.28231097409741
 1 -12.52470844384438  2.77944296439644  0.09654069006901
 1  10.70805349434944 -2.02449087808781  3.23610830683068
 1  9.45498382538254 -0.99304910391039  2.46323307830783
 1  11.21357509950995 -0.23196206330633  2.76442982898290
 1  10.72194845784579 -3.08945371937194 -0.31836851985198
 1  10.48863786668667 -3.38945758875888  1.26811625162516
 1  9.22344966196620 -2.44606591459146  0.48523524452445
 1 -11.53133481948195 -0.45398789268927  2.68233853085309
 1 -10.89752259125913 -1.97879042294229  2.05454923892389
 1 -12.57082797579758 -1.92939035893589  2.55380596059606
 1 -13.36133658265826 -3.20141883778378  0.28130626162616
 1 -11.53266850185019 -3.14673126202620  0.04943784178418
 1 -12.82470032903290 -2.31785097699770 -1.10937367936794
 1  8.71565346834683 -0.23599801080108  0.57248436943694
 1 -10.11674643964396 -2.15782284618462 -0.33315711771177
 1  10.55381667366736  1.49629429942994 -1.87113917291729
 1  12.28558438743874  2.18199914281428 -1.46706231423142
 1  12.14046571657166  1.05501635653565 -2.91202389138914
 1 -11.36451085208521  2.36048161226123 -2.28028874987499
 1 -10.08418439643964  1.12692671177118 -2.22900886788679
 1 -9.78509269326933  2.18316097019702 -0.99596275227523
 1  14.68692782078208 -3.38122344944494  0.24120240024002
 1 -15.30575526852685  1.35148244834483  1.75979707570757
 1  10.14162008100810  2.57390429842984 -0.05302847784778
 1 -8.61947668366837  0.62694729582958  0.12408178217822
 1  8.94534222122212  4.15718910091009  1.17813365436544
 1  7.46667305430543  4.25511037203720 -0.37326367236724
 1  7.33632289228923  4.06295736373637  1.25031186918692
 1 -8.00732352635264 -3.08937359525953 -0.15746103510351
 1 -8.40759513051305 -2.87944794769477 -1.82554444344435
 1 -6.47056282828283 -2.89241378127813 -1.12003743774377
 1  7.00453630863086  0.60349356435644 -0.37469534453445
 1 -6.37491446744674  0.48364585968597 -0.34357948294829
 1  5.61588929392939  3.10950662266227  0.44294080308031
 1 -4.92782325332533 -2.11459913791379 -1.17128327832783
 1  4.52021521452145  0.24832957895790 -0.26521858985899
 1 -4.00831223522352  0.93793316531653 -0.17591631063106
 1  3.71654728272827  3.44071596159616  1.29488272927293
 1  1.92126038703870  3.40014099609961  0.70427502950295
 1  3.22699807980798  4.03351997699770 -0.46532959095910
 1 -2.64496561156116 -2.60530282228223  0.12180451545155
 1 -2.70349906290629 -2.31420848284828 -1.88451719371937
 1 -1.24530491549155 -2.17725527552755 -0.77591613461346
 1  2.28896025902590 -0.14547782878288 -0.32501871387139
 1 -2.18412303530353  1.35674391839184  0.04072016501650
 1  0.35915621462146  2.24041946894689  0.18634064406441
 1  0.25684746974697 -0.84076424042404 -0.45731740574057

