%nproc=4
%Mem=2GB
# td=(NStates=1) CAM-B3LYP/6-31G(d,p) 

TD

0 1
 8  14.76597212221222 -2.12645557865787 -0.16990391339134
 8 -14.62020708470847  2.10870617571757  1.08630816181618
 6  11.25987833383338 -1.35717826992699  0.99818597959796
 6 -12.47030219421942 -1.00343196109611  0.69428307230723
 6  12.67930149614961 -1.79906920302030  1.09436432843284
 6 -13.70074679367937 -0.15686370627063  0.64976778877888
 6  13.31909994899490 -1.74010633273327 -0.27314085908591
 6 -13.47701699469947  1.36887554865487  1.02556380738074
 6  10.90344967196720 -0.17117474447445  0.12448915591559
 6 -11.31442780678068 -0.28687969486949 -0.07605528152815
 6  13.23418390939094 -0.41866035113511 -0.92002475647565
 6 -12.57447988598860  1.94736774387439 -0.09053840684068
 6  11.79674554355436  0.18947933083308 -0.83140578357836
 6 -11.42677327232723  1.09133576267627 -0.48192018801880
 6  10.72811385238524 -1.17266270727073  2.42222560656066
 6  10.34472509250925 -2.62018978697870  0.33676706670667
 6 -11.98016982298230 -1.33806349824982  2.07838396939694
 6 -12.77007350235023 -2.28813003490349 -0.07883662166217
 6  9.66316155715571  0.40738969196920  0.16804076407641
 6 -10.05583115511551 -0.93799654155416 -0.44249553455346
 6  11.56007188718872  1.27687286118612 -1.80025201520152
 6 -10.52295058305831  1.70339981708171 -1.47135402540254
 6  9.35357926292629  1.79138538153815  0.09800644064406
 6 -8.82436383338334 -0.51056300520052 -0.35293039503950
 6  8.03251235623562  2.25921190419042  0.24097487248725
 6 -7.55869390339034 -1.16244457235724 -0.61084725372537
 6  7.86140792479248  3.71956081108111  0.56759094309431
 6 -7.75989428642864 -2.67272684958496 -0.93758244324432
 6  6.92668263926393  1.52995193619362  0.11559907490749
 6 -6.35532822982298 -0.64108237013701 -0.54110303530353
 6  5.55900661466147  1.94058829682968  0.15078204720472
 6 -5.03573211921192 -1.23550062296230 -0.76509338733873
 6  4.54015280128013  1.15476167016702  0.06385430043004
 6 -3.92350364736474 -0.56705892989299 -0.49802261726173
 6  3.20105759675968  1.56823121412141  0.05459957595760
 6 -2.54213966996700 -0.92845292429243 -0.61356971197120
 6  2.78785035203520  3.03927161916192  0.38288594659466
 6 -2.25634440244024 -2.35340883288329 -0.94276550255026
 6  2.14560364936494  0.65273733773377 -0.22352303230323
 6 -1.56774873487349  0.07458534753475 -0.41623557455746
 6  0.76214304330433  0.81830464446445 -0.20008868086809
 6 -0.15544541454145 -0.15447304730473 -0.44044501450145
 1  13.27040562056206 -1.00724413451345  1.71086677567757
 1  12.93513701270127 -2.68211142524252  1.43150083408341
 1 -14.12338531153115 -0.37888533043304  1.44542546354635
 1 -14.17513100810081 -0.13097096899690 -0.27293914991499
 1  12.85694670167017 -2.59544885198520 -0.78789934793479
 1 -12.70452088408841  1.53689767186719  1.92350008400840
 1  13.91750633763376  0.22173475137514 -0.34397957895790
 1  13.56197175417542 -0.59298465556556 -1.90022275327533
 1 -13.13272848184818  2.20729578967897 -0.95181792479248
 1 -12.09726569956996  2.87936295639564  0.22290332633263
 1  10.73505619461946 -2.00244867386739  3.14899959595960
 1  9.60700902790279 -0.75185498449845  2.31331808680868
 1  11.26624036603660 -0.38276714381438  3.03431681768177
 1  10.72877914091409 -2.94404917891789 -0.42601928492849
 1  10.48703770667067 -3.44837348034803  0.88988842884288
 1  9.29355667266727 -2.51930323832383  0.29739646064606
 1 -11.73858554455446 -0.39298179207921  2.69898019501950
 1 -11.19914275327533 -1.89321186508651  1.84758854285429
 1 -12.62381327432743 -1.86197361726173  2.76755733573357
 1 -13.67065751475147 -2.79097779367937  0.34548267926793
 1 -12.05824105910591 -3.03040962986299 -0.01911901390139
 1 -13.00523838283828 -2.29303849574957 -1.15039778177818
 1  8.86064796779678 -0.27693210421042  0.66385350635064
 1 -10.14617938293829 -1.90732779667967 -0.50224402640264
 1  10.45021631363136  1.25493016301630 -2.05550760976098
 1  11.87934376337634  2.25762670557056 -1.38351395939594
 1  12.25974764476448  1.16223707860786 -2.57800048904890
 1 -11.00825522652265  2.21861742584258 -2.37373809480948
 1 -9.91653763176318  0.93450746984698 -1.97005297229723
 1 -9.65484966896690  2.45246790089009 -0.95709886588659
 1  14.81790091809181 -3.30504583168317 -0.14901662166217
 1 -15.17940263326333  1.74188148824882  1.57883897989799
 1  10.18046396539654  2.42681958995900  0.14856168116812
 1 -8.71049578557856  0.51558615971597  0.09936931093109
 1  8.72622030903090  4.43493687568757  0.77023286428643
 1  7.34365075207521  4.54802966396640 -0.17037338333833
 1  7.26172543254325  3.92861392939294  1.56058289628963
 1 -7.80934372837284 -3.60024468236824 -0.12437772677268
 1 -8.67077144814481 -2.88049805270527 -1.53054494349435
 1 -6.88784455645565 -2.99068360826083 -1.51563699769977
 1  7.20442629762976  0.37720093509351 -0.19627750275027
 1 -6.31178815481548  0.46819431453145 -0.19863498849885
 1  5.62697040204020  3.11861753375338  0.22652916191619
 1 -4.99282975397540 -2.30464814281428 -1.29734588458846
 1  4.61503469646965  0.06379112511251  0.03000093209321
 1 -4.13779518351835  0.60998037003700 -0.20052877187719
 1  2.94982061006101  3.21842373237324  1.41744498549855
 1  1.80832909390939  3.38146912891289  0.00157475947595
 1  3.42258763876388  3.71927855285529 -0.49454251225123
 1 -2.74147526252625 -3.03636592859286 -0.25184284928493
 1 -2.45992470547055 -2.64258132013201 -1.99717845984598
 1 -1.13111349634963 -2.58994654465447 -0.71052959595960
 1  2.50207157015702 -0.43520680168017 -0.34099031103110
 1 -1.87639226222622  1.16094433843384 -0.18972287928793
 1  0.55655595459546  1.94243967096710  0.11852386238624
 1  0.06817860286029 -1.17062722672267 -0.73942561656166

