%nproc=4
%Mem=2GB
# td=(NStates=1) CAM-B3LYP/6-31G(d,p) 

TD

0 1
 8  14.73227875287529 -2.35179811291129 -0.41062798579858
 8 -14.96984204820482  1.80108541364136  0.72080161116112
 6  11.33746609260926 -1.46045859795980  1.01577773877388
 6 -12.36618178217822 -1.09097071497150  0.50047369136914
 6  12.75816938293829 -1.81422071817182  0.97944283628363
 6 -13.70872759175918 -0.38184620452045  0.56100891289129
 6  13.39532757175718 -1.93888621072107 -0.38590213521352
 6 -13.63026231923192  1.10150881198120  0.83734498549855
 6  10.88881820882088 -0.34390201720172 -0.02889618261826
 6 -11.28520488448845 -0.24108511541154 -0.22117979397940
 6  13.22762325332533 -0.57667615271527 -1.04361711571157
 6 -12.78209064706471  1.80567357445745 -0.18234758775878
 6  11.81730759975998  0.07813819671967 -0.96277892089209
 6 -11.57841843684368  1.01458808790879 -0.56646864286429
 6  10.89511055205521 -0.90496593759376  2.38365174917492
 6  10.31204182418242 -2.70557832583258  0.58801219121912
 6 -11.92254406040604 -1.24590428232823  2.04924105510551
 6 -12.49708620362036 -2.42846406830683 -0.14153289128913
 6  9.63696893789379  0.21827078007801  0.04008796879688
 6 -9.95362093409341 -0.93115585748575 -0.48562984798480
 6  11.70053593359336  1.10249542344234 -1.97622961296130
 6 -10.59598788678868  1.75868534563456 -1.49294618461846
 6  9.33621752675267  1.54247049004900  0.09422606260626
 6 -8.66473787078708 -0.48688063696370 -0.20981608360836
 6  8.06768587358736  2.21041702470247  0.20471124612461
 6 -7.52777081108111 -1.24650297819782 -0.46991316031603
 6  8.01647343134313  3.75620447544754  0.29528371237124
 6 -7.74791308830883 -2.65349492639264 -1.08075676067607
 6  6.83012298329833  1.48014695569557 -0.00798328332833
 6 -6.33424612161216 -0.51156941884188 -0.41312023702370
 6  5.57826854085409  2.11977621562156  0.29573654265427
 6 -5.02959150515052 -1.02271934483448 -0.47237411541154
 6  4.42979176517652  1.27736393039304  0.04400231523152
 6 -3.90607190419042 -0.28901112511251 -0.25767858285829
 6  3.06104359535954  1.75552994399440  0.32598671467147
 6 -2.61414687068707 -0.65448552755276 -0.35228358335834
 6  2.96439800680068  3.17145483748375  0.76104376237624
 6 -2.21721048904891 -2.03305679767977 -0.86173739973997
 6  2.06418550755075  0.91080314431443 -0.04419509950995
 6 -1.57804976497650  0.17627551655166 -0.11426537753775
 6  0.69574640364036  1.06781959595960  0.10286161416142
 6 -0.21351122112211  0.08599099909991 -0.12392336233623
 1  13.23219179917992 -1.14361777187719  1.68478416741674
 1  12.94601810081008 -2.81562477657766  1.66619430343034
 1 -14.28349132213221 -0.82812025392539  1.28700962196220
 1 -14.15894938993899 -0.47199507140714 -0.43225508150815
 1  12.76319732673267 -2.54730403750375 -1.20451100910091
 1 -13.21645207720772  1.27334131623162  1.84357209120912
 1  14.01593618061806 -0.00258768086809 -0.54725990699070
 1  13.60926648364837 -0.73082843994399 -1.95584831583158
 1 -13.37080228922892  2.03301836193619 -1.14218696169617
 1 -12.23979995299530  2.80230525062506 -0.05510447444745
 1  11.19634232323232 -1.44197262626263  3.35778047404740
 1  9.75362368936894 -0.87256705570557  2.61983873887389
 1  11.43911765376538  0.04784591749175  2.65986937293729
 1  10.66301256425643 -3.24602937693769 -0.39032571557156
 1  10.53628263116312 -3.45029367236724  1.36916635663566
 1  9.23498081508151 -2.42219352735274  0.60997771877188
 1 -11.93387507350735 -0.28891138503850  2.46594689168917
 1 -11.01143398239824 -1.79253179707971  2.05764954895490
 1 -12.48473936693669 -1.94281170107011  2.73256383638364
 1 -13.53587403640364 -3.10242893879388  0.31016914791479
 1 -11.87660289528953 -3.13023961286129  0.19414231223122
 1 -12.57730558955896 -2.42891208310831 -1.25949869186919
 1  8.92519442244224 -0.49917432843284  0.23108022902290
 1 -10.07276204120412 -2.06606367026703 -0.95874967696770
 1  10.50710200220022  1.60158482848285 -1.93838589758976
 1  12.21027685668567  1.99059000190019 -1.73060866886689
 1  11.93172484248425  0.65394624952495 -2.92081477047705
 1 -11.27286168716872  1.90745630973097 -2.45230595159516
 1 -9.86613259125913  1.19441346044605 -1.89884585158516
 1 -10.23435761976198  2.77953060716072 -0.91605476147615
 1  14.95126425442544 -3.18766409350935  0.16835511551155
 1 -15.61832652565256  1.53598089818982  1.43051414741474
 1  10.24168008700870  2.24511141914191 -0.04944811981198
 1 -8.39125386138614  0.44392899399940  0.17355672967297
 1  9.09410709770977  4.42263564556456  0.09131497249725
 1  7.35927231423142  4.08177303830383 -0.33761010701070
 1  7.66568582858286  4.01615268326833  1.32094893289329
 1 -8.36447924192419 -3.45882053995400 -0.56778206720672
 1 -8.12644701570157 -2.25046504940494 -2.13369525852585
 1 -6.82302807480748 -3.36306084598460 -1.26889232323232
 1  6.80935679067907  0.48007122212221 -0.29455733073307
 1 -6.25210218621862  0.49098659375938 -0.01671679667967
 1  5.35002270727073  3.07121279327933  0.66105261426143
 1 -4.80232070307031 -2.09076675467547 -0.88507465746575
 1  4.75218841184118  0.34609935593559 -0.41575364336434
 1 -3.97502890689069  0.87111648364836  0.02918419941994
 1  3.92881850985099  3.55773766376638  1.51870511151115
 1  1.79857811881188  3.29177015901590  1.46124072607261
 1  3.00131551155115  3.73533015801580 -0.32299535753575
 1 -2.89228034303430 -2.59925221722172 -0.35566323132313
 1 -2.60978969196920 -2.17818488048805 -1.92771151315131
 1 -1.25808619361936 -2.27125467546755 -0.63398194119412
 1  2.40035139813981 -0.10897417841784 -0.27664387638764
 1 -1.76660128312831  1.21526977097710  0.22272836583658
 1  0.27365766476648  2.07142256925693  0.44823683368337
 1  0.09701148614862 -0.87977814181418 -0.52369404340434

