%nproc=4
%Mem=2GB
# td=(NStates=1) CAM-B3LYP/6-31G(d,p) 

TD

0 1
 8  14.79651517651765 -2.18840177327733 -0.42639956295630
 8 -14.46143120712071  2.11999730483048  1.00141967296730
 6  11.31069341534153 -1.42983553565357  0.92718887988799
 6 -12.44476964096410 -0.97178879677968  0.53907755175518
 6  12.78903246924692 -1.84178347444745  0.95112000400040
 6 -13.61143786278628 -0.15398341824182  0.59871268326833
 6  13.37740577957796 -1.91532385448545 -0.45551909690969
 6 -13.30259955295530  1.27804646574658  0.90074132513251
 6  10.97355668266827 -0.20125775277528  0.01712841984198
 6 -11.25005136913691 -0.24323533043304 -0.29433710971097
 6  13.25878636963696 -0.46906539163916 -0.99120187418742
 6 -12.64440687868787  1.89566257335734 -0.32106145914591
 6  11.83631950095010  0.10035041794179 -0.92310495349535
 6 -11.43763435843584  0.94816144524452 -0.69982197819782
 6  10.92332337333733 -1.08473391439144  2.46897028102810
 6  10.46160678067807 -2.61727949594960  0.49938332833283
 6 -11.92542434843484 -1.26773646554655  1.98500463146315
 6 -12.81760825582558 -2.26071729362936 -0.13424216221622
 6  9.66883212421242  0.43189214221422  0.17148110811081
 6 -10.05771134313431 -1.04490723262326 -0.37634891989199
 6  11.39644552455246  1.02527770167017 -2.12238422842284
 6 -10.53231151915191  1.70232971007101 -1.65528241824182
 6  9.24577848284829  1.71621786478648  0.04721136113611
 6 -8.77422881988199 -0.60117206610661 -0.23924902690269
 6  8.01598070307031  2.29239522252225  0.30755153015302
 6 -7.61094912891289 -1.31362969086909 -0.52307847684769
 6  7.82838462246225  3.79583843884388  0.74398858285829
 6 -7.62748104510451 -2.77394697159716 -1.05523420842084
 6  6.86724669566957  1.55839478047805  0.21246876187619
 6 -6.35758845584559 -0.80573883578358 -0.31854077907791
 6  5.51848256225623  2.04321855985599  0.33372034103410
 6 -5.08400694669467 -1.29739681258126 -0.47866474447445
 6  4.39165795179518  1.26130232423242 -0.01332341734173
 6 -3.96462775977598 -0.32567479147915 -0.29775259025903
 6  3.01738922992299  1.72013640464046  0.19018313431343
 6 -2.51745720172017 -0.74042412141214 -0.41174952995300
 6  2.66090765776578  3.11302899489949  0.60580823882388
 6 -2.31900066806681 -2.27288078007801 -0.68377960396040
 6  2.08133722272227  0.75547761176118 -0.15249592959296
 6 -1.59177113711371  0.18654654365437 -0.19502345334533
 6  0.72791962096210  0.86661947594759 -0.13747241924192
 6 -0.26092596259626 -0.03460106010601 -0.30784175417542
 1  13.42790137013701 -1.09485289538954  1.48186387538754
 1  12.85086858585859 -2.85636885098510  1.58506619061906
 1 -14.44256722972297 -0.64895233713371  1.30642156315632
 1 -14.24488798379838 -0.21505937783778 -0.32481433743374
 1  12.93488449544954 -2.77673698079808 -1.03313387138714
 1 -12.69394982698270  1.54101808390839  1.82197993199320
 1  13.91826641364136  0.20706328422842 -0.35747092809281
 1  13.39308486548655 -0.05044040114011 -2.02443517451745
 1 -13.30245545454545  2.03240830093009 -1.15496823982398
 1 -12.20073604660466  2.88234325442544 -0.04528349234923
 1  11.07870055905591 -1.90708913791379  3.20390508650865
 1  9.77633596059606 -0.97630742974297  2.49438619361936
 1  11.52564630663066 -0.09824869196920  2.85917930393039
 1  10.88660492349235 -2.95561033503350 -0.38643532653265
 1  10.52123112601260 -3.44873351635164  1.18418785878588
 1  9.45706302330233 -2.40310161816182  0.32281900290029
 1 -11.89508119411941 -0.33612610651065  2.53349364636464
 1 -10.98419125812581 -1.74961750565057  1.95276906090609
 1 -12.71067196019602 -2.04295171507151  2.41036161616162
 1 -13.60174062306231 -2.84678337423742  0.42456058705871
 1 -11.92994822982298 -3.08916550545054 -0.02559966196620
 1 -13.19824768376838 -2.11277046894689 -1.18102084408441
 1  8.91125302830283 -0.22553696469647  0.43261038203820
 1 -10.11878664366437 -2.11225828972897 -0.73897769976998
 1  10.42937422942294  1.34794946494649 -2.17471953095310
 1  11.89621545054505  1.99244018691869 -1.98586419441944
 1  11.72461413141314  0.52174302920292 -3.08558124712471
 1 -10.86477087808781  2.25672123622362 -2.42946366736674
 1 -9.81168714671467  1.18837285638564 -2.19833580058006
 1 -9.95654983898390  2.51507416151615 -1.03666682268227
 1  14.79251837983798 -3.05801112821282 -0.16233795379538
 1 -15.38364305730573  1.63400070017002  1.31014211021102
 1  10.06654257325733  2.41924883288329 -0.16277945294529
 1 -8.67630236623662  0.32689729082908  0.02739211321132
 1  8.73135082208221  4.26575995799580  0.83766960796080
 1  7.31238762576258  4.36280114111411  0.05606926092609
 1  7.31691095109511  3.77204827282728  1.70797763576358
 1 -8.29735252925293 -3.33077773567357 -0.26430171917192
 1 -7.87715208620862 -2.84709471237124 -2.07595948494850
 1 -6.64087985998600 -3.01971651155116 -0.86546198019802
 1  6.91748760376038  0.55464867986799 -0.08327620262026
 1 -6.53369034503450  0.29075657075708  0.06451132613261
 1  5.31793949894989  3.01515718771877  0.86556306530653
 1 -4.83744421542154 -2.33686136413641 -0.75825197519752
 1  4.75539873287329  0.18273301930193 -0.51599366736674
 1 -4.13544494849485  0.74085345734573  0.11537281828183
 1  2.98549417741774  3.19341123112311  1.68483172417242
 1  1.78698695969597  3.50924190619062  0.27597219921992
 1  3.60546592659266  3.56694331933193  0.13641058305831
 1 -2.88632974797480 -2.74758705070507 -0.05368303330333
 1 -2.70484919791979 -2.30881794379438 -1.64349309130913
 1 -1.38862924792479 -2.54674222422242 -0.71085962896290
 1  2.42169353235324 -0.16442972397240 -0.54710092209221
 1 -1.87102172517252  1.18961720572057  0.11753784678468
 1  0.21727202620262  1.86625205220522  0.42996500650065
 1  0.09042082708271 -0.87689785378538 -0.60570224422442

