%nproc=4
%Mem=2GB
# td=(NStates=1) CAM-B3LYP/6-31G(d,p) 

TD

0 1
 8  14.68345387038704 -2.24872780588059 -0.04721164416442
 8 -14.68337340134013  1.82349765486549  1.20801033203320
 6  11.11873421942194 -1.56046859895990  1.02738889988999
 6 -12.29363452745275 -1.02221383928393  0.72734637863786
 6  12.62642620862086 -1.80081937803780  1.14639953195320
 6 -13.64667138613861 -0.36037405730573  0.86148896089609
 6  13.33046108510851 -1.91932425452545 -0.25138868386839
 6 -13.40117941094110  1.10508917001700  1.17931918291829
 6  10.94277360436044 -0.37864549154915  0.15056176317632
 6 -11.21537790179018 -0.27230823772377 -0.02713038903890
 6  13.27523801480148 -0.57022550765077 -0.81719447344734
 6 -12.76190862886289  1.83111611871187  0.02516316331633
 6  11.94387025602560  0.06098648154815 -0.72277492049205
 6 -11.52944353935393  0.95049167826783 -0.52777477347735
 6  10.65627666866687 -1.11362680368037  2.50477386138614
 6  10.20781140114011 -2.75336310431043  0.59519290929093
 6 -11.71722352835283 -1.30988067996800  2.14360049104910
 6 -12.57606410141014 -2.40371159305931  0.05810707270727
 6  9.57087232823282  0.36976592959296  0.33547750775078
 6 -10.01354692669267 -1.03624636653665 -0.37530881588159
 6  11.80455633563356  1.25166033993399 -1.77580957095710
 6 -10.80235852385238  1.77582705980598 -1.43604049404941
 6  9.35094899989999  1.64342058505851  0.15378201820182
 6 -8.75973737073707 -0.54272622152215 -0.29790489248925
 6  8.07611671667167  2.26024200720072  0.24105488048805
 6 -7.58180621462146 -1.25754408230823 -0.57428359735974
 6  7.98603038703870  3.76034488948895  0.43192737673767
 6 -7.69161745874587 -2.66663624052405 -1.19691837683768
 6  6.89516948794880  1.52971191219122  0.01320883588359
 6 -6.44124682168217 -0.58209647154715 -0.52311123612361
 6  5.58771948594860  2.05754999299930  0.18357532653265
 6 -5.07822636863686 -1.07794486738674 -0.73573045104510
 6  4.44873365936594  1.21227742174217 -0.14036612161216
 6 -3.97534883188319 -0.20990321432143 -0.71622443744374
 6  3.07579507050705  1.66288067906791 -0.03788967296730
 6 -2.58216367236724 -0.58649872887289 -0.81203955895590
 6  2.92804437143714  3.16214390639064  0.31959961796180
 6 -2.23839260726073 -1.99063255525553 -1.20785201120112
 6  2.10890997999800  0.88555061906191 -0.37967864786479
 6 -1.54862682268227  0.37224511351135 -0.57730168116812
 6  0.74744157315732  0.95682849684969 -0.27100577257726
 6 -0.23249311931193  0.13596599659966 -0.66249721972197
 1  12.82721130113011 -0.85076848694869  1.76834252325233
 1  12.92322582158216 -2.71116433053305  1.86076376037604
 1 -14.16391936493650 -0.84007144904490  1.65782670367037
 1 -14.28015151015101 -0.63851172307231 -0.05393724972497
 1  12.74273528052805 -2.62531183828383 -0.54456501450145
 1 -13.02899333133313  1.53225720782078  2.12348008200820
 1  14.02437702470247  0.19093167106711 -0.42190737173717
 1  13.54635019201920 -0.46783214031403 -1.92520525152515
 1 -13.46920212921292  1.82294735483548 -0.91015375837584
 1 -12.28316428942894  2.83146816691669  0.40353138913891
 1  10.60033272227223 -1.93947237623762  3.24507920392039
 1  9.65020334733473 -0.78461826082608  2.58476523152315
 1  11.21663540554055 -0.29249811691169  3.02753613961396
 1  10.29473573657366 -3.02698747274728 -0.50480716371637
 1  10.45713471637164 -3.54177282028203  1.18444788478848
 1  9.20064738173817 -2.41625293329333  0.94512123312331
 1 -11.27058874487449 -0.47833032693269  2.56850714771477
 1 -10.82529536853685 -1.82577512141214  2.05605938993899
 1 -12.52998389138914 -1.64822224212421  2.62161274127413
 1 -13.41202165116512 -2.73152184808481  0.51613974497450
 1 -11.77803303830383 -3.29120570947095  0.20420331833183
 1 -12.83789164816482 -2.35741493339334 -0.82508525052505
 1  8.61494339733973 -0.25530994199420  0.32428954995500
 1 -10.22810757575758 -2.09316638053805 -0.73350715271527
 1  10.78251954395440  1.42212688268827 -1.62581464046405
 1  12.09378520752075  2.21947289018902 -1.41998760676068
 1  12.17259892989299  0.68933978887889 -2.64541723072307
 1 -11.41163556455645  2.30422598669867 -2.17769849084908
 1 -10.07805378337834  1.18201222032203 -2.02420838783878
 1 -10.17410159415942  2.58368102220222 -0.91957511351135
 1  14.42073120112011 -3.13401872897290  0.49359763976398
 1 -15.13589828282828  1.48565586568657  2.00125122112211
 1  10.03927984698470  2.36785369336934  0.06218304330433
 1 -8.68655339133913  0.32426702780278  0.05319469346935
 1  9.13860154715471  4.04040742274227  0.64980082108211
 1  7.55246163316332  4.35627048804880 -0.52372871887189
 1  7.47090635063506  3.71306237423742  1.46349318731873
 1 -8.55151794579458 -3.29010366826683 -0.63283857285729
 1 -8.06229060006001 -2.45938594149415 -2.37155904490449
 1 -6.78762453445345 -3.18337287718772 -1.18300373437344
 1  6.93386924192419  0.48081129612961 -0.32982085708571
 1 -6.61208818481848  0.33288078317832 -0.39602472747275
 1  5.44914261926193  3.03880955295530  0.18747525652565
 1 -4.96202667366737 -2.11045872387239 -0.92232838283828
 1  4.48361155415542  0.18349309530953 -0.28300036803680
 1 -4.16925832983298  0.78752812481248 -0.24479319831983
 1  3.08727435543554  3.16901879187919  1.36418965996600
 1  1.88253651465147  3.35257623962396  0.05073967596760
 1  3.46807218721872  3.75829245424542 -0.41033409140914
 1 -2.54729584458446 -2.58207049904990 -0.26912457745775
 1 -2.87771648464846 -2.11720878287829 -1.95750449244925
 1 -1.19074945994599 -2.04426197619762 -1.60941948494850
 1  2.66938830183018  0.00309702870287 -0.77010322232223
 1 -1.78530315331533  1.12755099909991 -0.17873178017802
 1  0.45193549254925  2.06268169516952  0.11045305530553
 1  0.21458324332433 -0.89333949794979 -1.05090676467647

