%nproc=4
%Mem=2GB
# td=(NStates=1) CAM-B3LYP/6-31G(d,p) 

TD

0 1
 8  14.71564708970897 -2.18482141524152 -0.34533145614561
 8 -14.86925198919892  1.83587889298930  0.88316784778478
 6  11.20759310531053 -1.45701825392539  1.03799996099610
 6 -12.23574873887389 -0.93369498739874  0.72725636963696
 6  12.74836840284028 -1.77906720282028  1.01761665366537
 6 -13.66212293129313 -0.22727074697470  0.67128994099410
 6  13.36373441244124 -1.87459978207821 -0.43329687468747
 6 -13.54084337733774  1.27971663276328  0.89662091309131
 6  10.97572689968997 -0.31728935593559  0.06489319631963
 6 -11.33995035903590 -0.29261026792679 -0.18483615961596
 6  13.22100259125913 -0.42924140924092 -0.99157191119112
 6 -12.70153259125913  1.85793880098010 -0.23461281428143
 6  11.83413928292829  0.17587797069707 -0.80612325532553
 6 -11.45201579657966  1.02684931403140 -0.56158815481548
 6  10.74979602060206 -1.10514595559556  2.42701608560856
 6  10.32421304130413 -2.63703147114712  0.58006139613961
 6 -11.71855366136614 -1.02379207110711  2.08748487948795
 6 -12.55800229522952 -2.40287150905091  0.12958422042204
 6  9.62186742774277  0.27815676867687  0.25962992299230
 6 -10.03997956995700 -0.97345008690869 -0.42806409140914
 6  11.54066994699470  1.30499567346735 -1.82765475547555
 6 -10.53807209520952  1.73964344144414 -1.53353024302430
 6  9.32550645564556  1.65615185818582  0.12517915791579
 6 -8.80350174717472 -0.56224817371737 -0.19208431043104
 6  7.95431453645365  2.17273325632563  0.15468624362436
 6 -7.56125415941594 -1.30635896379638 -0.50118628762876
 6  8.06158794279428  3.65671452645265  0.51539572357236
 6 -7.81445974297430 -2.56081565846585 -1.28660734573457
 6  6.86824679567957  1.38235717671767  0.07072458745875
 6 -6.35338803580358 -0.73958222012201 -0.29534845984598
 6  5.58289900390039  2.04324856285629  0.31398836783678
 6 -5.00729927592759 -1.12418949184919 -0.65875275327533
 6  4.41737052305230  1.25464165816582  0.00309822482248
 6 -3.90332162916292 -0.37240946494649 -0.36812962796280
 6  3.12101959295930  1.70092448344835  0.13024714071407
 6 -2.60591604760476 -0.81361144014401 -0.45046340134013
 6  2.87593916091609  3.14785247724772  0.52729038703870
 6 -2.33623239123912 -2.18876236823682 -1.10649187518752
 6  2.13178226722672  0.83595565956596 -0.21333201320132
 6 -1.54718667866787  0.10010789978998 -0.27531148214821
 6  0.72589941894189  0.88917173117312 -0.07131580358036
 6 -0.18483835383538 -0.04071167116712 -0.43333430343034
 1  13.18120670067007 -0.98915232533253  1.69455514451445
 1  12.85725922492249 -2.61292450655066  1.68719640364036
 1 -14.22653562656266 -0.74840228212821  1.49760068106811
 1 -14.14003749874987 -0.26442431433143 -0.24942679867987
 1  12.76811781878188 -2.55000430753075 -1.03914447244724
 1 -12.92510294229423  1.33742772487249  1.72756049004900
 1  13.78531311831183  0.23077565546555 -0.48025320632063
 1  13.82741829882988 -0.41156651375137 -2.00976370737074
 1 -13.38944415341534  1.90534559465947 -1.19624236723672
 1 -12.77459343234323  2.85527054715472  0.02728376437644
 1  10.91278396739674 -1.86372480148015  3.21206590259026
 1  9.74215254225422 -1.04775457445745  2.35580233523352
 1  11.27501124312431 -0.05487435453545  2.79657304330433
 1  10.57262352535253 -2.88572334633463 -0.37141382438244
 1  10.44983398629863 -3.47298594159416  1.29799923992399
 1  9.21322863986399 -2.39490079807981  0.56466318731873
 1 -11.67982966896690  0.08736624272427  2.43962425942594
 1 -10.80727356635664 -1.52711525542554  2.16732051605161
 1 -12.40627152015201 -1.45192261216122  2.79502008200820
 1 -13.33566401540154 -2.95696439233923  0.86751488248825
 1 -11.83222845784579 -3.19026561546155  0.22478537653765
 1 -12.82142000100010 -2.26395558745875 -0.86502924492449
 1  8.81143304630463 -0.43814822582258  0.44838195919592
 1 -10.05709047404741 -2.08741580548055 -0.73155695769577
 1  10.45128642064206  1.40267493749375 -2.07146920592059
 1  11.73055888488849  2.27456839973997 -1.50412602060206
 1  12.08509017901790  1.03273412831283 -2.71247393639364
 1 -11.24529893089309  2.19058462256226 -2.25254597559756
 1 -9.99077505550555  0.96011003010301 -2.02729869686969
 1 -9.88883306730673  2.51872452655266 -1.23137629362936
 1  14.82064119211921 -2.98330365746575  0.12766104610461
 1 -15.29510420342034  1.48438573867387  1.77857895389539
 1  9.97822374137414  2.47983489148915  0.21361818681868
 1 -8.62772750875087  0.59524412551255  0.09161853585359
 1  9.04480216721672  4.01286466846685  0.55886172717272
 1  7.60487687468747  4.41848670967097 -0.18133447944795
 1  7.52306156615662  3.83940500850085  1.33818065606561
 1 -8.75405819981998 -3.33350800870087 -0.81030631963196
 1 -8.28892326332633 -2.33156315921592 -2.31043293229323
 1 -6.97419319131913 -3.05628016791679 -1.35142057605761
 1  6.94041989698970  0.42868608360836 -0.31307918291829
 1 -6.32997997399740  0.30398789388939  0.27317219221922
 1  5.61625933093309  2.95153082508251  0.77981449044905
 1 -4.88553902490249 -2.12192987098710 -0.90361651165116
 1  4.69729292229223  0.13616836283628 -0.05919798779878
 1 -4.01038244224422  0.59839921192119 -0.15510422942294
 1  3.31367699569957  3.49230112011201  1.56821006200620
 1  1.75748400940094  3.20225120712071  0.41340594259426
 1  3.65636101610161  3.68118474347435 -0.17109016701670
 1 -3.05508662366237 -3.01669396139614 -0.67062472747275
 1 -2.67037575057506 -2.14012107410741 -2.05989473147315
 1 -1.27893827882788 -2.55298284828483 -0.93076161916192
 1  2.73852521552155 -0.06477975897590 -0.60314652665266
 1 -2.02266688968897  0.87072531653165  0.01686777977798
 1  0.62626292529253  1.75868129512951  0.35762777277728
 1  0.28802058705871 -0.86882704670467 -0.86038771277128

