%nproc=4
%Mem=2GB
# td=(NStates=1) CAM-B3LYP/6-31G(d,p) 

TD

0 1
 8  14.65208073307331 -2.34647758085809 -0.26209313231323
 8 -14.75969103310331  1.78370367546755  0.77774730573057
 6  11.13901624762476 -1.46912946504650  0.92146830783078
 6 -12.43212837683768 -1.10614223212321  0.47996164016402
 6  12.59077264326432 -1.91454075017502  0.95598049004900
 6 -13.70804752375238 -0.31407942784278  0.42795560756076
 6  13.27993603260326 -2.04665698779878 -0.38869241424142
 6 -13.60655994899490  1.06272493359336  0.80576182718272
 6  10.95608493549355 -0.32434006100610  0.03775048204820
 6 -11.27580394439444 -0.32732373927393 -0.21570924692469
 6  13.11375186618662 -0.70495898099810 -1.22026478047805
 6 -12.63059549754975  1.72057506460646 -0.24348370137014
 6  11.84894076307631  0.02227261016102 -0.99002164516452
 6 -11.51830242524252  0.98181481058106 -0.68017001300130
 6  10.73242428342834 -1.13080852185219  2.34853823782378
 6  10.29116973697370 -2.62386015401540  0.41773516351635
 6 -12.04278608460846 -1.40391008290829  2.01125725672567
 6 -12.59554604960496 -2.46785800770077 -0.20730946894689
 6  9.63968920992099  0.38795774877488  0.21704566456646
 6 -9.97026259825983 -0.96913965586559 -0.48892017701770
 6  11.56747262726273  1.14616979087909 -2.12336432643264
 6 -10.54057234523452  1.66858633573357 -1.45409229922992
 6  9.42785669066907  1.69434567756776  0.11371801180118
 6 -8.74439583658366 -0.41804375327533 -0.32301740374037
 6  8.16387549254925  2.35295127812781  0.16393716871687
 6 -7.52080011401140 -1.23365169306931 -0.62960912991299
 6  8.04572635663566  3.81984083908391  0.37683186718672
 6 -7.52789108610861 -2.61160073697370 -1.02005069006901
 6  6.99192916391639  1.61326026702670  0.00426794179418
 6 -6.38080077707771 -0.51341960386039 -0.21837076207621
 6  5.68191890589059  2.11844608260826  0.25153212221222
 6 -5.07747629362936 -0.95580265316532 -0.32561943994399
 6  4.54702348834883  1.35586178017802  0.11918983398340
 6 -3.91692298929893 -0.16599882388239 -0.18008082308231
 6  3.21054854585459  1.75246963796380  0.28046216221622
 6 -2.59394485048505 -0.62034211321132 -0.19895825082508
 6  2.88768033503350  3.20109780178018  0.61034869286929
 6 -2.33158192619262 -2.04699819181918 -0.61823304930493
 6  2.12893198219822  0.85548761276128 -0.00056073607361
 6 -1.55539749974998  0.17678556755676 -0.08732268326833
 6  0.76358318731873  1.03562637663766  0.14948627662766
 6 -0.15262513251325  0.01280368036804 -0.12589355935594
 1  13.07610619061906 -1.22950636073607  1.50460614961496
 1  12.70751425042504 -2.90782399649965  1.54934261826183
 1 -14.20731370437044 -0.76892433433343  1.28827974897490
 1 -14.31712520752075 -0.42382025392539 -0.61652350835084
 1  12.58437944494449 -2.84025333243324 -0.94456501450145
 1 -12.96857728972897  1.09150313241324  1.70852858685869
 1  14.00189477647765  0.02506508440844 -1.01448662966297
 1  13.06743230023002 -0.93117847494749 -2.35181791279128
 1 -13.48039324832483  1.80672573267327 -1.11323406640664
 1 -12.26687266026603  2.74563958405841 -0.11396036003600
 1  11.13906659565957 -1.87816624562456  3.28949364536454
 1  9.62381070807081 -1.01911171017102  2.21025778077808
 1  11.04900864286429 -0.09916878397840  2.61118450445045
 1  10.43547981098110 -2.91536631063106 -0.68276495949595
 1  10.11542054495449 -3.58277692069207  1.10518995899590
 1  9.19683700070007 -2.18593990199020  0.41904862586259
 1 -12.29701138713872 -0.47302979687969  2.66614691169117
 1 -10.98939177817782 -1.71680422432243  2.01000478447845
 1 -12.64469536253625 -2.33000041994199  2.54092467246725
 1 -13.48611906090609 -2.87301599749975  0.06613474447445
 1 -11.96256149114912 -3.31439802870287 -0.13986108810881
 1 -12.85581344034403 -2.15471466336634 -1.34682742474247
 1  8.85199710271027 -0.12676708770877  0.70004712571257
 1 -10.11910667566757 -1.93061012491249 -0.96922072407241
 1  10.46306759875987  1.24243891389139 -2.10544260326033
 1  11.90565639463946  2.14834577747775 -1.69046465446545
 1  12.14487615761576  1.12300315521552 -3.11225391439144
 1 -11.16827122812281  2.10294585868587 -2.30656137713771
 1 -9.58361433943394  1.24986900600060 -1.96304227122712
 1 -10.21359554355436  2.59156181028103 -0.90097325332533
 1  14.83029215721572 -3.21704703180318  0.21613989398940
 1 -15.22725741874187  1.68358565866587  1.69528062406241
 1  10.19086500550055  2.46945385338534 -0.22425560056006
 1 -8.55986072207221  0.65751035213521 -0.32720334633463
 1  8.92061974897490  4.25322870487049  0.50863670467047
 1  7.50961734873487  4.32387724872487 -0.50993733973397
 1  7.51109036903690  4.21793286128613  1.12213905190519
 1 -8.37375016901690 -3.18234289218922 -0.45871116011601
 1 -7.61304567556756 -2.70019002190219 -2.20309219821982
 1 -6.66223199519952 -3.05650018991899 -0.72439787378738
 1  6.96854270927093  0.53628684368437 -0.34425230023002
 1 -6.44292126812681  0.57427492259226  0.36378125312531
 1  5.76168387338734  3.21389706170617  0.39184569356936
 1 -4.90259073007301 -2.05629330733073 -0.38908505850585
 1  4.71168436143614  0.25292003800380 -0.14335640364036
 1 -4.02828423242324  1.01749112111211  0.12856413741374
 1  3.69139476747675  3.56638852885288  1.37485072607261
 1  1.81502976397640  3.18636961896190  1.03428803080308
 1  2.96798217821782  3.96521314631463 -0.37417047504750
 1 -2.49438055305531 -2.78187047904790  0.10321265626563
 1 -3.23438215121512 -2.32132919491949 -1.39466820882088
 1 -1.26887727272727 -2.02457000700070 -0.94420296329633
 1  2.43107447044705 -0.05715899689969 -0.63268948094809
 1 -1.79886450945094  1.31264950895090  0.07714380738074
 1  0.31873217221722  2.02206763376338  0.54107611761176
 1  0.30850263526353 -1.00722088608861 -0.15241691569157

