%nproc=4
%Mem=2GB
# td=(NStates=1) CAM-B3LYP/6-31G(d,p) 

TD

0 1
 8  14.48692421742174 -2.44259719281928 -0.32825974897490
 8 -14.60953601760176  1.97219252435244  0.92620215121512
 6  11.17431977797780 -1.43634618671867  0.92937909890989
 6 -12.38093325732573 -1.07264888278828  0.47961160516052
 6  12.55786935293529 -1.81026032213221  1.04536942894289
 6 -13.78891561056106 -0.18992701260126  0.49201201320132
 6  13.09749778877888 -1.93531585368537 -0.34030757575758
 6 -13.47781707470747  1.21572023312331  0.84955620662066
 6  10.85973530053005 -0.21859948694869  0.00928763576358
 6 -11.18713507750775 -0.25105611251125 -0.09517719371937
 6  13.19836032703270 -0.52402088718872 -1.04946770077008
 6 -12.55955839383938  1.84042704980498 -0.31461081408141
 6  11.82013788278828  0.16010639353935 -0.90050269326933
 6 -11.29087968296830  1.07445407450745 -0.46792878887889
 6  10.89380042104210 -1.00739618061806  2.38677206120612
 6  10.24567518751875 -2.62524029202920  0.64781817181718
 6 -12.01886369236924 -1.40879057095710  1.87283341434143
 6 -12.60042653765377 -2.43877509940994 -0.37361609960996
 6  9.57956319731973  0.43766271927193  0.16712067206721
 6 -10.03099867186719 -1.00146288818882 -0.39410069506951
 6  11.75805168516852  1.30528570247025 -1.91657364736474
 6 -10.33286157415741  1.93782325942594 -1.26519340934093
 6  9.42710661566157  1.75525176817682  0.05550219021902
 6 -8.72714411141114 -0.55750769966997 -0.16568167016702
 6  8.15251435643564  2.31415739873987  0.17486826182618
 6 -7.55049308330833 -1.32046037393739 -0.49002517151715
 6  7.93436522052205  3.81247010201020  0.52276646064606
 6 -7.65562385938594 -2.71810138703870 -0.98620730573057
 6  6.91860183118312  1.55909485048505 -0.04415690069007
 6 -6.40677337433743 -0.65004326622662 -0.27011593659366
 6  5.55744645864586  2.07953219121912  0.10751772077208
 6 -5.09871841784178 -1.14122119501950 -0.36536341434143
 6  4.46504529052905  1.26853304730473 -0.10778286328633
 6 -3.90737203420342 -0.45791801580158 -0.16392920792079
 6  3.09801729272927  1.70514490549055  0.08295241124112
 6 -2.56170162616262 -0.80536061506151 -0.38135649064906
 6  2.78004957195720  3.13257094909491  0.41504916291629
 6 -2.31846061406141 -2.21898539053905 -0.86502772877288
 6  2.15073416241624  0.77096916091609 -0.22517319731973
 6 -1.51945390539054  0.11550943994399 -0.06207015801580
 6  0.69107593659366  0.86520933493349  0.17764909290929
 6 -0.14779464946495 -0.05570317031703 -0.31982295229523
 1  13.00225880588059 -1.02894630473047  1.81957764676468
 1  12.56174967396740 -2.78596181028103  1.29876756075608
 1 -14.34151712471247 -0.70981842374237  1.10907182818282
 1 -13.99762325732573 -0.28809668156816 -0.68044990099010
 1  12.46629763676368 -2.40955026212621 -1.03005356335634
 1 -12.75987641964196  1.27310129222922  1.67305503950395
 1  14.00584517151715 -0.01249867196720 -0.29285446644665
 1  13.64334989198920 -0.48098345544554 -2.10236296729673
 1 -13.21438664766477  1.95458051815182 -1.21956469946995
 1 -12.20830680368037  2.79198421852185 -0.02744170817082
 1  11.10936362536254 -1.82659108810881  2.97384208020802
 1  9.89446777377738 -0.72679247824782  2.47634438943894
 1  11.42714645664566 -0.05829469656966  2.74985837183718
 1  10.45501176417642 -3.00119489348935 -0.32011869486949
 1  10.44719372227223 -3.45999464246425  1.20392983298330
 1  9.16032334933493 -2.44084539253925  0.73543026402640
 1 -11.64189587558756 -0.41260375427543  2.40006030303030
 1 -11.22300513951395 -2.21576412031203  1.92462624662466
 1 -12.87993888688869 -1.71085850575058  2.50890147014701
 1 -13.60814126312631 -2.84313300920092  0.13294142514251
 1 -11.81446668166817 -3.23720030893089 -0.33951105310531
 1 -12.91276913591359 -2.12626181808181 -1.48579132113211
 1  8.75500740374037 -0.12970738173817  0.65637275827583
 1 -10.14792955795579 -2.05981304520452 -0.84472827482748
 1  10.62391368336834  1.56195086508651 -1.95563762276228
 1  12.46353218221822  2.16949789268927 -1.57181278927893
 1  11.92770444044404  0.97785864076408 -2.96058874787479
 1 -11.07685208620862  2.42084764886489 -2.08152887388739
 1 -9.59607558555856  1.37909192829283 -1.67621358835884
 1 -9.79479366336634  2.66298895299530 -0.71935509150915
 1  14.43518264626463 -3.30363569066907  0.13768204820482
 1 -15.28837353035303  1.66799409950995  1.51966306230623
 1  10.21296721572157  2.30913782178218 -0.07122029702970
 1 -8.49223395939594  0.51123572467247  0.16686606060606
 1  8.80484817181718  4.43142652465246  0.54603044404440
 1  7.22416880388039  4.14512937393739 -0.15480182618262
 1  7.55333459345935  3.95492656065607  1.49034587258726
 1 -8.30134292829283 -3.35448010591059 -0.42977826682668
 1 -8.24821919291929 -2.75393539643964 -1.77263915291529
 1 -6.72741851385139 -3.07936247614761 -1.19706514051405
 1  6.72934878987899  0.51168438343834 -0.36527440244024
 1 -6.37466444244424  0.30862835793579  0.21198607360736
 1  5.18498620362036  3.18672434443444  0.39073558255826
 1 -4.88189866086609 -2.02633031103110 -1.02977912791279
 1  4.34648784178418  0.12737748374837 -0.23965603360336
 1 -3.97604900890089  0.67782715471547  0.21710299129913
 1  3.04561018901890  3.67251914191419  1.50022326332633
 1  1.64587284828483  3.35768675067507  0.35906050805080
 1  3.10880626062606  3.84949157415742 -0.32624568256826
 1 -2.64312542754275 -2.92060435243524 -0.45691335633563
 1 -2.87328604160416 -2.28553561556156 -1.92411115311531
 1 -1.22156254125413 -2.44697224722472 -1.02915145814581
 1  2.54514587758776 -0.14151743274327 -0.60743695569557
 1 -1.74242886588659  1.11736998099810  0.30623671667167
 1  0.32500279927993  1.78434386138614  0.45640765076508
 1  0.08308009300930 -1.11042120612061 -0.78634030803080

