%nproc=4
%Mem=2GB
# td=(NStates=1) CAM-B3LYP/6-31G(d,p) 

TD

0 1
 8  14.72699822482248 -2.09100203330333 -0.32002892589259
 8 -14.76984204820482  1.79615492059206  0.74587411841184
 6  11.23888623462346 -1.40898345044504  0.90119628062806
 6 -12.35940110411041 -0.99225084298430  0.49945358935894
 6  12.76640020602060 -1.69274857095710  1.00986587858786
 6 -13.83583030203020 -0.30326834673467  0.55606841884188
 6  13.34095213421342 -1.82779510161016 -0.43050659565957
 6 -13.53290258325833  1.24401306240624  0.82078332933293
 6  10.94006333333333 -0.35776340334033 -0.05622891589159
 6 -11.24005036903690 -0.21050205710571 -0.24571224722472
 6  13.17352784378438 -0.52995148024802 -1.15704845884588
 6 -12.73799623762376  1.83273628072807 -0.25487484048405
 6  11.83772964196420  0.07778816171617 -1.00218286128613
 6 -11.52282287728773  1.04536116521652 -0.62742473847385
 6  10.88227926892689 -0.94235967696770  2.35110849484948
 6  10.39481010101010 -2.80330809880988  0.61906529652965
 6 -11.94337614361436 -1.13468316021602  1.98430456145615
 6 -12.59678617361736 -2.32936415831583 -0.00439917791779
 6  9.63144838583858  0.24324327732773  0.07649160916092
 6 -10.03585915791579 -0.88369111101110 -0.32004328932893
 6  11.42663854385439  1.17766294019402 -2.02360435043504
 6 -10.44885317331733  1.74075355245525 -1.52823971397140
 6  9.25816972197220  1.59882612561256  0.05051169116912
 6 -8.76663806080608 -0.39394134303430 -0.24059916191619
 6  7.97159626462646  2.26839282228223  0.36140691569157
 6 -7.59871790579058 -1.18209653755376 -0.42009817881788
 6  8.06186797079708  3.67805666066607  0.72087627162716
 6 -7.61796009300930 -2.69264884178418 -0.79294797979798
 6  6.94490446144614  1.52626156715672  0.06378389338934
 6 -6.34157685468547 -0.49851811371137 -0.39018794379438
 6  5.53329404340434  1.88360259825983  0.33146011501150
 6 -5.07546609260926 -1.14472154505451 -0.56943382138214
 6  4.44165295129513  1.22494868886889  0.16701461646165
 6 -3.91090238723872 -0.41641386538654 -0.32334514951495
 6  3.12319981098110  1.69493388438844  0.36813092909291
 6 -2.54022947894789 -0.88438851785179 -0.53531188618862
 6  2.79131069806981  3.11468916091609  0.61297895589559
 6 -2.30841960996100 -2.22652614461446 -1.04086531253125
 6  2.16437552655266  0.83066513051305 -0.16149682968297
 6 -1.50236219621962  0.04779266826683 -0.24097804880488
 6  0.73514034303430  0.94410722472247  0.06487781578158
 6 -0.11223109310931 -0.13159075907591 -0.23980495049505
 1  13.45801438143814 -0.93374678477848  1.40207589658966
 1  13.05218871787179 -2.54645785988599  1.90969865386539
 1 -14.42098507150715 -0.59179662156216  1.47893881488149
 1 -14.08689218421842 -0.39061693359336 -0.38548040404040
 1  12.84432543954395 -2.67887719481948 -0.98929948794879
 1 -13.07243767576758  1.20796477857786  1.77897563156316
 1  13.87728231523152  0.16375895379538 -0.69535471647165
 1  13.25925148214822 -0.66085144224422 -2.28220095109511
 1 -13.51743695269527  1.62377743784378 -1.07932067506751
 1 -12.57095306830683  2.95931095119512 -0.10652961696170
 1  11.03105579457946 -1.57205563456346  3.22496719271927
 1  9.75747407440744 -0.78563836283628  2.54722147714772
 1  11.43348709070907  0.00017115001500  2.64610799679968
 1  10.61663792679268 -2.83413818781878 -0.48522520552055
 1  10.61482048494849 -3.60406904990499  1.23342278227823
 1  9.27263458045805 -2.56370767876788  0.63595031603160
 1 -11.72706439243924 -0.14929742364236  2.49423972097210
 1 -10.98940177917792 -1.61291383528353  2.12887667166717
 1 -12.77110800380038 -1.54314173407341  2.65038561856186
 1 -13.34089453845385 -2.99496819271927  0.52728085908591
 1 -11.64309954495450 -2.96467305620562 -0.02115921792179
 1 -12.99557741674167 -2.51416060796080 -0.99885262726273
 1  8.83987589058906 -0.27167157815782  0.53159028002800
 1 -10.10051481648165 -1.94073113701370 -0.38940274227423
 1  10.25668696069607  1.10975564556456 -2.27309936893689
 1  11.87759358835884  2.15864680758076 -1.92454806280628
 1  11.95878754875488  0.96298715361536 -3.14589727872787
 1 -11.02152655365536  2.47806337043704 -2.23363408440844
 1 -10.07398337633763  1.05684970407041 -2.20564653165316
 1 -9.60258444244424  2.44960761486149 -1.01308446444644
 1  14.81134026202620 -2.84074940204020  0.35321360136014
 1 -15.34153884688469  1.35878317841784  1.42476357235724
 1  10.12626854585459  2.32766967496750 -0.05816899189919
 1 -8.46180091609161  0.73459806090609 -0.19774040004000
 1  8.89503719071907  4.01895527752775  0.94116995799580
 1  7.49237562456246  4.36314117511751 -0.00581692769277
 1  7.68995825582558  3.77124819281928  1.73809064706471
 1 -8.33403619761976 -3.17057171507151 -0.21008629762976
 1 -8.12889726072607 -2.65427543044304 -1.63435532453245
 1 -6.64894066606661 -3.11689622952295 -0.81942737673767
 1  7.03278913391339  0.43772698769877 -0.27776565156516
 1 -6.35766274227423  0.64360185528553 -0.24052917791779
 1  5.71524922992299  2.84204987698770  0.89690619961996
 1 -4.87125759675968 -2.12499017701770 -1.02179832983298
 1  4.23231642464246  0.29482422842284 -0.36461852985299
 1 -3.78398980298030  0.51236060806081  0.11509279027903
 1  2.90232586058606  3.37331922192219  1.70248348934894
 1  1.67090535153515  3.39240022202220  0.37872247424742
 1  3.47456283628363  3.83336996199620  0.08400534253425
 1 -2.54247536253625 -3.04626691869187 -0.31633929892989
 1 -3.17746645964596 -2.13391045304531 -1.81533027502750
 1 -1.05062544754475 -2.21195874587459 -1.54867341034103
 1  2.42028339133913 -0.05092837383738 -0.36046225822582
 1 -1.74549917291729  1.00526877087709  0.23020911391139
 1  0.38014831383138  2.06212163916392  0.12888489848985
 1  0.27587937293729 -0.91482164616462 -0.85837751175118

