%nproc=4
%Mem=2GB
# td=(NStates=1) CAM-B3LYP/6-31G(d,p) 

TD

0 1
 8  14.57307283228323 -2.35928886198620 -0.10339726272627
 8 -14.79114417841784  1.75709101420142  1.20776030703070
 6  11.15850819681968 -1.46651920402040  1.03453961496150
 6 -12.34672983698370 -1.11809342724272  0.61730537453745
 6  12.67957152315231 -1.95221451755176  1.13496838883888
 6 -13.66187290629063 -0.34254227412741  0.61702451445145
 6  13.31219925892589 -1.95190751285129 -0.26722026702670
 6 -13.46928622162216  1.11897055815582  1.01202245324532
 6  11.00171949894990 -0.29136676367637  0.12015872287229
 6 -11.31773813781378 -0.31829283618362 -0.15570324632463
 6  13.26112660366037 -0.44261274637464 -0.82438519251925
 6 -12.73733617161716  1.85220822792279 -0.06042539553955
 6  11.94870073907391  0.11500188308831 -0.81890453345335
 6 -11.51676227122712  0.99038566766677 -0.53566556255626
 6  10.81584262526253 -1.04519996099610  2.44678806280628
 6  10.37994861486149 -2.65644341234123  0.51230462046205
 6 -11.92936474247425 -1.43654334623462  2.09877600860086
 6 -12.62187868286829 -2.43108433033303 -0.07154589258926
 6  9.75267050805080  0.35840479347935  0.16377033703370
 6 -10.07148272027203 -1.00974371627163 -0.54383566856686
 6  11.76885276527653  1.20711588548855 -1.82201419141914
 6 -10.68687697569757  1.75556503360336 -1.53652054205421
 6  9.34556846184618  1.68673491649165  0.01583822382238
 6 -8.81144254125413 -0.42912486138614 -0.34916001800180
 6  8.06212531753175  2.23869985298530  0.18797957295730
 6 -7.58629666366637 -1.22583091099110 -0.55815198419842
 6  7.98643042704270  3.67315617061706  0.41243542754275
 6 -7.64317261426143 -2.64688426532653 -0.99102778777878
 6  6.86641661266127  1.50251919291929 -0.00860334533453
 6 -6.48379107610761 -0.49576783868387 -0.39284820982098
 6  5.62159287328733  2.03463770177018  0.07056402540254
 6 -5.09100764676468 -0.96152322522252 -0.59144602260226
 6  4.46974576057606  1.31390758475848 -0.16225831083108
 6 -3.89810110711071 -0.14408663266327 -0.48755157015702
 6  3.14650214121412  1.74245863686369 -0.01561744574457
 6 -2.57285274127413 -0.63994407340734 -0.46358471347135
 6  2.90597216421642  3.08137582958296  0.50507816581658
 6 -2.30565933393339 -1.96441993399340 -1.04122534853485
 6  2.17919700870087  0.77366943094309 -0.35111579157916
 6 -1.58791075107511  0.31239912891289 -0.34067801880188
 6  0.72078890789079  1.00116293029303 -0.10261893389339
 6 -0.25466533653365  0.03682608260826 -0.40182115211521
 1  13.25660424042404 -1.36421983208321  1.80636632563256
 1  12.63631713071307 -2.97372058615862  1.52528021202120
 1 -14.37338031103110 -0.78197563946395  1.14001492249225
 1 -14.10535403040304 -0.33690156205621 -0.43167502350235
 1  12.68549955695570 -2.74016332343234 -0.89814037203720
 1 -12.77837826982698  1.19282326442644  1.90547828182818
 1  13.85195978297830  0.18423100100010 -0.17855303630363
 1  13.58686424342434 -0.58424378147815 -1.87793052405240
 1 -13.20526573557356  2.18324338443844 -0.97110985398540
 1 -12.30967694069407  2.89506452655266  0.55484652065207
 1  10.77990067906791 -1.80481891089109  3.20887558355836
 1  9.69688801580158 -0.90350014901490  2.14014076907691
 1  11.32376611861186 -0.02417128422842  2.73664705070507
 1  10.81067733073307 -3.27626240024002 -0.38887557055706
 1  10.09301830473047 -3.40547919091909  1.37243668366837
 1  9.25911322832283 -2.40046135413541  0.10889761076108
 1 -11.79989167516752 -0.45073756765677  2.54948524552455
 1 -10.93401624062406 -1.94785732963296  2.22683646764677
 1 -12.48184907790779 -2.10920834073407  2.49185976597660
 1 -13.38344879387939 -2.99995869176918  0.49638776977698
 1 -11.70138537353735 -2.98571516041604 -0.30955805780578
 1 -12.98257611661166 -2.30738993089309 -1.11692443444344
 1  8.97613951695170 -0.26462087308731  0.43559068006801
 1 -10.09174393939394 -2.08758582248225 -0.50270407240724
 1  10.68627991999200  1.24837950795080 -1.98399045804581
 1  12.12579840884088  2.00085102800280 -1.45593120112011
 1  12.09018068806881  0.96909776467647 -2.80959364836484
 1 -11.20210461146115  2.38312387648765 -2.19434015501550
 1 -10.04356033403340  1.16134015311531 -2.11552751975198
 1 -10.05040922492249  2.43987664176418 -0.95201835783578
 1  14.62955208320832 -3.14101942904290  0.37610589058906
 1 -15.11062575557556  1.63194049414942  2.19390048604861
 1  10.23034895389539  2.16477338533853 -0.17002017701770
 1 -8.89907464346435  0.52184678577858 -0.30511113711371
 1  9.09642732973297  3.81598498049805  0.82245808680868
 1  7.79135552255226  4.50390525152515 -0.49601594759476
 1  7.39102836283628  4.06670773877388  1.18547538553855
 1 -8.24936773077308 -3.21478613651365 -0.15672096109611
 1 -8.10054442544254 -2.65847585048505 -1.95222711171117
 1 -6.73916968896890 -3.08215275517552 -1.07751318531853
 1  7.05407126212621  0.39006222122212 -0.21223909890989
 1 -6.26250322632263  0.54949244434444 -0.34360948594860
 1  5.53918162316232  3.12384805680568  0.53438994799480
 1 -4.74558502950295 -2.02074975297530 -0.48144429442944
 1  4.53204639763976  0.13839858585859 -0.40074214221422
 1 -4.23774517851785  0.90995036703670 -0.44317303630363
 1  3.14993062106211  3.06430832083208  1.58906214721472
 1  1.92140040104010  3.44613559555956  0.45967056905691
 1  3.33437881788179  3.79407603260326 -0.20385344334433
 1 -2.68312942794279 -2.63400569256926 -0.39867753275328
 1 -2.99037775077508 -2.22933999599960 -1.91985072707271
 1 -1.27262764776478 -2.15500305030503 -1.32834137713771
 1  2.49150051305131 -0.30605388638864 -0.66244245624562
 1 -1.94312893589359  1.22404064806481  0.11407750075008
 1  0.58365866486649  2.13305873287329  0.04741675167517
 1  0.08084986998700 -0.93953411741174 -0.75220689468947

