%nproc=4
%Mem=2GB
# td=(NStates=1) CAM-B3LYP/6-31G(d,p) 

TD

0 1
 8  14.52270779577958 -2.50421335443544 -0.23260018301830
 8 -14.76459152315231  1.72221752685269  1.05074460546055
 6  11.20678302430243 -1.50807335943594  1.00432659365937
 6 -12.43404856885689 -1.11371298919892  0.47245088908891
 6  12.63531709770977 -1.91041033713371  1.11554644664466
 6 -13.74016073507351 -0.41536955685569  0.54287709970997
 6  13.23135117411741 -2.03156547864786 -0.34704824982498
 6 -13.58406769976998  1.05999466056606  0.90459171017102
 6  10.86828615561556 -0.40441806880688 -0.01718501150115
 6 -11.35430179417942 -0.39748075497550 -0.18856653265327
 6  13.20230072107211 -0.62667115221522 -1.02213496749675
 6 -12.78788122612261  1.62386539363936 -0.23255260826083
 6  11.88648451745175  0.04357474037404 -0.84778742174217
 6 -11.64120471547155  0.90584721382138 -0.53896589258926
 6  10.78977001800180 -1.01515695669567  2.52277566156616
 6  10.29495011501150 -2.65338310631063  0.64531792179218
 6 -11.85161696769677 -1.46464615651565  1.96646277727773
 6 -12.76106260126013 -2.52511373327333 -0.10385912391239
 6  9.59603484448445  0.37329628262826  0.16280024002400
 6 -9.99236480848085 -1.01423416531653 -0.40802208720872
 6  11.74460034003400  1.11782695659566 -1.86809879987999
 6 -10.50434872287229  1.78539801690169 -1.32924981498150
 6  9.42358626362636  1.69448569156916  0.03225986598660
 6 -8.78730012701270 -0.34937688658866 -0.16593169516952
 6  8.12467157215722  2.37489347234723  0.10415119011901
 6 -7.58515654965497 -1.04979330723072 -0.43391956095610
 6  8.04820660466047  3.78438729372937  0.32300648464846
 6 -7.68859715671567 -2.46513609050905 -0.85811449644964
 6  6.99204917591759  1.57833677467747  0.02419993499350
 6 -6.36975967296730 -0.46687494939494 -0.24080300530053
 6  5.63766448044804  2.14319855785579  0.20219718871887
 6 -5.07484603060306 -1.01752882578258 -0.55652253025303
 6  4.55404419041904  1.34854104810481  0.05980389538954
 6 -3.99306060306031 -0.16526875087509 -0.43454626962696
 6  3.27982547354735  1.81342573357336  0.14466858285829
 6 -2.61074653065307 -0.55816589558956 -0.61817017201720
 6  2.96978854585459  3.16544423642364  0.62181983998400
 6 -2.24448321632163 -1.95873936593659 -1.06019724572457
 6  2.23614270327033  0.81262332633263 -0.15761644164416
 6 -1.61919387938794  0.27298518751875 -0.25519947094709
 6  0.84989181818182  1.08107092109211 -0.19331800380038
 6 -0.11511138113811  0.16030843084308 -0.54559552955296
 1  13.09734831483148 -1.03287669776978  1.59371506050605
 1  12.53251675067507 -2.85168838293829  1.67317500150015
 1 -14.37977095009501 -1.03650109200920  1.21528244924492
 1 -14.16768026302630 -0.54275214711471 -0.36652850885089
 1  12.43685469246925 -2.88577788488849 -0.70445100310031
 1 -12.74606503850385  1.25580956305631  1.60268800280028
 1  13.68327291429143  0.16005858375838 -0.43597877887789
 1  13.54331988898890 -0.75889124622462 -2.10182291329133
 1 -13.51499670867087  1.68660372047205 -1.02955569856986
 1 -12.39693566656666  2.74516953705371 -0.00629959395940
 1  11.12955564456446 -1.82927135613561  3.17575227122712
 1  9.50442876987699 -0.98458825782578  2.85385214021402
 1  11.25224896689669 -0.16199506660666  3.04289767576758
 1  10.73350961396140 -3.14950972497250 -0.22186886988699
 1  10.30497950085008 -3.35878452145215  1.53209264926493
 1  9.31097841484148 -2.31061236923692  0.21605832683268
 1 -11.75324701070107 -0.38959145304530  2.23861415841584
 1 -11.07984082308231 -2.10511305520552  1.95116890089009
 1 -12.64260515351535 -2.12681010091009  2.64695527552755
 1 -13.55172562156216 -3.04993368926893  0.19185731673167
 1 -12.00484571957196 -3.30357694659466  0.09969286728673
 1 -13.32125998499850 -2.13846303820382 -1.12490523252325
 1  8.72745464846485 -0.39822423342334  0.40523764476448
 1 -10.07608237323732 -2.10704776867687 -0.59682348434844
 1  10.79684097609761  1.29443411341134 -2.01021308030803
 1  12.11744757375738  2.08358930183018 -1.55685129312931
 1  12.14805647564756  1.09109996489649 -2.83066575557556
 1 -11.04121852285228  2.42627819191919 -2.02876359735974
 1 -9.85388136613661  1.23592761186119 -1.77895386238624
 1 -9.82646683068307  2.40590324442444 -0.76629978597860
 1  14.63427255525552 -3.23099842694269  0.34493277327733
 1 -15.20770546354635  1.19437673777378  1.71523261926193
 1  10.30738665766577  2.43220012801280 -0.15689886488649
 1 -8.63696843284328  0.72420702180218  0.13548292229223
 1  9.17303499049905  4.23460684268427  0.51467730873087
 1  7.56054244124412  4.26755161616162 -0.51970831683168
 1  7.29818907890789  3.84263533153315  1.02553939193919
 1 -8.33245603960396 -3.10952561046105 -0.31669695869587
 1 -8.10005437643764 -2.54034403730373 -1.99868175717572
 1 -6.70370614261426 -3.07412195209521 -0.96146158015802
 1  7.06618247324732  0.33311652665267 -0.16236411141114
 1 -6.42880985698570  0.43067056215622  0.14883975897590
 1  5.63976168116812  3.31871754375438  0.26184269326933
 1 -4.82504297529753 -1.89605728372837 -1.10525667566757
 1  4.45167836083608  0.24991973797380 -0.07304937293729
 1 -4.10992239623962  0.53627299929993  0.16507778877888
 1  3.27869349734974  3.47500939093909  1.74048728972897
 1  2.11105936693669  3.44979596159616  0.45685028702870
 1  3.55040042004200  3.84599122412241 -0.07348040604060
 1 -2.72054316931693 -2.79589188118812 -0.58962662766277
 1 -2.62720143314331 -2.13475053705370 -1.96237497949795
 1 -1.06652703770377 -2.08813636363636 -1.00914945794580
 1  2.52971433443344 -0.00045332633263 -0.72187839983998
 1 -1.87269189218922  1.24091233523352  0.25021111411141
 1  0.59195949494949  2.07419284628463  0.13292530253025
 1  0.03036482148215 -0.90019018301830 -0.87706938093809

