%nproc=4
%Mem=2GB
# td=(NStates=1) CAM-B3LYP/6-31G(d,p) 

TD

0 1
 8  14.65651117611761 -2.35705863896390 -0.06244316731673
 8 -14.69282434643464  1.91024632973297  1.15918544954495
 6  11.05869821582158 -1.58101065316532  1.05961212221222
 6 -12.24772993699370 -1.12525414331433  0.86009965396540
 6  12.52682624862486 -1.93924322042204  1.17497238923892
 6 -13.51600831983198 -0.31576959685969  1.04268708070807
 6  13.26272431143114 -1.96173849594959 -0.22356590159016
 6 -13.40132942594260  1.22406106720672  1.08512976397640
 6  10.95693502050205 -0.24621224822482  0.12847955495550
 6 -11.31656802080208 -0.33929493639364 -0.09515719171917
 6  13.30797128812881 -0.57422590769077 -0.69101185518552
 6 -12.70096253425342  1.89260226732673 -0.03857321032103
 6  12.02051792079208  0.14549493239324 -0.58156079907991
 6 -11.52348294329433  0.93008963806381 -0.56079807580758
 6  10.48946998799880 -1.32985842684268  2.43132651665167
 6  10.25659627962796 -2.74384215221522  0.40970436043604
 6 -11.56532833883388 -1.23464315621562  2.36993312431243
 6 -12.56690318531853 -2.48037925982598  0.41850311231123
 6  9.62713795479548  0.32666161916192  0.19158311831183
 6 -10.09356492849285 -0.97259000090009 -0.31317260226023
 6  11.94026990699070  1.39262443634363 -1.52250424042404
 6 -10.75498378637864  1.69287876497650 -1.63867075707571
 6  9.41639554455446  1.68136437943794  0.17079371937194
 6 -8.79240063706371 -0.47426937583758 -0.54567966996700
 6  7.98464756975697  2.34278026102610  0.26016679167917
 6 -7.57104513851385 -1.23813214111411 -0.74916108510851
 6  8.00024180818082  3.83483233823382  0.65247943194319
 6 -7.63184148114811 -2.67603718061806 -1.10677936293629
 6  6.85621559255926  1.65201414241424 -0.11517400240024
 6 -6.34869756675668 -0.54961322322232 -0.57152607760776
 6  5.56832754675468  2.27035127312731  0.01270823982398
 6 -5.11983052905291 -0.99570664356436 -0.82205908390839
 6  4.48767755375538  1.43975016901690 -0.22104418941894
 6 -3.97408870587059 -0.31530375437544 -0.65234804980498
 6  3.04911240224022  1.78038242924292 -0.10235611961196
 6 -2.58812426842684 -0.74363444244424 -0.94783313831383
 6  2.83526509350935  3.14335202720272  0.40221787978798
 6 -2.33790255825583 -2.12674616661666 -1.28937016301630
 6  2.18000708970897  0.84811687568757 -0.37183786378638
 6 -1.65752771277128  0.15783367236724 -0.58110206120612
 6  0.73745057405741  1.00380319431943 -0.37357602960296
 6 -0.23738360836084 -0.05046264626463 -0.61337230723072
 1  12.90222880288029 -1.20677408750875  1.90573626262626
 1  12.63293679267927 -2.97394060816082  1.63244092809281
 1 -14.23248622162216 -0.62854029592959  1.72992391339134
 1 -14.14443793879388 -0.58540641254125  0.11746989098910
 1  12.77224823182318 -2.34940424752475 -0.97264782278228
 1 -12.92574300630063  1.68745272737274  2.03911164516452
 1  14.14851943894389 -0.04257167926793  0.08089290829083
 1  13.72748830583058 -0.66423178027803 -1.69396212721272
 1 -13.32027723672367  1.97228228832883 -0.77830057305731
 1 -12.26038201120112  2.82609762986299  0.12731376737674
 1  10.40216290529053 -2.26691512051205  2.92322701870187
 1  9.43932225922592 -1.04454425342534  2.50158691369137
 1  10.95073881588159 -0.63313218031803  2.99592297829783
 1  10.55589185218522 -2.84281905590559 -0.64620130313031
 1  10.58142714561456 -3.55865450845085  1.07108654865487
 1  9.10167748474847 -2.66761806980698  0.22817953895390
 1 -11.43562524852485 -0.35126762066207  2.77699799679968
 1 -10.60762360136014 -1.78970151405140  2.18993277727773
 1 -12.33299419241924 -1.69781720162016  2.89714029402940
 1 -13.31867231623162 -3.16085478137814  1.08068619961996
 1 -11.72427766276628 -3.23718030693069  0.60241313931393
 1 -13.09982784178418 -2.69750894279428 -0.62767550955096
 1  8.88120002300230 -0.36689110011001  0.47288440944094
 1 -10.21906667166717 -2.10251731563156 -0.20253405540554
 1  10.88617990999100  1.89334400440044 -1.65234729372937
 1  12.58180400940094  2.34286522942294 -1.15152076007601
 1  12.60365203520352  1.29583043794380 -2.31563425242524
 1 -11.32445684668467  2.20513607770777 -2.36460718171817
 1 -10.09999597759776  0.95664968406841 -2.14700066706671
 1 -10.02751693569357  2.37222987708771 -1.21468462446245
 1  14.60971009900990 -3.35931125822582  0.09658793879388
 1 -14.92687738073807  1.63520082018202  2.07173826982698
 1  10.11100701970197  2.42525943394339  0.20278710371037
 1 -8.90269500550055  0.79222382348235 -0.24335496149615
 1  8.96372405940594  3.96399978197820  0.95334117511751
 1  7.56628301530153  4.44233909490949 -0.13327967396740
 1  7.30799005900590  3.81729279727973  1.61482832083208
 1 -8.21853464746475 -3.07866252415241 -0.35605089408941
 1 -8.21341571257126 -2.95591559445945 -2.00311220022002
 1 -6.61101687368737 -3.23346788668867 -1.15074050805081
 1  6.97022287728773  0.68125134013401 -0.50415829082908
 1 -6.61937891389139  0.42782027712771 -0.59452457745775
 1  5.41464916991699  3.15683135513551  0.43060956995700
 1 -5.06512698369837 -1.99730740874087 -0.96813296329633
 1  4.51659485248525  0.34374912091209 -0.60849291729173
 1 -3.98617002100210  0.84862423442344 -0.35243396239624
 1  3.15556118411841  3.29681157115712  1.33498673967397
 1  1.76786504750475  3.17934891689169  0.67364196619662
 1  3.25992137213721  3.86183280828083 -0.43743680168017
 1 -2.76025714071407 -2.89749204120412 -0.67397506250625
 1 -3.05718443144314 -2.25508257025703 -2.13915265726573
 1 -1.31287167216722 -2.41448899889989 -1.35728427142714
 1  2.57899926292629 -0.10848412941294 -0.84265047704771
 1 -2.01638626162616  1.06028427242724 -0.04789869686969
 1  0.13820411941194  1.79147457445745 -0.03958194819482
 1 -0.06259447444744 -1.08268843284328 -0.82983465746575

