%nproc=4
%Mem=2GB
# td=(NStates=1) CAM-B3LYP/6-31G(d,p) 

TD

0 1
 8  14.78513403840384 -1.96055898899890 -0.22601952495250
 8 -14.55482054605461  2.15284058915892  1.13057258825883
 6  11.14266661266127 -1.44396694879488  1.03846000700070
 6 -12.28083324732473 -1.01827344524452  0.58701234523452
 6  12.68695226122612 -1.63907320342034  1.00796568856886
 6 -13.53215993499350 -0.10273829372937  0.68248106010601
 6  13.32472051105111 -1.80294261636164 -0.37289083408341
 6 -13.32909220222022  1.37309597069707  0.95644689568957
 6  10.89556888388839 -0.17087471447145 -0.01349464246425
 6 -11.29390575457546 -0.21895290219022 -0.28694637063706
 6  13.11935242624262 -0.51800028512851 -1.12243499749975
 6 -12.56371880988099  1.99892289938994 -0.24448380138014
 6  11.81762763176318  0.07781816471647 -0.97766040904090
 6 -11.50831142614261  0.99452608170817 -0.68155015101510
 6  10.68573961496149 -1.11049649064907  2.48519190319032
 6  10.27831845184518 -2.59649741774177  0.52071546154615
 6 -11.68595040104010 -1.42144183608361  1.93557968896890
 6 -12.78752524752475 -2.26968819071907 -0.13430216821682
 6  9.65071031203120  0.38523747674767  0.20823478347835
 6 -10.06064163616362 -1.00548329022902 -0.61595288028803
 6  11.61070695069507  1.13019819371937 -2.02757474747475
 6 -10.45400368836884  1.77768724582458 -1.52820971097110
 6  9.38464236923692  1.71383762676268 -0.05252861286129
 6 -8.86167756475648 -0.56509845874587 -0.37128223022302
 6  8.00592969796980  2.20400638363836  0.18632940794079
 6 -7.63020105410541 -1.30441876977698 -0.60864703370337
 6  7.89156094009401  3.72326118111811  0.50884506850685
 6 -7.56285458245824 -2.71500107700770 -1.06171485648565
 6  6.85208517951795  1.49943888488849  0.05621313631363
 6 -6.34201689868987 -0.69961822372237 -0.36836576157616
 6  5.51209192319232  1.90838507650765  0.33193016201620
 6 -5.04107265326533 -1.20909798269827 -0.49964684268427
 6  4.32501128712871  1.14993118711871  0.13658157315732
 6 -3.93485478247825 -0.43283550755076 -0.33658647364736
 6  3.05641313231323  1.63740813181318  0.13661777777778
 6 -2.60318577457746 -0.87183726272627 -0.42955131013101
 6  2.83065463246325  3.08120581258126  0.74022168016802
 6 -2.19036780478048 -2.24454794679468 -0.81589281528153
 6  2.04950403940394  0.63655571957196 -0.03574425442544
 6 -1.64470643064306  0.11727961696170 -0.32172612361236
 6  0.68739556855686  0.94329714371437 -0.14248292029203
 6 -0.21515138513851 -0.13891149114911 -0.16373734373437
 1  13.22628120812081 -0.69751316141614  1.42711840084008
 1  12.92358585758576 -2.76920013411341  1.45285296929693
 1 -14.11581455445545 -0.45516295819582  1.54355527652765
 1 -14.28934242924292 -0.19510738263826 -0.15742759875988
 1  12.99928093509351 -2.83030233733373 -0.96702726072607
 1 -12.62383281528153  1.66753073517352  1.83794152815281
 1  13.76536112311231  0.32138471637164 -0.94415959695970
 1  13.37597315431543 -0.70973633073307 -2.19457218821882
 1 -13.20276548554856  1.91615667576758 -1.10082282528253
 1 -12.28891486448645  3.02870789088909 -0.10209917391739
 1  10.86294898389839 -2.08640706970697  3.19377407340734
 1  9.57520584758476 -0.66397619661966  2.33150990599060
 1  11.17594133613361 -0.19161802890289  2.89354274027403
 1  10.35096135913591 -2.86416119011901 -0.59747643064306
 1  10.42165116801680 -3.57684632763276  1.18361780178018
 1  9.23317063406341 -2.14889619761976  0.70763748474847
 1 -11.27227891389139 -0.59020151405140  2.52860315731573
 1 -10.85443828282828 -1.93170571447145  1.99405318931893
 1 -12.59529042204220 -2.00743816371637  2.45785636563656
 1 -13.62618306730673 -2.66602529842984  0.30238836983698
 1 -12.32159739473948 -3.40453704260426 -0.03826092809281
 1 -13.04869272827283 -2.03276246814681 -1.25865860786079
 1  8.77644954795480 -0.12287669866987  0.24926204720472
 1 -10.27246201120112 -1.90723778767877 -1.33162696469647
 1  10.66383767576758  1.41315598559856 -2.12236429542954
 1  12.04976080508051  1.88723966686669 -1.48912452045204
 1  12.19030070007001  0.66291714661466 -2.86187887688769
 1 -11.07522192319232  2.37322288638864 -2.21069179017902
 1 -9.75109108710871  1.29435345444545 -2.09633560056006
 1 -9.94720890489049  2.59680233433343 -0.95534869086909
 1  14.86933606160616 -2.82385771287129  0.09543782378238
 1 -15.13273796679668  1.58738603870387  1.78512960896090
 1  10.27833375237524  2.29449635763576 -0.48629180418042
 1 -8.33635837183718  0.32003660476048  0.41785115911591
 1  8.77943563056306  4.31023440544054  0.48005384638464
 1  7.13735012201220  4.06752161316132 -0.32018836483648
 1  7.38397765776578  3.81749281728173  1.51965880388039
 1 -7.94007680168017 -3.40110476837684 -0.28369365836584
 1 -8.30650502150215 -2.99675967886789 -1.82295418441844
 1 -6.66081185318532 -3.25379991989199 -1.23604903890389
 1  6.91507736273627  0.45341855685569 -0.21759963496350
 1 -6.42246922292229  0.28668616371637 -0.16746187118712
 1  5.44607231223122  2.97464313631363  0.72041855085509
 1 -5.00354082508251 -2.39719739773977 -0.59880603060306
 1  4.14323751675168  0.14293903990399 -0.23251531953195
 1 -4.10246165016502  0.59465883788379  0.03423470447045
 1  3.91052668066807  3.35420731073107  1.44865810681068
 1  1.69569783078308  3.21791277327733  1.27704230623062
 1  2.55686106610661  3.71460808580858 -0.41895495349535
 1 -2.86081719671967 -2.96543883588359 -0.14887255225522
 1 -2.52498121112111 -2.58606566856686 -1.88970771277128
 1 -1.03024340934093 -2.59197674767477 -0.67989653265326
 1  2.37965932893289 -0.42795607660766 -0.21186739873987
 1 -1.77377200020002  1.18334657865787 -0.08069197619762
 1  0.28726902590259  2.05655108210821  0.00868287828783
 1  0.44210599559956 -1.34404456845685 -0.14603627762776

