%nproc=4
%Mem=2GB
# td=(NStates=1) CAM-B3LYP/6-31G(d,p) 

TD

0 1
 8  14.73349887488749 -2.15706863996400 -0.20908783178318
 8 -14.69759482348235  1.92595790089009  0.91486101710171
 6  11.01337368336834 -1.51287383948395  0.84722088308831
 6 -12.41103626762676 -1.05221683958396  0.66064970897090
 6  12.62614618061806 -1.93854315041504  0.97761265326533
 6 -13.76988370737074 -0.28203622352235  0.76061887388739
 6  13.36038407740774 -1.91102342444244 -0.40669421442144
 6 -13.54476376937694  1.27664632573257  0.87229848084808
 6  10.90238956595660 -0.25437306430643  0.00389709670967
 6 -11.28491485548555 -0.21996300320032 -0.14647232323232
 6  13.30610110111011 -0.53036152125213 -0.82257501150115
 6 -12.74672711071107  1.75027803490349 -0.32483183618362
 6  11.87230309930993  0.13877426032603 -0.81333397639764
 6 -11.54200479547955  0.96833346244624 -0.63321531753175
 6  10.63392443344334 -1.25593103410341  2.37548093209321
 6  10.21938255825583 -2.77933570157016  0.27387077707771
 6 -11.83736554255425 -1.26004569646965  1.98627475847585
 6 -12.65396189118912 -2.49207042894289  0.10723198519852
 6  9.64948018901890  0.39181813481348  0.17023098309831
 6 -10.02364793679368 -1.01326406830683 -0.41382266726673
 6  11.77159303930393  1.25959113301330 -1.76112810281028
 6 -10.63093138113811  1.72696217331733 -1.68199508950895
 6  9.38613251825183  1.69586582958296  0.11611825182518
 6 -8.81784318131813 -0.44657660656066 -0.32297739973997
 6  8.09839894489449  2.31469745274527  0.25906668166817
 6 -7.56924495849585 -1.22759108700870 -0.54302047104710
 6  7.95791757575758  3.72561141614161  0.63750793479348
 6 -7.65262355935594 -2.70740031693169 -0.91042972797280
 6  6.89130910191019  1.55725466646665 -0.15971845684568
 6 -6.42116481348135 -0.51209947184718 -0.42240116511651
 6  5.61288200220022  2.05394963296330  0.18781575057506
 6 -5.09370791679168 -1.03751082398240 -0.55858273627363
 6  4.49777856385639  1.30656685068507 -0.03528561356136
 6 -3.93861515851585 -0.23874609860986 -0.43997681268127
 6  3.19451694269427  1.71365575657566  0.12122623862386
 6 -2.55491094709471 -0.75825590459046 -0.37229558455846
 6  2.87172873987399  3.03263095509551  0.62672033003300
 6 -2.23229199719972 -2.20038353035304 -0.70882210821082
 6  2.22913200220022  0.72730479447945 -0.19709038903890
 6 -1.56567852785279  0.23468135713571 -0.18684263526353
 6  0.79434626362636  0.95169798379838 -0.00606927892789
 6 -0.16611648164816  0.02851525152515 -0.37930890089009
 1  13.00720930093009 -1.06633004310431  1.58548423742374
 1  12.66785028402840 -2.97389060316032  1.53446113011301
 1 -14.33340631363136 -0.76982442434243  1.61922284328433
 1 -14.43846734173417 -0.51499937183718 -0.08542039803980
 1  12.77701870887089 -2.56955626272627 -1.18130868886889
 1 -12.86290672267227  1.37680166226623  1.84278201220122
 1  13.74205879287929  0.14643722162216 -0.41091627262726
 1  13.74310986798680 -0.62443780088009 -2.06603933493349
 1 -13.28150335933593  1.89069412951295 -1.23444618761876
 1 -12.29094506750675  2.71499651975198 -0.08632759675968
 1  10.93228591759176 -1.96573500250025  2.97822251825183
 1  9.68476680368037 -0.93767356635664  2.50200695569557
 1  11.26516025802580 -0.40065893299330  2.65550893689369
 1  10.71974823782378 -2.68433320732073 -0.61264794779478
 1  10.43850285318532 -3.55265390839084  0.85813525352535
 1  9.08419573657366 -2.50811211921192  0.25850257125713
 1 -11.45842752875287 -0.10368286218622  2.09547984498450
 1 -10.82297513651365 -1.80561310521052  1.71844562856286
 1 -12.36566745974597 -1.75808322822282  2.65449602960296
 1 -13.33628407740774 -3.25112380828083  0.84570270127013
 1 -11.72013724872487 -3.09592618151815 -0.04806190819082
 1 -13.24806266526653 -2.49784897679768 -0.85801854385438
 1  8.94168607160716 -0.30093450445045  0.49466658765877
 1 -9.93113787878788 -2.02117918181818 -0.49790359235924
 1  10.73708500050005  1.62828749874988 -1.98373043204320
 1  12.34238006700670  2.26601754465447 -1.55110071807181
 1  12.10132180218022  0.82942379727973 -2.80209289828983
 1 -11.30572497349735  2.07443300740074 -2.51910263126313
 1 -10.18951492949295  0.97371139023902 -2.05885185218522
 1 -10.05277946194619  2.43113576767677 -1.27854101010101
 1  14.87494662266227 -2.93029835693569  0.15373365336534
 1 -15.35677037003700  1.39279657975798  1.46491758775878
 1  10.16787270627063  2.53543045104510  0.05129195419542
 1 -8.94923965996600  0.60271487258726 -0.21711233723372
 1  8.73804149114911  4.16899028102810  0.74660050105011
 1  7.38211459845985  4.44056891789179 -0.06107245324532
 1  7.33502276227623  3.99742081008101  1.48908574657466
 1 -7.94057685168517 -3.33674833273327 -0.07123241224122
 1 -8.40330470147015 -2.83812381528153 -1.57447933693369
 1 -6.80523629562956 -2.88447298719872 -1.40146558055806
 1  7.01060691569157  0.50643385838584 -0.54343221822182
 1 -6.38725570157016  0.71168866396640 -0.28754387938794
 1  5.52687039203920  3.04741041304130  0.72989949894989
 1 -4.71784225522552 -2.08485616361636 -0.54875102510251
 1  4.50640383338334  0.18582332833283 -0.54536660466047
 1 -4.06638804280428  0.88632800480048 -0.37270598959896
 1  2.93609923792379  3.26251814181418  1.61594483548355
 1  1.79971823282328  3.25172615461546  0.21163576557656
 1  3.64701008100810  3.74239086408641 -0.02712577057706
 1 -2.83775489048905 -2.79893218521852 -0.40754841984198
 1 -2.51482019501950 -2.26156321832183 -1.81412015401540
 1 -1.23269365436544 -2.18177572757276 -0.45676421942194
 1  2.53449481248125 -0.33418669966997 -0.57556376837684
 1 -1.80883550655065  1.25470371437144  0.03012910591059
 1  0.55147544654465  1.95771119811981  0.47041905190519
 1  0.16844862986299 -0.82999316331633 -0.84032570657066

