%nproc=4
%Mem=2GB
# td=(NStates=1) CAM-B3LYP/6-31G(d,p) 

TD

0 1
 8  14.68452397739774 -2.36055898899890 -0.51648857185719
 8 -14.73037810181018  1.81580688578858  0.89113864486449
 6  11.22819516551655 -1.31692424452445  0.96508266926693
 6 -12.25243040704070 -1.07980959885989  0.58876252025203
 6  12.69868343434343 -1.77896719281928  0.95694058605861
 6 -13.71182790179018 -0.26670469036904  0.58279109110911
 6  13.30863890289029 -2.05565788788879 -0.40773431843184
 6 -13.50417971097110  1.17098575967597  0.78996024702470
 6  10.95748507550755 -0.26832445944594 -0.01606489948995
 6 -11.36346271027103 -0.18572957985799 -0.28402607860786
 6  13.20388087908791 -0.69785827092709 -1.21180393439344
 6 -12.85083752175217  1.69165217231723 -0.42414176717672
 6  11.87703357235724  0.03152353525353 -1.03524616761676
 6 -11.61902249724973  0.99475610471047 -0.81542353835384
 6  10.78207924892489 -0.91471691269127  2.40183356735674
 6  10.39420004000400 -2.60102787078708  0.66901029102910
 6 -11.72614442044204 -1.26480617251725  2.02882901390139
 6 -12.49647614261426 -2.46689791169117  0.03778504050405
 6  9.57362260326033  0.32786173917392  0.17692165216522
 6 -10.05220079207921 -0.96762950485049 -0.54208549354936
 6  11.64018989898990  1.11065623952395 -2.07022901290129
 6 -10.70963925192519  1.78469794689469 -1.62058894889489
 6  9.44151805680568  1.60017626062606  0.12422906290629
 6 -8.86563796079608 -0.46555850475047 -0.18459356135614
 6  8.16209531453145  2.26844282728273  0.26911768676868
 6 -7.51678971297130 -1.15203353125313 -0.58662483148315
 6  7.99669145314531  3.71974082908291  0.54591877587759
 6 -7.63272156915692 -2.65924550145015 -0.98565725072507
 6  6.97635760676068  1.55484442544254  0.15387290229023
 6 -6.40220291729173 -0.59356761866187 -0.22137106210621
 6  5.64839555355536  2.04134837283728  0.37399436843684
 6 -5.03147169316932 -1.15208228112811 -0.49699657765777
 6  4.44753353935393  1.31621781578158  0.11872978797880
 6 -3.95206650365036 -0.22906513051305 -0.20267308230823
 6  3.13021051205121  1.77730212121212  0.26620073607361
 6 -2.66129158515852 -0.64877495649565 -0.35172352735274
 6  2.79021058805881  3.10484817681768  0.88553621162116
 6 -2.20801956995700 -2.06275976797680 -0.82079330533053
 6  2.10236932593259  0.79967203120312 -0.02463314331433
 6 -1.62275423542354  0.22860074907491 -0.18426237723772
 6  0.74884171317132  1.01727454145415 -0.09122779477948
 6 -0.26216608660866 -0.01113871387139 -0.29415038503850
 1  13.34611319131913 -0.87493090319032  1.44311000000000
 1  12.79719321832183 -2.65265847994799  1.69541722572257
 1 -14.35163813681368 -0.79149659155916  1.41189211021102
 1 -14.06704019901990 -0.43668154005400 -0.39317117311731
 1  12.64522552955296 -2.66039534663466 -1.02242280028003
 1 -12.78266869886989  1.29620360246025  1.53612134613461
 1  13.97041162816282  0.02542512041204 -0.73758893989399
 1  13.64938049504950 -0.90669602670267 -2.21025375637564
 1 -13.68451366036604  1.46531159125913 -1.36421916491649
 1 -12.62445841884188  2.75949096919692 -0.43210217421742
 1  10.96580926992699 -1.81479990899090  3.23599829582958
 1  9.75354368136814 -0.74975477447745  2.46348310331033
 1  11.51672541454145 -0.22460132723272  2.87807119311931
 1  10.40799706270627 -3.15210998499850 -0.44407109010901
 1  10.80434943784378 -3.25284392739274  1.34777421742174
 1  9.15156247324733 -2.57290859885989  0.89900662166217
 1 -11.55719740574057 -0.46345883978398  2.63159345634563
 1 -10.80851369036904 -1.56792933683368  1.83582736673667
 1 -12.32259315231523 -1.87089450935094  2.51117169716972
 1 -13.53112356135614 -2.62760145604560  0.54722285328533
 1 -11.81599683468347 -3.24968155705571  0.20003290129013
 1 -12.47729558855885 -2.26086527842784 -1.08342108410841
 1  8.84459636263626 -0.35353976497650  0.52838995999600
 1 -10.17142190719072 -1.96525358925893 -0.83669747174717
 1  10.43448474047405  1.44285895589559 -2.29232129112911
 1  12.37211304030403  2.06445738863886 -1.85420102810281
 1  12.00699236923692  0.75416627152715 -3.10997368636864
 1 -11.27677207820782  2.40980654475448 -2.24952567356736
 1 -10.08959493749375  1.12363638273827 -2.21656762376238
 1 -10.11867605160516  2.33787644174417 -1.00350350635064
 1  14.59133826182618 -3.27679300640064 -0.07329904990499
 1 -15.14796948994899  1.41020832093209  1.60774187018702
 1  10.33684960396040  2.39164607260726 -0.06697987298730
 1 -8.63226796279628  0.51871647274727  0.13090246424643
 1  8.89562724972497  4.14663804580458  0.28148398939894
 1  7.07305369236924  3.90517537853785 -0.07399374537454
 1  7.92532179217922  3.85814688268827  1.67519435743574
 1 -7.99610240424042 -3.29564422232223 -0.23962925192519
 1 -8.31898626962696 -2.60419042194220 -1.83549543854385
 1 -6.69239501150115 -3.10481502140214 -1.33512894689469
 1  6.77827368236824  0.59627284228423 -0.23714158915892
 1 -6.44315129112911  0.55060255535554  0.01905678067807
 1  5.40491819681968  3.10409608160816  0.74092060106011
 1 -4.91771224222422 -2.19886756475648 -0.76271242124212
 1  4.59687288028803  0.30978572457246 -0.58599066706671
 1 -4.24509591359136  0.72213158515852  0.25868714971497
 1  3.94201982998300  3.50383227322732  1.62149539053905
 1  1.75590385138514  3.15234621662166  1.27212181418142
 1  2.80995637563756  4.03398002300230  0.05813275527553
 1 -2.78403951895190 -2.72935522752275 -0.35224288928893
 1 -2.50685939893989 -2.22354941694169 -1.70412915491549
 1 -1.19088947394739 -2.13457100710071 -0.65605414841484
 1  2.46430779377938 -0.15581886288629 -0.20888710071007
 1 -1.93946856985699  1.30698894289429 -0.07219112611261
 1  0.24605490449045  2.06111153815382  0.29727173717372
 1 -0.00044825982598 -1.02212237623762 -0.39815148914892

