%nproc=4
%Mem=2GB
# td=(NStates=1) CAM-B3LYP/6-31G(d,p) 

TD

0 1
 8  14.78186371137114 -2.24625755885589 -0.13789071207121
 8 -14.82029709370937  1.85079038413841  0.80963049404941
 6  11.24046639263926 -1.55875842794279  0.85734189518952
 6 -12.39613477747775 -1.13202482038204  0.54033767776778
 6  12.69958352435243 -1.93751304740474  0.97209210121012
 6 -13.78534525352535 -0.34238225812581  0.50925373737374
 6  13.42536057505751 -1.95886820892089 -0.30765431043104
 6 -13.62178147114712  1.09657831893189  0.80277152815282
 6  10.89940926792679 -0.34377200420042 -0.13477677067707
 6 -11.27796416041604 -0.26523753065307 -0.22414009000900
 6  13.27352784378438 -0.57277576267627 -1.07534028802880
 6 -12.80570300830083  1.77703071017102 -0.26553590659066
 6  11.81166703570357 -0.02708232533253 -0.95028767176718
 6 -11.46928752375237  1.05438206730673 -0.55720771677168
 6  10.77250829182918 -1.12745818681868  2.31480486448645
 6  10.40086070607061 -2.71153892189219  0.51016440644064
 6 -11.96728853485348 -1.47257694959496  1.81435756675668
 6 -12.69236573157316 -2.33278450035004 -0.32926166416642
 6  9.63713895489549  0.34125307830783  0.05661962196220
 6 -10.00481605360536 -0.97231997389739 -0.57891917691769
 6  11.65186106610661  1.11380655455546 -2.05103709370937
 6 -10.47411569956996  1.91238071517152 -1.28107499749975
 6  9.38264216921692  1.63853009600960  0.06547318731873
 6 -8.79732112911291 -0.51204315321532 -0.20213531553155
 6  8.09685879087909  2.32824880788079  0.20447122212221
 6 -7.51957999199920 -1.20409873777378 -0.41329749874987
 6  8.04998678267827  3.87686654165417  0.39744392839284
 6 -7.64820311731173 -2.60690026692669 -1.10119880488049
 6  6.89363933493349  1.57716665766577  0.02468998399840
 6 -6.33868656565657 -0.59563782568257 -0.09759868486849
 6  5.64148486248625  2.21588582658266  0.16544351335134
 6 -4.99128767476748 -1.08768584148415 -0.42445932393239
 6  4.48545733173317  1.47283347734773 -0.03502558755876
 6 -3.96449774677468 -0.31691391539154 -0.06395921092109
 6  3.07936542754275  1.78385277627763  0.05386950295030
 6 -2.56533198919892 -0.75379545854585 -0.26431478647865
 6  2.74998656565657  3.29504719671967  0.37868552655266
 6 -2.32303107110711 -2.11111460346035 -0.78233945994599
 6  2.12559164816482  0.80187225122512  0.03500282028203
 6 -1.54683664366437  0.12803069206921 -0.04115806680668
 6  0.68824565356536  0.93366618061806  0.11999332733273
 6 -0.24928479847985 -0.08685628562856 -0.04971594159416
 1  13.16621520152015 -1.18629203930393  1.65669135813581
 1  12.92641614061406 -2.83587680178018  1.50750843484349
 1 -14.40936390939094 -0.84751219311931  1.20289121012101
 1 -14.31349484448445 -0.30906877877788 -0.34046590259026
 1  13.02946395339534 -2.64221352845285 -1.09632019001900
 1 -13.11914234623462  1.58008199029903  1.59880761476148
 1  13.93934852185219 -0.00469789188919 -0.47485266626663
 1  13.42200775777578 -0.48286364346435 -2.13093582458246
 1 -13.18893410241024  1.77622268236824 -1.23320606360636
 1 -12.61975794879488  2.81399641974197  0.14535557155716
 1  10.65997868686869 -1.92123055205521  3.05879057505751
 1  9.62268059505950 -0.74894469346935  2.48735549054905
 1  11.17802154415442 -0.03494236133613  2.64289767576758
 1  10.95491175417542 -3.16949172317232 -0.33370005300530
 1  10.59724872777278 -3.63065170817082  1.43777321732173
 1  9.20238755575558 -2.55230653865387  0.38596531753175
 1 -11.91616330233023 -0.40228272217222  2.48836913391339
 1 -11.00751359035904 -1.89143168706871  1.86444022802280
 1 -12.85992688568857 -2.24459187908791  2.27693827382738
 1 -13.73469391839184 -2.92673136903690 -0.20953282228223
 1 -11.86249148414842 -3.06284287318732 -0.20556765876588
 1 -12.78751661066106 -1.97693688558856 -1.42306504850485
 1  8.86308821182118 -0.28009242024202  0.42266938793879
 1 -9.94590935593559 -2.05044210811081 -0.90211401340134
 1  10.66085737773777  1.46235090509051 -2.18130018901890
 1  11.97254308330833  2.03011395429543 -1.62434804280428
 1  12.25604727472747  0.80520137503750 -2.91462415141514
 1 -10.91622602360236  2.44766033013301 -2.15527624862486
 1 -9.55365134313431  1.29264328342834 -1.61021698869887
 1 -10.29132331633163  2.80815346944695 -0.45602875887589
 1  14.99533866186619 -3.12520784788479  0.20238851885189
 1 -15.41852654565457  1.72751005110511  1.66309740574057
 1  10.23222914191419  2.30469737773777 -0.16487966296630
 1 -8.54955969196920  0.47855245634564  0.41654102810281
 1  9.12277996499650  4.07222060406041  0.48265410641064
 1  7.66076246324632  4.27579244024402 -0.54626097209721
 1  7.24806406640664  4.30302137013701  1.20154699269927
 1 -8.30802359635964 -3.31665632353235 -0.65219050805080
 1 -7.84362873387339 -2.58000800370037 -2.29874176317632
 1 -6.53858963096310 -2.92970751065107 -0.99595502950295
 1  7.11257711271127  0.53940715571557 -0.24821269626963
 1 -6.30262723872387  0.38327582268227  0.14840971597160
 1  5.59433713871387  3.22164783678368  0.44571108010801
 1 -4.80497096809681 -2.08037571557156 -0.75252140214021
 1  4.77952114511451  0.42048679467947 -0.22080414841484
 1 -4.21719312331233  0.60918029002900  0.52002328332833
 1  2.69887551555156  3.45384727472747  1.48124136513651
 1  1.71550981198120  3.57304828682868  0.11288589058906
 1  3.54225960596060  4.00393701870187 -0.11289434743474
 1 -2.66254736973697 -2.80091238323832 -0.16594425942594
 1 -2.65235394839484 -2.31905896789679 -1.72232097409741
 1 -1.24739512451245 -2.38246579657966 -0.62938148114811
 1  2.30111147414741 -0.13756703770377 -0.12801901390139
 1 -1.83246786978698  0.93353159715972  0.40266635963596
 1  0.42715301430143  2.08374380138014  0.11241325132513
 1  0.25945773077308 -1.08571873587359 -0.39248092209221

