%nproc=4
%Mem=2GB
# td=(NStates=1) CAM-B3LYP/6-31G(d,p) 

TD

0 1
 8  14.80341586658666 -2.35312824592459  0.02527560456046
 8 -14.81184624862486  1.82325763086309  1.20541007200720
 6  11.23935628162816 -1.49808236033603  1.01594775577558
 6 -12.33818898289829 -1.10608222612261  0.64078772277228
 6  12.62068563456346 -2.03928322442244  1.08207309930993
 6 -13.70639735873587 -0.30514853475348  0.81053386538654
 6  13.40808884788479 -1.95797811991199 -0.17088063306331
 6 -13.49284857785779  1.14588324942494  1.10708195919592
 6  11.02291161816182 -0.32447007400740  0.05668237523752
 6 -11.32496886088609 -0.30306131303130 -0.09822749874988
 6  13.37747823882388 -0.57950643574357 -0.90299305330533
 6 -12.86204864286429  1.71442444954495 -0.16338569156916
 6  11.95274114311431  0.02207259015902 -0.81236387938794
 6 -11.64954554955495  0.92425905500550 -0.61407340334033
 6  10.76581762276228 -1.08698413941394  2.45394877887789
 6  10.37050767076708 -2.66742451045105  0.59791318131813
 6 -11.74211601760176 -1.43248294019402  2.02337846884688
 6 -12.64958145314531 -2.48843006490649 -0.09681841984198
 6  9.64714995599560  0.29486843984398  0.17536149614962
 6 -10.13541911391139 -0.95388813071307 -0.49613089808981
 6  11.77756363636364  1.05028020192019 -2.00081207120712
 6 -10.70060834883488  1.73562303940394 -1.47297418741874
 6  9.35722962796280  1.66615285828583  0.03693033303330
 6 -8.92504390139014 -0.46476842574257 -0.25368047004700
 6  8.01788089308931  2.31778776177618  0.06763753875388
 6 -7.61895992999300 -1.17872620052005 -0.58551472047205
 6  7.95923770777078  3.71656051105111  0.52565674967497
 6 -7.76047434443444 -2.55552512941294 -1.25109379437944
 6  6.90974094509451  1.59116805780578 -0.08444092909291
 6 -6.41178387538754 -0.57725598749875 -0.36640556555656
 6  5.60946166016602  2.16787102510251  0.12061903090309
 6 -5.02222076807681 -0.98070514341434 -0.67296417441744
 6  4.43284207020702  1.41207740174017 -0.15475756075608
 6 -3.92359365636564 -0.16293851785179 -0.35327814281428
 6  3.09841733273327  1.80866525752575  0.04405852185219
 6 -2.60633608960896 -0.65542562156216 -0.55197355235524
 6  2.90226179317932  3.24086177817782  0.50627828582858
 6 -2.27778654665467 -1.96491998399840 -1.00762198819882
 6  2.13571266026603  0.93030509450945 -0.30051073107311
 6 -1.56130809080908  0.18600648964896 -0.25722967396740
 6  0.76409323832383  1.07633044704470 -0.19955862786279
 6 -0.17381725172517  0.02703510351035 -0.49829079907991
 1  13.05561414141414 -1.44054746484648  2.03692938193819
 1  12.55320881988199 -3.02345555965597  1.66219390339034
 1 -14.48572154515452 -0.62759020092009  1.44357527852785
 1 -14.15270876587659 -0.67769564146415 -0.12292414841484
 1  12.70459146614661 -2.45967527462746 -0.78275883388339
 1 -12.88838927092709  1.31183516561656  1.91192892689269
 1  14.11843643064307  0.37236981488149 -0.32335751675168
 1  13.59564512151215 -0.77657301440144 -1.92561529252925
 1 -13.81032624162416  1.77030209030903 -0.93817656065607
 1 -12.88149412241224  2.72861788188819 -0.20401936593659
 1  10.94996768576858 -1.86445487448745  3.18559325532553
 1  9.69091741874187 -0.65157495649565  2.43560031503150
 1  11.46325006700670 -0.20131899899990  2.74630801680168
 1  10.83574983798380 -3.17725249924992 -0.39064574757476
 1  10.50241924482448 -3.45974461746175  1.38712815281528
 1  9.32545986298630 -2.48964027202720  0.28067478847885
 1 -11.52839452545254 -0.58027052095210  2.68077837483748
 1 -10.61759459845985 -1.68782132603260  1.76302008600860
 1 -12.24780567356736 -2.24337175707571  2.70561114111411
 1 -13.33142359135914 -3.09478817471747  0.57628575957596
 1 -11.87692292729273 -3.23244983388339 -0.35190229222922
 1 -12.98719657865787 -2.02271146304631 -1.14010675267527
 1  8.80069197219722 -0.28118252925292  0.59420654165417
 1 -10.11271603660366 -1.98532559645965 -1.10706450845084
 1  10.78014930693069  1.16997166716672 -2.08753081208121
 1  12.34100992999300  1.96408735163516 -1.65053066106611
 1  12.29051072107211  0.64866572147215 -2.87966065506551
 1 -11.29611401240124  2.34517008110811 -2.23801452245225
 1 -10.00588656665666  1.13413743284328 -2.16274224122412
 1 -10.07375155915591  2.21641429552955 -0.88410156615662
 1  14.59048817681768 -3.31142646974697  0.25052333233323
 1 -15.09839453245324  1.35763306340634  2.01031212721272
 1  10.08157407640764  2.49130603860386 -0.06520969596960
 1 -8.87582231823182  0.56140074117412  0.19734910891089
 1  9.05749343634363  3.93702708470847  0.63563940494049
 1  7.33192957995800  4.42319718071807 -0.20582692869287
 1  7.64492375237524  3.76272734073407  1.69288612661266
 1 -8.14226702070207 -3.34053871177118 -0.40560584958496
 1 -8.43523789478948 -2.56163616651665 -2.13359524852485
 1 -6.83385915791579 -3.12114665456546 -1.65988142214221
 1  6.92711856685669  0.49526274127413 -0.33498137313731
 1 -6.78361533753375  0.55104259935994 -0.09131425642564
 1  5.62391009600960  3.16331200320032  0.28638514751475
 1 -4.86136660766077 -1.99624730273027 -0.72799894989499
 1  4.75250844384439  0.42394714071407 -0.23378544654465
 1 -4.05941734573457  0.88752812481248 -0.29110782978298
 1  3.14830045804580  3.49631152115212  1.60654389538954
 1  1.89442770377038  3.35313629562956  0.79552415441544
 1  3.27740312031203  3.95882250725073 -0.15622868086809
 1 -2.65298641364136 -2.72869516151615 -0.32223988898890
 1 -2.68968768176818 -2.28591565356536 -2.08739748174817
 1 -1.26451683668367 -2.16409395939594 -1.06706524952495
 1  2.53226458945895  0.00927764676468 -0.55165137713771
 1 -1.74137876087609  1.27923616761676  0.00855694869487
 1  0.26759705870587  1.99108453545355  0.41274328432843
 1  0.31834361936194 -0.85043520752075 -0.95347702170217

