%nproc=4
%Mem=2GB
# td=(NStates=1) CAM-B3LYP/6-31G(d,p) 

TD

0 1
 8  14.74213973897390 -2.05195812891289  0.03679675667567
 8 -14.52886795079508  2.02209751485149  1.50732026302630
 6  11.16557890389039 -1.44914746684668  1.09807596859686
 6 -12.23556872087209 -0.88718033593359  0.82397604160416
 6  12.70437400340034 -1.75739503560356  1.21385627762776
 6 -13.60962768176818 -0.26817483738374  1.09058187018702
 6  13.36937497649765 -1.87046936903690 -0.16144968996900
 6 -13.31566085908591  1.24164282538254  1.27071832283228
 6  10.95641496849685 -0.26071369836984  0.16754346134613
 6 -11.32931929592959 -0.12756376327633 -0.08014569056906
 6  13.12538302930293 -0.54661314641464 -0.97422017601760
 6 -12.69552199019902  1.87319032613261  0.02661330833083
 6  11.80993686268627  0.11764214711471 -0.77439008200820
 6 -11.44631522652265  1.17998462756276 -0.48406040204020
 6  10.69898093909391 -1.07072251325133  2.57323070707071
 6  10.35751637163716 -2.64387215521552  0.59489287928793
 6 -11.43067487348735 -1.23313300520052  2.07518364936494
 6 -12.75610210521052 -2.22561378327833  0.11400266226623
 6  9.60495573657366  0.46388534153415  0.42503646364636
 6 -10.05373094509451 -0.82148489038904 -0.55171645664566
 6  11.53904978497850  1.18518369226923 -1.80395238523852
 6 -10.81342963096310  1.88285776287629 -1.51574846484648
 6  9.41666557155716  1.74688093109311  0.33245988598860
 6 -8.71599299629963 -0.46701865076508 -0.53419852185219
 6  8.07058616361636  2.34116009900990  0.35596637163716
 6 -7.53543157715772 -1.22751107900790 -0.69235540454045
 6  8.05229701370137  3.83551240624062  0.58624280828083
 6 -7.71564986198620 -2.72230180708071 -1.02633131813181
 6  6.87275724672467  1.64278321932193  0.13289080408041
 6 -6.32711540854085 -0.66143440534053 -0.79966889188919
 6  5.54613532753275  2.12364660266027  0.30699766876688
 6 -5.04166271227123 -1.32393946684668 -0.80207708570857
 6  4.45918470447045  1.27083327732773 -0.16840892589259
 6 -3.93191448844884 -0.65469769376938 -0.65973878887889
 6  3.04065155615562  1.70245463646365 -0.14864074807481
 6 -2.58534399039904 -1.01816189518952 -0.93955231023102
 6  2.55348691569157  2.98835652765277  0.51503916191619
 6 -2.34356312431243 -2.49993348534854 -1.28897012301230
 6  2.08498758775878  0.70595265926593 -0.63436411641164
 6 -1.57712967296730 -0.07611972297230 -0.82553650465047
 6  0.70379720872087  0.84573738773877 -0.57995666766677
 6 -0.20658052805281 -0.20037763776378 -0.88607957795780
 1  13.12843142314231 -1.12786619671967  1.84411010001000
 1  12.70175367436744 -2.64857807190719  1.78745642964296
 1 -13.97784075707571 -0.66319376127613  2.08241916291629
 1 -14.43195669066907 -0.46542441434143  0.15913405740574
 1  12.75081608860886 -2.62182148924892 -0.65888644664467
 1 -12.66953738573857  1.39143312541254  2.27489522352235
 1  13.96439102610261 -0.01185860796080 -0.54456963796380
 1  13.27709326632663 -0.58783414051405 -1.98116084708471
 1 -13.43681889088909  2.06696175627563 -0.81732447544755
 1 -12.44319029202920  2.94306932703270  0.24418545454545
 1  10.99944263326333 -1.76485491449145  3.49328402440244
 1  9.57154548154815 -0.88032783178318  2.63084983998400
 1  11.05315905790579 -0.16314518161816  2.79621300730073
 1  10.52733899689969 -2.92330710471047 -0.34979166216622
 1  10.64180318321832 -3.61909055205521  1.23714315431543
 1  9.24306162316232 -2.51139244724473  0.63167988898890
 1 -11.22285397139714 -0.32687518141814  2.74001429842984
 1 -10.48269110811081 -1.56436898079808  2.05326911091109
 1 -12.13499439243924 -1.84336175607561  2.83228380838084
 1 -13.69315976497650 -2.57945664156416  0.57031516251625
 1 -12.25406064106411 -3.14366095499550  0.02554545254525
 1 -13.38842670167017 -1.74902409430943 -0.85449819181918
 1  8.77851975497550 -0.13762817381738  0.81337845884588
 1 -10.40189495449545 -1.90237730163016 -0.67034083608361
 1  10.50592188418842  1.40905557555756 -1.87361942094209
 1  11.73380920992099  2.16950789368937 -1.48033364136414
 1  12.27957962796279  0.74836569146915 -2.71540422942294
 1 -11.53192759375938  2.24548011211121 -2.26897761876188
 1 -9.93852983098310  1.39455347444745 -1.99635560256026
 1 -10.27523170717072  2.75229788388839 -1.09637279327933
 1  14.85011413941394 -2.99265459255926  0.26917519751975
 1 -15.04102879587959  1.67921522162216  2.19968106410641
 1  10.29600551955196  2.29409631763176  0.05031185618562
 1 -8.59908464446445  0.51043564466447 -0.32025265126513
 1  9.07484517151715  4.29957333933393  0.83652949394940
 1  7.54137052405240  4.42019688068807 -0.23496984298430
 1  7.38200746074607  3.92995406340634  1.33347018501850
 1 -8.27431022502250 -3.37868252615262 -0.22257754675468
 1 -8.36848121912191 -2.87593759665967 -1.86373826282628
 1 -6.84331010301030 -3.16795133503350 -1.40057549154916
 1  6.97208306330633  0.62194540954095 -0.17039491449145
 1 -6.59686666266627  0.38014550965096 -0.62766789178918
 1  5.25265297029703  3.15395106710671  0.71511802080208
 1 -4.90816128712871 -2.30105778377838 -1.29552570257026
 1  4.72819601260126  0.28122286828683 -0.67018908690869
 1 -4.11967337133713  0.45100447244724 -0.43831255025503
 1  2.82430805880588  3.34417630763076  1.64648788978898
 1  1.61177943894389  2.98951993399340  0.74075867786779
 1  3.13263864386439  3.82578920392039 -0.09131218921892
 1 -2.27258837383738 -3.09124141614161 -0.29446711171117
 1 -3.19507822082208 -2.72362942494249 -2.23121186318632
 1 -1.37166755175518 -2.46326387638764 -1.60450899389939
 1  2.63023438643864 -0.22008528952895 -1.11844805680568
 1 -1.94820944394439  0.87906615061506 -0.42709661666167
 1  0.19806010501050  1.77172259925993 -0.05530352035204
 1  0.14268605360536 -1.38336850085008 -0.93862553655366

