%nproc=4
%Mem=2GB
# td=(NStates=1) CAM-B3LYP/6-31G(d,p) 

TD

0 1
 8  14.81517704270427 -2.11519445254525 -0.20574749774977
 8 -14.80172523652365  1.98606391149115  0.88849838083808
 6  11.27055940194019 -1.44602715481548  0.84890105110511
 6 -12.33678884288429 -0.95007662556256  0.54175781978198
 6  12.68436200220022 -1.78471776787679  0.97855274727473
 6 -13.70472719171917 -0.18777679757976  0.54108692069207
 6  13.42875091409141 -1.83804612671267 -0.36962050705071
 6 -13.45319461246125  1.28521718281828  0.82462371337134
 6  11.00670999799980 -0.25644327132713 -0.05237853085309
 6 -11.31753811781178 -0.22081308820882 -0.31028870487049
 6  13.39531002200220 -0.39177766286629 -0.88624137813781
 6 -12.64825726372637  1.87989099619962 -0.21728108110811
 6  12.06323219221922  0.27399778267827 -0.82164480748075
 6 -11.43570416541654  1.06695332443244 -0.70930292629263
 6  10.66950799179918 -1.13314875587559  2.29780316431643
 6  10.37133775377538 -2.73132090009001  0.27182057205721
 6 -11.89324113011301 -1.13049274117412  2.04924105510551
 6 -12.67761425642564 -2.37076829872987 -0.01577031503150
 6  9.65240048104810  0.27449640264026 -0.05888192819282
 6 -10.08717428942894 -0.90721346324632 -0.59831111611161
 6  11.82665854585459  1.42363753765377 -1.76811880188019
 6 -10.54849313731373  1.78533801090109 -1.53423031303130
 6  9.34285819081908  1.67389363236324  0.04494113411341
 6 -8.77241863886389 -0.53100504940494 -0.41713681568157
 6  8.01026013101310  2.12624860786079  0.22485326032603
 6 -7.62738077207721 -1.33222155005501 -0.52836900590059
 6  7.83450523452345  3.60530938593859  0.50898508250825
 6 -7.73187148414841 -2.80508008490849 -0.91429011401140
 6  6.86203617461746  1.35216415741574 -0.10537302230223
 6 -6.42165486248625 -0.67169543144314 -0.33829275427543
 6  5.57723843784378  1.89917415541554  0.03210017901790
 6 -5.05522406840684 -1.16585365826583 -0.38277515551555
 6  4.40751953795380  1.23699989398940 -0.18119020402040
 6 -4.00173147014702 -0.42525474947495 -0.20599341434143
 6  3.07005449644965  1.71315570657066  0.10097421342134
 6 -2.68674413041304 -0.83735381438144 -0.24382273727373
 6  2.91532309930993  3.08002569456946  0.75768342634263
 6 -2.28827759575958 -2.21034452645265 -0.64274550055006
 6  2.07328641764176  0.77570963496350  0.01184050405041
 6 -1.62646460646065  0.16236412541254 -0.09160311131113
 6  0.65248207720772  0.97024983898390 -0.00575924792479
 6 -0.19266913691369 -0.06226382638264 -0.10513148314831
 1  13.25234381438144 -1.32533594369437  1.62464815381538
 1  12.72196569556956 -2.99594280838084  1.31132881688169
 1 -14.38208118111811 -0.48266570847085  1.42773369436944
 1 -14.32003549854985 -0.04342221412141 -0.40093194919492
 1  12.95797680468047 -2.56304561166117 -1.06713727172717
 1 -12.91023145514551  1.40758474057406  1.77826556055606
 1  14.09487407440744  0.19833241114111 -0.25948112911291
 1  13.64044960196020 -0.32398775587559 -1.96175890689069
 1 -13.32878808780878  1.84573963406341 -1.17331007400740
 1 -12.27165313831383  2.91004602470247  0.13683471947195
 1  10.90417310631063 -1.84447287628763  3.06000069606961
 1  9.62457078407841 -0.98528832783278  2.24214096909691
 1  11.12332607460746 -0.17722658975898  2.62041542754275
 1  10.98716497949795 -3.21755652965297 -0.59461614461446
 1  10.35363436633663 -3.49842848584859  1.18680812081208
 1  9.28161547854786 -2.42845415341534  0.05546226722672
 1 -11.92758444444445 -0.15258775267527  2.67728802580258
 1 -10.65682852185219 -1.52326487038704  1.96422020602060
 1 -12.62055294829483 -2.19071649154916  2.34807538753875
 1 -13.63498394739474 -2.81728042394239  0.26224435543554
 1 -11.85159039403940 -2.93181977087709 -0.05681278327833
 1 -12.59608746774677 -2.44050324222422 -1.10291303330333
 1  8.71279318231823 -0.35195960696070 -0.15129800880088
 1 -10.09194395939594 -1.92069913381338 -0.66786058805881
 1  10.83985527752775  1.73846851685168 -1.88881094009401
 1  12.52800862986298  2.36175711861186 -1.35928153615362
 1  12.11857352735274  1.26745760066007 -2.68653134213421
 1 -11.23136753775377  2.18267383148315 -2.11311203220322
 1 -9.87108308630863  1.42192621172117 -2.09670563756376
 1 -9.89913409740974  2.49454210831083 -0.99770292629263
 1  14.96539566756676 -3.03520884798480  0.01835011501150
 1 -15.52632732573257  1.10596789688969  1.31963305930593
 1  10.11647756675668  2.37957486548655  0.27516434143414
 1 -8.70720545654565  0.49961456255626  0.00666004000400
 1  8.80197788478848  4.11562494449445  0.68951479247925
 1  7.22488887588759  4.30277513851385 -0.18433477947795
 1  7.25497475747575  3.52925399339934  1.52103894189419
 1 -8.30033282728273 -3.28278293619362 -0.16444173317332
 1 -8.19467383838384 -2.77953795669567 -1.86023791279128
 1 -6.88530430243024 -3.34513905380538 -0.96269170317032
 1  6.97160301530153  0.37071028602860 -0.34111198619862
 1 -6.53075005100510  0.30915841094109 -0.08672379737974
 1  5.31269897489749  2.84020969296930  0.30958746774677
 1 -4.83035350635063 -2.21164884288429 -0.60188633863386
 1  4.61276446944694  0.35051979797980 -0.52793486148615
 1 -4.02216362036204  0.59626899889989  0.28992027302730
 1  3.04986061406141  2.93809569956996  1.83195643664366
 1  1.83128138913891  3.45130611261126  0.65307990999100
 1  3.37294267426743  4.09592621762176  0.22868981098110
 1 -2.64058517351735 -2.71034332633263  0.05215755075507
 1 -2.63832254525453 -2.43330039203920 -1.69443818581858
 1 -1.20395078007801 -2.29104665466547 -0.56759530253025
 1  2.45757712071207 -0.25332861386139 -0.18488470047005
 1 -1.90025464846485  1.23295153915392 -0.34921882888289
 1  0.36774707370737  1.90584601160116  0.25640765076508
 1  0.07513929892989 -1.08999916391639 -0.64823649764976

