%nproc=4
%Mem=2GB
# td=(NStates=1) CAM-B3LYP/6-31G(d,p) 

TD

0 1
 8  14.63078860386039 -2.30719365246525 -0.01436835983598
 8 -14.78734379837984  1.65330063516352  1.12597212821282
 6  11.08130047604760 -1.52462501460146  1.00055621662166
 6 -12.23654881888189 -1.16306792469247  0.67113075707571
 6  12.57310087608761 -1.90386968306831  1.11856674867487
 6 -13.58175489448945 -0.47005502540254  0.78637144914491
 6  13.22481052005201 -2.16315863796380 -0.19847339233923
 6 -13.53930322332233  1.05938459955996  0.98816006700670
 6  10.92246157315732 -0.35210283728373  0.02871957895790
 6 -11.24854121812181 -0.29666067296730 -0.33956163216322
 6  13.15098558955895 -0.81485997109711 -1.01791454545455
 6 -12.96525896389639  1.63007601470147 -0.25156450945094
 6  11.83641951095110  0.01167155005501 -0.92490513351335
 6 -11.54656525152515  1.03894052315232 -0.58248024402440
 6  10.61357239823982 -1.14271971297130  2.41205458945895
 6  10.25238585858586 -2.71375914391439  0.51731512151215
 6 -11.63040484648465 -1.31291098299830  2.05653178417842
 6 -12.55438193319332 -2.56953817571757  0.11545280728073
 6  9.59625486648665  0.29683863686369  0.07938189818982
 6 -9.97085265726573 -0.89823256515652 -0.46415770077008
 6  11.64898077807781  1.13271844574457 -1.79050104010401
 6 -10.70243853185318  1.82976245334533 -1.50647753775378
 6  9.32083598859886  1.69777602060206 -0.08257161716172
 6 -8.72954435143514 -0.42920486938694 -0.48457355935594
 6  8.09018812381238  2.33528951195119  0.13900467546755
 6 -7.47950598459846 -1.14883321122112 -0.66157232623262
 6  8.07080886488649  3.77194604960496  0.61998618261826
 6 -7.50922921992199 -2.57372694959496 -1.21338002300230
 6  6.89570954195420  1.65885482648265 -0.01099358435844
 6 -6.35348804580458 -0.44504276617662 -0.38715764076408
 6  5.64833554755476  2.14441867986799  0.10552752175218
 6 -5.06958550455046 -0.96541361426143 -0.46367324532453
 6  4.51246003200320  1.37660385438544 -0.09278136313631
 6 -3.92684398139814 -0.20506273027303 -0.32783559855986
 6  3.16956444744474  1.88077246824682  0.00431454745475
 6 -2.56317177317732 -0.59435951495150 -0.44924327932793
 6  2.97855942294229  3.28597628962896  0.47646530453045
 6 -2.30494926292629 -2.02039553155316 -1.06518774477448
 6  2.13195228422842  0.96177824182418 -0.19939061906191
 6 -1.59630159015902  0.28834672367237 -0.15038898989899
 6  0.71251808080808  1.13654646864686 -0.04061273327333
 6 -0.21579144914491  0.11728412841284 -0.30266123612361
 1  13.18249682968297 -0.98820223032303  1.51141683068307
 1  12.73774727372737 -2.77736095019502  1.83145082908291
 1 -14.15147812081208 -0.91643908580858  1.47041796279628
 1 -14.11929542454245 -0.55441331323132 -0.21303315931593
 1  12.80036104310431 -2.94463377047705 -0.69138969696970
 1 -13.03977440944094  1.31149513161316  2.05860359435944
 1  13.97110169716972 -0.07028445054505 -0.84103928492849
 1  13.28112366936694 -1.15329068616862 -2.16185891689169
 1 -13.57129233823382  1.42429748984898 -1.21320406340634
 1 -12.83338931193119  2.78779379947995 -0.28819778377838
 1  10.80113280228023 -1.94432286128613  3.21172586858686
 1  9.54987331433143 -0.92723252225222  2.44270102510251
 1  10.99900364236424 -0.08928779587959  2.68768215421542
 1  10.59176543954396 -2.95419019301930 -0.46018270127013
 1  10.32653165606561 -3.62063070607061  1.19265870587059
 1  9.17534485148515 -2.53445475347535  0.25093181418142
 1 -11.49799148514851 -0.25568806270627  2.52587288428843
 1 -10.59153199219922 -1.90578312221222  1.64759854385439
 1 -12.25181607460746 -1.98160558045805  2.79933051305130
 1 -13.39223967296730 -3.04630332623262  0.64238236923692
 1 -11.75339057405741 -3.28010459935994  0.26889978797880
 1 -12.96677453645365 -2.51806099799980 -1.02773551555156
 1  8.74082598559856 -0.44960937193719  0.50557767876788
 1 -9.98408317331733 -2.00746781068107 -0.69492329432943
 1  10.58118941094109  1.28347301730173 -2.06387844684468
 1  11.97775360436044  2.22485342824282 -1.52705831383138
 1  12.19174084408441  0.88825968086809 -2.79335202420242
 1 -11.27637203820382  2.40186575067507 -2.21478219921992
 1 -9.80857683568357  1.11877589668967 -1.86573254025403
 1 -9.97549173317332  2.34665731983198 -1.01891504750475
 1  14.61885101310131 -3.33020834793479 -0.08228994899490
 1 -15.34975966896690  1.48169546964696  1.92144324032403
 1  10.10182610161016  2.39618652665267 -0.04834800980098
 1 -8.71954669066907  0.54532913401340 -0.03298392439244
 1  9.00078776577658  4.08448183018302  0.93511935293529
 1  7.67761414841484  4.42905776677668 -0.19273561956196
 1  7.66116537653765  3.89281034903490  1.52741957995800
 1 -8.15568836283628 -3.28382304020402 -0.45728101710171
 1 -8.10169454045405 -2.52881288418842 -2.11874376337634
 1 -6.47403317531753 -3.00228476837684 -1.50287572157216
 1  6.96922277727773  0.61144435943594 -0.28637651265127
 1 -6.43829080508051  0.68567606270627 -0.18329345434543
 1  5.64875258025803  3.18555422742274  0.50508701770177
 1 -5.10367083808381 -2.05947362536254 -0.85585173517352
 1  4.46682987598760  0.36846159215922 -0.51167323532353
 1 -4.07936934093409  0.79675904790479 -0.11918063706371
 1  2.92355798379838  3.37313920392039  1.63434667566757
 1  2.05806406740674  3.74383536553655 -0.04979037703770
 1  3.70806618661866  4.02585921092109 -0.04099715771577
 1 -2.76845796079608 -2.89472176417642 -0.37855552055205
 1 -2.73866257925793 -2.16367342934293 -2.09199794179418
 1 -1.22906329132913 -2.19590714071407 -1.08423696669667
 1  2.45146650965096 -0.13032631363136 -0.38051426342634
 1 -2.08061268426843  1.14259250325033  0.24937103010301
 1  0.38313861286129  2.02028745574557  0.23936594659466
 1  0.20534231923192 -0.86566673067307 -0.46780845484548

