%nproc=4
%Mem=2GB
# td=(NStates=1) CAM-B3LYP/6-31G(d,p) 

TD

0 1
 8  14.71921744674468 -2.27040997409741  0.09754283128313
 8 -14.67668273227323  1.82734803990399  1.18245777677768
 6  11.02827517351735 -1.42586513861386  1.02970913191319
 6 -12.32861802580258 -1.07267888578858  0.61527517151715
 6  12.59489305530553 -1.97416671277128  1.19336422842284
 6 -13.64967168616862 -0.26621464136414  0.80266307830783
 6  13.31700973997400 -1.83105542764276 -0.08772231723172
 6 -13.32587188018802  1.21091975307531  1.01919317031703
 6  10.90883021002100 -0.26254388138814  0.02278898589859
 6 -11.20051641564156 -0.22213322022202 -0.06667434343434
 6  13.25036552755275 -0.53346183128313 -0.77766052005201
 6 -12.60305274327433  1.79231223832383 -0.08909826282628
 6  11.88476434543454  0.05094547744774 -0.80182282528253
 6 -11.42308290329033  1.02349897899790 -0.38531052705271
 6  10.57475851685168 -1.17947338833883  2.39531291529153
 6  10.22542316231623 -2.66516428442844  0.47606099609961
 6 -11.84367617361736 -1.50030972287229  1.98812494349435
 6 -12.70164665966597 -2.30900212211221 -0.25051378937894
 6  9.59755499649965  0.37779673267327  0.13633759375938
 6 -10.05889146114611 -1.05200794269427 -0.46299758475848
 6  11.73594947494749  1.14244941884188 -1.81059304930493
 6 -10.55686397439744  1.87412688978898 -1.25222211221122
 6  9.32171607660766  1.75162140514051  0.12758939893989
 6 -8.80209160616062 -0.57737968686869 -0.33506860886089
 6  8.08434753975397  2.37728371137114  0.08137891289129
 6 -7.52192022602260 -1.21590991889189 -0.68679484848485
 6  8.16690847484749  3.76548540354035  0.52724690869087
 6 -7.72094039103910 -2.61653123002300 -1.21078976397640
 6  6.87603757475748  1.58571751275127 -0.20870335533553
 6 -6.33986668366837 -0.58038630053005 -0.38145707070707
 6  5.55474618861886  2.08772301030103 -0.12849588058806
 6 -4.99061760776078 -1.12537961086109 -0.64312119011901
 6  4.41323010901090  1.33366956095610 -0.32896498149815
 6 -3.97331862886289 -0.43566579057906 -0.19052186718672
 6  3.12488997999800  1.70367475847585 -0.20867675167517
 6 -2.68939439543954 -0.76980705970597 -0.40359871487149
 6  2.92444401140114  3.22130982298230  0.33165082308231
 6 -2.33389215721572 -2.06128962096210 -1.16823804980498
 6  2.05177426642664  0.88091015501550 -0.32569324932493
 6 -1.60247220722072  0.09997788678868 -0.22139609060906
 6  0.72400922992299  1.02298511251125 -0.18740741274127
 6 -0.24260413041304 -0.00218781878188 -0.38119908990899
 1  13.21777035703570 -1.53567697779778  2.24003969296930
 1  12.64534803380338 -3.04391760586059  1.56506419041904
 1 -14.06757973097310 -0.73877131903190  1.71976289728973
 1 -14.45441893689369 -0.31597946984698 -0.11727358335834
 1  12.67441844884488 -2.48017732483248 -0.89098965696570
 1 -12.80712114411441  1.47213119521952  1.97442517651765
 1  13.97820240724072 -0.02854027612761 -0.21473665466547
 1  13.81721727872787 -0.42563792089209 -1.80090282128213
 1 -13.41927713671367  1.78349340944094 -0.81178392139214
 1 -12.60405637863786  2.88429344944494  0.10804184018402
 1  11.11835452445245 -2.08806723572357  3.05918061406141
 1  9.52612093909391 -0.95980577957796  2.50615737073707
 1  10.95014875687569 -0.27094596169617  2.64945833183318
 1  10.60208647164717 -2.77789256325633 -0.58120480348035
 1  10.43557256015601 -3.53640228322832  1.20091953195320
 1  9.16909422642264 -2.42269357735774  0.67933465446545
 1 -12.19238092409241 -0.52081457535754  2.70869116611661
 1 -10.63154599359936 -1.56653919781978  2.07187097109711
 1 -12.38037893089309 -2.33628104800480  2.44860544054405
 1 -13.45143559255926 -2.82684138003800  0.37697582858286
 1 -11.94841007600760 -3.20686727562756 -0.04046114811481
 1 -12.83906176517652 -2.09992918481848 -1.43347608960896
 1  8.72981488448845 -0.36156056705671  0.06666378737874
 1 -10.17610237523752 -2.03435049894990 -0.95968977097710
 1  10.56750804280428  1.48282295229523 -1.98027008600860
 1  12.26472230123012  2.05553649654965 -1.54024963296330
 1  12.10503217321732  0.88040889578958 -2.81666435543554
 1 -11.35402980398040  2.49926549064906 -1.99261998299830
 1 -10.05485146314631  1.05375939503950 -1.93678964596460
 1 -9.86803098709871  2.69236189028903 -0.87335049104910
 1  14.59517864586459 -3.21635696279628  0.47458573857386
 1 -14.99779447244724  1.65616291639164  2.08811990799080
 1  10.15597151615162  2.26704361236124  0.25912273727373
 1 -8.62378711471147  0.36448104920492  0.22985235923592
 1  9.20719840684068  4.25027840984098  0.94136997799780
 1  7.87691407840784  4.44795965696570 -0.24336068206821
 1  7.44718397839784  3.88275934393439  1.34197103510351
 1 -8.02280507450745 -3.28737339523952 -0.29239452845284
 1 -8.56807117811781 -2.47951795469547 -2.06534842384238
 1 -6.74628040004000 -3.15520005990599 -1.67572300630063
 1  6.99794564956496  0.63074628962896 -0.47362523752375
 1 -6.27252422842284  0.28347584268427  0.07060193519352
 1  5.33306101110111  3.12537820982098  0.15073158215822
 1 -4.87022749374937 -2.11617929592959 -0.99848599859986
 1  4.66383957695770  0.23152789878988 -0.51915398339834
 1 -4.04381578557856  0.45443481548155  0.22330361136114
 1  2.91800742874288  3.26573846384638  1.43318655965597
 1  1.91639990099010  3.63624460646065 -0.01469686768677
 1  3.60269564956496  3.94748137313731 -0.20674373237324
 1 -2.74618573357336 -3.02563485548555 -0.66325399039904
 1 -2.82771148414841 -1.98574563656366 -2.03244198619862
 1 -1.26164654965497 -2.23161071107111 -1.39043758675868
 1  2.47751911491149 -0.11242452345235 -0.49768598059806
 1 -1.91136575957596  0.98738698269827  0.14807090009001
 1  0.34057435643564  2.01146657365737  0.10845285528553
 1  0.21091287628763 -0.88868903290329 -0.73989566356636

