%nproc=4
%Mem=2GB
# td=(NStates=1) CAM-B3LYP/6-31G(d,p) 

TD

0 1
 8  14.61592711771177 -2.12456538963896 -0.11582850585059
 8 -14.78533359735973  1.92117742284228  0.98642817381738
 6  11.21248359435944 -1.33441599369937  0.99511567256726
 6 -12.46024118811881 -1.04125574347435  0.54893853785379
 6  12.64043760976097 -1.79579887598760  0.99500439243924
 6 -13.74871159015902 -0.22685070497050  0.66139895189519
 6  13.23041108010801 -1.80722304440444 -0.26047959295930
 6 -13.50197949094910  1.22558121922192  0.96063731473147
 6  10.93698302530253 -0.20204783178318  0.01525823282328
 6 -11.33070943494350 -0.20520152705271 -0.10058773477348
 6  13.22728321932193 -0.53635212031203 -0.95148790279028
 6 -12.69615205320532  1.85036804390439 -0.09697905090509
 6  11.94753062206221  0.04037442034203 -0.96791943494349
 6 -11.45920651565156  1.06201283038304 -0.48572056805681
 6  10.79712075307531 -0.98574401540154  2.42942632663266
 6  10.35518613861386 -2.67447521552155  0.54990838083808
 6 -11.88288009400940 -1.54937462936294  1.88403453445345
 6 -12.69229572457246 -2.18712993489349 -0.34650338833883
 6  9.63867910891089  0.36216516951695  0.14433839383938
 6 -10.14381995399540 -0.98700144204420 -0.44613589858986
 6  11.63887976797680  1.22073724762476 -1.90113210321032
 6 -10.53440172817282  1.86482595969597 -1.41013790379038
 6  9.40510441544155  1.68626486948695  0.06276291629163
 6 -8.87963936093609 -0.51420336923692 -0.41435653765377
 6  8.08321742674267  2.31285726872687  0.19706048104810
 6 -7.59303733773377 -1.25977430533053 -0.53681985098510
 6  7.97374915891589  3.77525638063806  0.53505768976898
 6 -7.65013331033103 -2.71095067196720 -0.80941962696270
 6  6.95787575857586  1.48610755175518  0.11492900790079
 6 -6.39116181318132 -0.56433469536954 -0.21560048504850
 6  5.64585529952995  1.88949318731873  0.09331630063006
 6 -5.08821736773677 -1.07095416831683 -0.48781565956596
 6  4.47904669066907  1.18450464446445 -0.18044012901290
 6 -3.86905820282028 -0.36521874587459 -0.31206402140214
 6  3.19226671767177  1.58274266526653 -0.00819670367037
 6 -2.53014847084708 -0.77371745074507 -0.45165352035204
 6  2.91180274727473  2.96814450645065  0.33908156615662
 6 -2.26407517551755 -2.12633612561256 -0.95364659065907
 6  2.16991608060806  0.70474253825383 -0.19056973697370
 6 -1.55587754775478  0.14470235923592 -0.15694964596460
 6  0.79197602660266  0.94435724972497 -0.19571824382438
 6 -0.23543341334133 -0.06563416341634 -0.36057702770277
 1  13.28444702470247 -1.28194160426043  1.57214290329033
 1  12.65977947694770 -2.81373458755876  1.43195087908791
 1 -14.28976194919492 -0.81892933483348  1.25135605660566
 1 -14.22378587358736 -0.39484735663566 -0.13765562156216
 1  12.74975598259826 -2.57787709480948 -0.72887344534453
 1 -13.02986341834183  1.16837081918192  1.97680541454145
 1  14.18158274527453  0.03647622552255 -0.30712589358936
 1  13.66752230923092 -0.52582793989399 -1.98768149914992
 1 -13.09830503950395  1.89598465856586 -0.90678342134213
 1 -12.39774574757476  3.03440846094609  0.01640267626763
 1  10.90504319331933 -1.94754318331833  2.95867056305631
 1  9.69770809780978 -0.92878267726773  2.34355111011101
 1  11.28189193119312 -0.17243611071107  2.98313169916992
 1  10.80217648064806 -3.29673444744474 -0.34388107110711
 1  10.17373637653765 -3.40398904190419  1.36577601760176
 1  9.16218353535354 -2.20353166116612  0.08468518951895
 1 -11.82065375137514 -0.79582207610761  2.46524682168217
 1 -10.88081092009201 -2.01725426932693  2.06069985398540
 1 -12.67148804180418 -2.35560298019802  2.23054363436344
 1 -13.56008645764576 -2.75879457535754 -0.13853572257226
 1 -11.76516175117512 -2.82492908180818 -0.23438054005401
 1 -12.78210606960696 -1.93479267116712 -1.51665440744074
 1  8.89772167516752 -0.29442385338534  0.27139426042604
 1 -10.34458922392239 -1.96078314221422 -0.71192499449945
 1  10.40233152515251  1.31732640264026 -1.98188024702470
 1  12.00053588258826  2.22393333623362 -1.75623123112311
 1  12.18898056805680  1.03074392929293 -2.82867555655566
 1 -11.13582798379838  2.57565312941294 -1.90801152215222
 1 -9.94375035303530  1.24205822492249 -2.10823679067907
 1 -9.77529171317132  2.33147580168017 -0.98674183018302
 1  14.60278940694069 -2.85822114921492  0.51529980998100
 1 -15.11191588458846  1.60721802190219  2.00419151515151
 1  10.26795271427143  2.29181608960896  0.12504932993299
 1 -8.88386312231223  0.49871447254725  0.03767314131413
 1  8.90783847084708  4.19385276727673  0.46758259925993
 1  7.06433282028203  4.19502436343634 -0.04425077107711
 1  7.60869012901290  3.86909797779778  1.69483632163216
 1 -8.35676847084708 -3.21854651255126 -0.00223551255126
 1 -8.06686105710571 -2.75513551645165 -1.80347223622362
 1 -6.55783155515552 -3.23244778467847 -0.95090052405241
 1  7.24318017301730  0.56518973397340 -0.34334220922092
 1 -6.39362633863386  0.56405390049005  0.15039991499150
 1  5.62455016001600  3.04804047604760  0.61124763376338
 1 -4.95216568756876 -1.98492617061706 -1.05342149214922
 1  4.67900109310931  0.26817156315632 -0.53484555255526
 1 -4.09118052205221  0.51965133713371  0.20908218921892
 1  3.35428105610561  3.02787467746775  1.33223646464646
 1  1.92322058305831  3.28186916891689  0.45615021702170
 1  3.35283066306631  3.62572919791979 -0.38898195619562
 1 -2.48392950795079 -2.79328162016201 -0.21050871587159
 1 -2.77225593859386 -2.12996005800580 -2.02400114211421
 1 -1.20899128412841 -2.08363591359136 -1.40216875987599
 1  2.32165352835284 -0.37110039103910 -0.36843305530553
 1 -1.72853747674768  1.13983222722272  0.46045213821382
 1  0.43219351835184  1.91252667966797  0.01608361836184
 1  0.28234001900190 -0.95707587158716 -0.72173384738474

