%nproc=4
%Mem=2GB
# td=(NStates=1) CAM-B3LYP/6-31G(d,p) 

TD

0 1
 8  14.65619114411441 -2.26762969606961 -0.02896981998200
 8 -14.79726479047905  1.77289259435944  1.02896242724272
 6  11.14046639263926 -1.55706825892589  0.93462962396240
 6 -12.34723988798880 -1.01578319621962  0.68587223122312
 6  12.58977254325433 -1.91051034713471  1.10148504050405
 6 -13.65063178217822 -0.41634965486549  0.77521033303330
 6  13.31857989698970 -1.95356767886789 -0.16034957995800
 6 -13.52450174317432  1.11728038913891  0.92373362436244
 6  10.91777110411041 -0.21457908490849  0.03204991199120
 6 -11.29148551255125 -0.18725973287329 -0.07598527452745
 6  13.32592308330833 -0.53777226232623 -0.81523427742774
 6 -12.81558399639964  1.76847985508551 -0.28976832983298
 6  11.91199706870687  0.17656803970397 -0.81598424142414
 6 -11.49007960296029  1.10588721782178 -0.60199219521952
 6  10.58955999699970 -1.17754319531953  2.37818120212021
 6  10.33536415641564 -2.75419318731873  0.26417980798080
 6 -11.70063186918692 -1.37488718061806  2.00013614461446
 6 -12.64386088108811 -2.30583180508051 -0.03014175217522
 6  9.69407464846485  0.38142709570957  0.07032099209921
 6 -10.04625019701970 -0.92583532543254 -0.38635992099210
 6  11.95238111811181  1.26657183108311 -1.78459044904490
 6 -10.54704299229923  1.87406688378838 -1.33396028602860
 6  9.41582548754876  1.77195343834383  0.07440408040804
 6 -8.77387878487849 -0.40647259615962 -0.32572767476748
 6  8.01355046004600  2.29524550755075  0.23649442444244
 6 -7.52308034203420 -1.25530385828583 -0.54821099009901
 6  7.99724150815082  3.75778463346335  0.59550373437344
 6 -7.67676597359736 -2.69743932083208 -0.88120680568057
 6  6.90605057605761  1.53453239423942 -0.01659414441444
 6 -6.32670536753675 -0.58041630353035 -0.41356028102810
 6  5.64321503550355  2.11681591959196  0.17938490749075
 6 -5.04994354035404 -1.10792786568657 -0.53205008300830
 6  4.42186097209721  1.28350454445445 -0.10448253325333
 6 -3.91229252625263 -0.24617684168417 -0.38422123712371
 6  3.10351784278428  1.71286567756776 -0.04878076207621
 6 -2.62023747974797 -0.60894097309731 -0.69096745174517
 6  2.86449801680168  3.02830052205220  0.33472113011301
 6 -2.40036880488049 -2.10584407640764 -0.93509473547355
 6  2.10611970097010  0.81413347734773 -0.23306398639864
 6 -1.56735869586959  0.15249313831383 -0.37671162216222
 6  0.59537636663666  0.87102991699170 -0.13702237423742
 6 -0.19121899189919 -0.01097869786979 -0.43465443544354
 1  12.93947252725273 -1.30949435953595  1.91600728972897
 1  12.39354285328533 -2.86491970607061  1.61446913091309
 1 -14.29541251425143 -0.79736717861786  1.47093801480148
 1 -14.09316281128113 -0.45006287818782 -0.16189804580458
 1  12.70234124112411 -2.54829413651365 -0.85123568156816
 1 -12.95445587758776  1.43263724582458  1.76622435643564
 1  14.03660824782478  0.17622019991999 -0.28108328932893
 1  13.71566712371237 -0.41432678977898 -1.78904163516352
 1 -13.41208641764176  1.74704976507651 -1.14290703370337
 1 -12.67815378837884  2.82650767086709 -0.33988295229523
 1  10.61599428842884 -2.21858028702870  3.01602629862986
 1  9.56734506150615 -0.83108290729073  2.47258401340134
 1  11.17903164516452 -0.25333420052005  2.86384977097710
 1  10.70522678567857 -3.10034480848085 -0.68273495649565
 1  10.00086908980898 -3.75832447544754  1.04804424442444
 1  9.44398171517152 -2.29732104010401 -0.01226450545055
 1 -11.85611729772977 -0.37490998489849  2.46488678567857
 1 -10.58199103810381 -1.97170971487149  2.07231101510151
 1 -12.42058295129513 -1.86738415831583  2.89284986498650
 1 -13.34478492749275 -2.89020771667167  0.51732986398640
 1 -11.92776801180118 -3.12620920982098 -0.02378948094809
 1 -13.03175103410341 -2.34079327122712 -1.12119486148615
 1  8.87213911691169 -0.22947735873587  0.47072419341934
 1 -10.17199196419642 -1.95086215011501 -0.57608141014101
 1  10.89686097809781  1.31465613561356 -2.39173123212321
 1  12.28426425542554  2.32513345624562 -1.44762037003700
 1  12.61709337933793  1.20130098499850 -2.76340902990299
 1 -11.23866826782678  2.12967853195320 -2.38571929292929
 1 -9.61474745274527  1.28019203830383 -1.72834880188019
 1 -10.19022320632063  2.71660431453145 -0.66171932793279
 1  14.79772890089009 -3.20827615471547  0.01735001500150
 1 -15.19401409440944  1.52649995009501  1.80842193819382
 1  10.18063398239824  2.48376528452845  0.10564738973897
 1 -8.60343507950795  0.73843844494449 -0.15438606460646
 1  8.87078476547655  4.15786916891689  0.58168400940094
 1  7.15990237723772  4.16750161116112  0.01550520452045
 1  7.53701296129613  3.81397246524652  1.62567940594059
 1 -8.09442223622362 -3.41740639853985 -0.00720600960096
 1 -8.11626599759976 -2.76667667056706 -1.91594348334833
 1 -6.52719849184919 -2.91348588848885 -1.07340277427743
 1  6.81185704070407  0.55017823282328 -0.63540141514151
 1 -6.47020399639964  0.54071156625663 -0.25549067406741
 1  5.55567327232723  3.17460313231323  0.39786629562956
 1 -5.00512098309831 -2.36197387538754 -0.53155930593059
 1  4.56959015201520  0.26831157715772 -0.51023309130913
 1 -4.27848925292529  0.80547991999200 -0.25765448444844
 1  3.01680730873087  3.34125601560156  1.39038227922792
 1  1.74345260626063  3.55878686068607  0.35391999399940
 1  3.41965734573457  3.79908653365337 -0.30049310731073
 1 -2.55060617561756 -2.83577586958696 -0.12208987398740
 1 -3.10735944894489 -2.59772683468347 -1.77616635863586
 1 -1.31871225622562 -2.12654020402040 -1.18412695569557
 1  2.37311867486749 -0.30475375637564 -0.79289550155015
 1 -1.83941856485649  1.23629187318732 -0.23495740274027
 1  0.24710500950095  1.85408083508351  0.40845285528553
 1  0.44998678367837 -0.81130129412941 -0.89619129312931

