%nproc=4
%Mem=2GB
# td=(NStates=1) CAM-B3LYP/6-31G(d,p) 

TD

0 1
 8  14.66765229022902 -2.24725765886589 -0.22047897089709
 8 -14.54815987998800  2.00298560366037  0.99961949294930
 6  11.24197654365437 -1.43725627772777  0.96063222422242
 6 -12.40717588158816 -1.04757637553755  0.49649329332933
 6  12.58738230423042 -1.83383267936794  1.07381227322732
 6 -13.68582530153015 -0.28510653055306  0.51152396439644
 6  13.31361940094009 -1.89932225432543 -0.34339788478848
 6 -13.39145843884389  1.19613827492749  0.91832308330833
 6  10.92556188318832 -0.34363199019902  0.03878058505851
 6 -11.36645300930093 -0.33774478137814 -0.27435511151115
 6  13.30660115111511 -0.59905839093909 -0.99905265926593
 6 -12.59755219321932  1.78473148024802 -0.18394774777478
 6  11.85107097609761  0.15087547044704 -0.82375501850185
 6 -11.36989758475847  0.99492612171217 -0.58273026902690
 6  10.70459150015001 -1.01390683168317  2.39127251125112
 6  10.25896651665166 -2.73155092309231  0.53617700770077
 6 -11.87891969796980 -1.40439013091309  1.88348447944794
 6 -12.71682817781778 -2.38462968486849 -0.21504024202420
 6  9.59206444744474  0.30433938693869  0.11718567856786
 6 -10.04198977097710 -0.97008975087509 -0.40697198219822
 6  11.72488836883688  1.21373654755476 -1.92407439743974
 6 -10.48639692769277  1.63272274937494 -1.39875676567657
 6  9.33095700070007  1.58775501850185  0.00102674267427
 6 -8.79172056905691 -0.57821977087709 -0.24244934693469
 6  7.96249535453545  2.22833881688169  0.01735251025103
 6 -7.59526756075608 -1.19697802570257 -0.50094626362636
 6  7.95753753775378  3.62151100610061  0.38201238523852
 6 -7.62878117511751 -2.68647822472247 -0.89889857485749
 6  6.79537950895090  1.47264620562056  0.00183769876988
 6 -6.34095679267927 -0.54101236313631 -0.27571649664966
 6  5.55062577657766  2.04817905590559  0.21745871487149
 6 -5.09022756875688 -1.07256432933293 -0.48284516251625
 6  4.53088187418742  1.29376557055706  0.05590350535053
 6 -3.94602589958996 -0.36019824382438 -0.23218603360336
 6  3.13523101410141  1.75611000200020  0.18403251925193
 6 -2.57344280028003 -0.66654673367337 -0.48942729772977
 6  2.80817238423842  3.15756344834483  0.53576123412341
 6 -2.24448321632163 -2.08879237123712 -0.94797602360236
 6  2.10758984798480  0.86297836183618 -0.20281096109611
 6 -1.56700866086609  0.23218110711071 -0.19689364036404
 6  0.68466529552955  1.10701351535154  0.04842617061706
 6 -0.15530540054005  0.10271267126713 -0.28491946194619
 1  13.17018559855986 -1.11948535863586  1.68019370837084
 1  12.48509200820082 -2.94913812791279  1.25127281128113
 1 -14.34338731173117 -0.72129957185719  1.25868678967897
 1 -14.44239773477348 -0.26318419031903 -0.29131098709871
 1  12.84341534853485 -2.47485679277928 -1.20021057905791
 1 -13.02035246724673  1.17569155125513  2.00405813981398
 1  14.15484007100710  0.18041061896190 -0.60540572157216
 1  13.29551510851085 -0.52116747384738 -1.98153088408841
 1 -13.36768197719772  1.88261332143214 -1.18553129612961
 1 -12.30088606160616  2.88568358845885  0.28737977397740
 1  10.74450713971397 -1.91254968396840  3.12726742274227
 1  9.68015634263426 -0.62241204020402  2.18550530553055
 1  11.40076381838184 -0.34299316641664  2.86061944794479
 1  10.35160142314231 -2.84684945894589 -0.47820450345035
 1  10.45685468836884 -3.64382302530253  1.25510495049505
 1  9.19460677767777 -2.31691299929993  0.66530325132513
 1 -11.71563324932493 -0.58312080598060  2.63324362136214
 1 -10.95511835083508 -1.98692123602360  1.77158094209421
 1 -12.64225511851185 -2.15665308520852  2.47235781578158
 1 -13.70480092909291 -2.84015271117112  0.28920705170517
 1 -11.94062929792979 -3.06632322122212 -0.08884598659866
 1 -12.81334919391939 -2.06762595449545 -1.26998974097410
 1  8.56899880288029 -0.20500491149115  0.22387950895090
 1 -10.18762352735274 -2.02135919981998 -0.66987078907891
 1  10.74780607260726  1.34636930693069 -2.22664472347235
 1  11.93345917491749  2.24313525642564 -1.37541314931493
 1  12.17666933693369  0.93668452335234 -2.65941863086309
 1 -11.19003340434043  2.32975853995400 -2.11324204520452
 1 -9.75504148214821  0.92129614871487 -1.92716868386839
 1 -9.73769795379538  2.41177383148315 -0.88097125312531
 1  14.89758888688869 -3.02644797189719  0.30655893589359
 1 -15.20492518551855  1.53634093419342  1.60537163316332
 1  10.03181910091009  2.44780168816882  0.03679050405041
 1 -8.57281201720172  0.42699730083008  0.01852122612261
 1  8.92828051505150  3.93085646764676  0.50237607860786
 1  7.52822920992099  4.24268912991299 -0.44277062306231
 1  7.47656691669167  3.94474554255426  1.18314515251525
 1 -8.30495328932893 -3.25456011391139 -0.21890717971797
 1 -8.03973834483448 -2.86554655755576 -1.93886577557756
 1 -6.67562333433343 -2.95549008890889 -1.24259969396940
 1  6.95749160416042  0.35731894689469 -0.32642051705170
 1 -6.31988896489649  0.46731422652265  0.11424629962996
 1  5.47398510351035  3.23434910691069  0.61189769876988
 1 -5.03537400840084 -2.01947962596260 -1.03541969196920
 1  4.50617381038104  0.13027777377738 -0.17765983398340
 1 -4.05608701270127  0.57196656865687  0.22295357635763
 1  3.01000662866287  3.04284617461746  1.65778901990199
 1  1.55390365136514  3.11362234423442  0.52277687968797
 1  3.38843422342234  3.95789241424142  0.19069601160116
 1 -2.00836195119512 -2.73011530353035  0.27878021302130
 1 -3.40212892589259 -2.45710277227723 -1.58171691369137
 1 -1.10642102710271 -2.06729427942794 -1.74851339433943
 1  2.60816217921792 -0.16306958795880 -0.69090530253025
 1 -1.76721134413441  1.03173141714171  0.33636972997300
 1  0.27739803880388  2.14713014001400  0.35037704770477
 1  0.24794657965797 -0.82157232123212 -0.54872654665467

