%nproc=4
%Mem=2GB
# td=(NStates=1) CAM-B3LYP/6-31G(d,p) 

TD

0 1
 8  14.72439796479648 -2.04627756085609 -0.35705262826283
 8 -14.71143620762076  1.96788209330933  0.96009554055406
 6  11.25281762776278 -1.39121167326733  1.00435659665967
 6 -12.36628179217922 -1.00733235113511  0.66606025002500
 6  12.71553511951195 -1.81915121122112  0.94131902390239
 6 -13.70127684668467 -0.19245726562656  0.71674448644864
 6  13.36096413541354 -1.78924124622462 -0.40194373937394
 6 -13.49221851485149  1.28264692579258  0.88385963696370
 6  10.97046637363736 -0.23228085508551  0.12261896889689
 6 -11.33490985498550 -0.30197120402040 -0.19390706670667
 6  13.16002649364937 -0.47883636873687 -1.02513526752675
 6 -12.70696313431343  1.93503651075108 -0.24281363436344
 6  11.86694256325633  0.11676205910591 -0.90646328932893
 6 -11.41576217121712  1.03683031213121 -0.62119411541154
 6  10.95740678167817 -1.14183962496250  2.49046243024302
 6  10.42090271027103 -2.70582835083508  0.59990338033803
 6 -11.93963576957696 -1.28440813271327  2.13239937093709
 6 -12.69158565356536 -2.43585480738074  0.05640690269027
 6  9.57071231223122  0.23221217421742  0.31592555255526
 6 -10.11539711171117 -1.12598534043404 -0.53494477947795
 6  11.65296117611761  1.19215438933893 -1.92787477747775
 6 -10.56790507850785  1.81818129522952 -1.50806769676968
 6  9.36960086508651  1.63400964396440  0.11697833783378
 6 -8.82755415241524 -0.51299324822482 -0.38320342234223
 6  8.07509661466147  2.25456143914391  0.22234300930093
 6 -7.54422245624562 -1.23222155005501 -0.57550371937194
 6  7.91880366436644  3.73270212521252  0.61974615861586
 6 -7.63836213321332 -2.66352592949295 -0.99598828382838
 6  6.94452442344234  1.45533447444744  0.14483199819982
 6 -6.40950364736474 -0.59092735463546 -0.46025495049505
 6  5.57590830483048  1.96771100910091  0.20030699969997
 6 -5.07834638063806 -1.12513958685869 -0.58270514851485
 6  4.47688647464746  1.15239143314331  0.00707862286229
 6 -3.92677397439744 -0.31648387238724 -0.34910772577258
 6  3.12016950795080  1.62369676067607  0.19992410841084
 6 -2.60836629262926 -0.79937001600160 -0.44822317731773
 6  2.80296186318632  3.08902659465947  0.52457011501150
 6 -2.38685745374537 -2.30498399039904 -0.93793501950195
 6  2.03765285428543  0.81107317131713 -0.16367704770477
 6 -1.56942890289029  0.12676056505651 -0.38527247824782
 6  0.72371920092009  1.06548936293629 -0.20448912091209
 6 -0.12747261726173 -0.05063266326633 -0.43074404440444
 1  13.41774035403540 -1.06597000710071  1.44172986198620
 1  12.90973447244724 -2.84732794689469  1.30595827982798
 1 -14.39473244624462 -0.61714915681568  1.60118103910391
 1 -14.21239473447345 -0.39053692559256 -0.21363321932193
 1  12.85741674867487 -2.50427973507351 -1.08322888088809
 1 -12.81568200020002  1.46919090119012  1.75985371937194
 1  13.83062764976498  0.37138971687169 -0.62379756075608
 1  13.43614917191719 -0.23950930803080 -2.09145187618762
 1 -13.19601481048105  2.11048610871087 -1.11655439843984
 1 -12.21411738473847  2.86999201930193  0.09427046304630
 1  10.80162285128513 -2.14086251525153  3.20926562256226
 1  10.00627895489549 -0.56479627862786  2.60679743474347
 1  11.77375111711171 -0.47163603070307  3.03138652465247
 1  10.81571783478348 -3.37010178417842 -0.32732941594159
 1  10.51000000290029 -3.18301694469447  1.61279071907191
 1  9.32655997299730 -2.34492580058006  0.46284300530053
 1 -11.43847553355335 -0.36990948484848  2.59167946494649
 1 -11.00284312331233 -2.05971851575157  2.14238802280228
 1 -12.84905579857986 -1.64539195909591  2.64173475347535
 1 -13.67458790779078 -2.71550024592459  0.44499263026303
 1 -11.94782001700170 -3.25304189308931 -0.00378748074808
 1 -13.01851971097110 -2.32606179807981 -0.86865960796080
 1  8.98858076107611 -0.37579199019902  0.63916103710371
 1 -10.45782054705471 -2.18219528342834 -0.75437923992399
 1  10.72623391539154  1.36411108110811 -2.12663472247225
 1  11.96248207720772  2.31688263116312 -1.91629723772377
 1  12.21671334133413  0.89322017691769 -2.99032172117212
 1 -11.14819922092209  2.29961552565257 -2.22757347834783
 1 -9.84126010401040  1.29937395649565 -2.07126309330933
 1 -9.96366055005501  2.54696735083508 -1.07351050705070
 1  14.87238636663666 -3.01923725082508  0.16214449444944
 1 -15.26810150315031  1.66564386448645  1.73633472947295
 1  10.14083000200020  2.37606451445145 -0.01305448044804
 1 -8.71968670467047  0.59946454755476  0.09258863286329
 1  8.98596628362836  4.12713609560956  0.84860070107011
 1  7.19894628162816  4.23473833483348 -0.16110245624562
 1  7.50066932693269  3.78123919191919  1.75432227022702
 1 -8.52971576557656 -3.31914657255726 -0.37159244824482
 1 -8.17412178317832 -2.51691169406941 -1.94539642864286
 1 -6.60605637763776 -3.35929046894689 -0.99594502850285
 1  6.97268312331233  0.35996921192119 -0.14984285928593
 1 -6.57107408340834  0.46299379447945 -0.41551667666767
 1  5.77204490949095  2.92204787678768  0.64081059005901
 1 -4.93551402240224 -2.23518119611961 -0.84663081308131
 1  4.69846303930393  0.15959070507051 -0.45230729872987
 1 -4.02359376337634  0.80419979197920 -0.09529824882488
 1  3.32650827882788  3.44171606160616  1.45595883688369
 1  1.80895915691569  3.23124410641064  0.65224982698270
 1  3.13485886588659  3.82642926792679 -0.32401545954596
 1 -2.98498961396140 -3.13064535653565 -0.49220688568857
 1 -2.61851056405641 -2.29489655165517 -2.02608135013501
 1 -1.45216560156016 -2.38803635363536 -0.70121866486649
 1  2.21958332133213 -0.09882316331633 -0.52945915791579
 1 -1.70587521052105  1.17264550855085 -0.19641354835484
 1  0.34012431143114  2.10516594359436 -0.08327631763176
 1  0.44665645064506 -1.12092225622562 -0.46551822582258

