%nproc=4
%Mem=4GB
# td=(NStates=1) B3LYP/SVP 

TD

0 1
 8 -4.60268038883888 -4.79198928012801  1.81495685928593
 8  3.01525212331233 -4.96908145734573  1.18976690849085
 8  7.00024040544054 -1.67267480858086  1.94305452595260
 8  3.75167690049005 -3.14584370957096  0.15698855725573
 8  7.69507825982598 -0.82390376967697 -0.06587615691569
 8 -3.06797712651265  2.46070346784678 -0.10552545714571
 7 -0.27053143484348 -0.56052540234023 -0.68600723692369
 7  1.54611229392939  1.74154653345335 -0.22945460756076
 7 -3.50131707470747 -3.17667671447145  0.48882735403540
 7 -0.76861826472647  2.96441685988599 -0.08822384628463
 6  0.71251248364836 -2.44532997129713 -1.31744382748275
 6  1.00236917071707 -1.13062301340134 -0.88836139143914
 6 -0.66993131823182 -2.64055794519452 -1.24698489788979
 6 -1.28322042824282 -1.47118075997600 -0.79319078497850
 6  3.83473141444144  1.42938742404240 -0.26343255965597
 6  2.51359205220522  0.80699203100310 -0.38276983558356
 6  2.30815782008201 -0.56951309710971 -0.71026327132713
 6  3.65453929082908  2.77795580378038 -0.05683645654565
 6  1.73221437393739 -3.42464773057306 -2.02322252325233
 6 -5.58135747094710 -2.49557146674668  1.33828376837684
 6 -3.61332339523952 -1.85617067906791  0.05313909890989
 6  2.11216547674767  2.98950537873787 -0.02790026702670
 6 -5.03547974427443 -1.46041154435444  0.39385802470247
 6  5.14961343944394  0.78652832283228 -0.42885594199420
 6 -2.66150711291129 -1.03878064966497 -0.53678409280928
 6 -1.35855379307931 -3.86053055535554 -1.79098234193419
 6 -4.55747321412141 -3.67779628532853  1.30529964456446
 6  2.12688316431643 -4.59308152785279 -1.07090994679468
 6  5.37757763406341 -0.11230729462946  0.91179928602860
 6  4.45950173637364  3.96243747504750  0.09119130293029
 6  1.28938017941794  4.19504391189119  0.15593571307131
 6 -6.99559068966897 -3.00102748254825  1.25413487958796
 6 -5.80161876437644 -0.41045577547755 -0.07272874727473
 6 -0.14816980598060  4.13183785538554  0.09081770737074
 6 -1.10042100380038  5.21003209620962  0.31928655725573
 6 -2.22925825202520  4.68343446624662  0.28216961986199
 6  3.07256009730973 -4.15622224132413  0.14934633363336
 6 -5.43818847964796  0.63411864046405 -1.03856492349235
 6  6.80687325352535 -0.89187747184718  0.83157628022802
 6 -3.57144290359036  5.27180347854785  0.59737055215522
 6 -2.16574001030103  3.24429662096210  0.03478440324032
 6 -0.70451458895890  6.62395626362636  0.54608969876988
 6 -4.22042057895790  5.58198660356036 -0.78238901460146
 1 -0.46992455735574  0.29030473607361 -0.01209176247625
 1  3.24051806640664 -1.00266226832683 -0.83602311091109
 1  2.58819006990699 -2.93240794769477 -2.33608604330433
 1  1.47278405770577 -3.92102402000200 -2.90743310981098
 1 -5.42892469866987 -2.11632002110211  2.26863902440244
 1  5.34272458265827  0.07907262376238 -1.26811996499650
 1  6.00842280788079  1.51829613891389 -0.50177147674767
 1 -2.77888598429843  0.07759225542554 -0.86004891049105
 1  0.55347167886789  1.67995917891789 -0.24949442154215
 1 -1.25688127932793 -4.64120622482248 -1.14653545924592
 1 -2.45058868856886 -3.82293999599960 -1.91236055625563
 1 -0.97843779487949 -4.05552372677268 -2.62569617261726
 1 -2.57431118891889 -3.73332948134813  0.45235248224822
 1  1.38655446214621 -5.11427390989099 -0.54767848534854
 1  2.86695588138814 -5.31129383788379 -1.57479199309931
 1  4.66642106310631 -0.85964201530153  0.70078066426643
 1  5.11546574617462  0.41617605420542  1.91531600230023
 1  4.06749426972697  4.66987745514551 -0.56703668636864
 1  5.40537716051605  3.63473619281928  0.02081860506051
 1  4.20331974937494  4.37394290239024  1.14105540944094
 1  2.00405623762376  5.14188411801180  0.49604939183918
 1 -7.72488526012601 -2.18242423692369  1.35055974997500
 1 -7.13168881318132 -3.65173293919392  2.11507387528753
 1 -7.18017620162016 -3.69876764026403  0.39504109330933
 1 -6.80647798949895 -0.28563889518952  0.23164509240924
 1 -4.86948178997900  1.57028122502250 -0.61010485858586
 1 -6.50123195289529  1.04619224752475 -1.41331801030103
 1 -4.86652514801480  0.15169201540154 -1.82438365106511
 1 -3.43570344964496  6.27597025282528  1.01305900990099
 1 -4.22932060956096  4.53766289848985  1.24933707150715
 1  0.50394495979598  6.66401836173617  1.00700343284328
 1 -1.71379276257626  7.19173586908691  1.05921517791779
 1 -0.63016382878288  7.14918341884188 -0.51144481028103
 1 -3.84451474727473  6.17944382748275 -1.19800761686169
 1 -5.24705652875287  5.75694843584358 -0.46177131883188
 1 -4.24751927302730  4.54590608290829 -1.06418615701570
 1  3.59847515401540 -4.56908113831383  1.91000963796380
 1  7.92813005770577 -1.85887653995400  1.76371653425343

