%nproc=4
%Mem=4GB
# td=(NStates=1) B3LYP/SVP 

TD

0 1
 8 -4.54300442124212 -4.67399748094809  1.97755311891189
 8  2.90442104020402 -4.94209875907591  1.17185511731173
 8  7.05969635103510 -1.65550309140914  1.70725094559456
 8  3.79229096189619 -3.23931305650565  0.09091194959496
 8  7.63482223422342 -0.50716209550955 -0.13701327062706
 8 -3.04642497129713  2.39909730723072 -0.30339524412441
 7 -0.24622900460046 -0.50036938673867 -0.55399403560356
 7  1.57661534423442  1.80387276607661 -0.26496815891589
 7 -3.41610855385539 -3.08131717851785  0.71960043134313
 7 -0.77871927482748  2.85977639583958 -0.01645666956696
 6  0.62151338373837 -2.44146958525853 -1.35866794989499
 6  0.98508744254425 -1.19733968506851 -0.91884443974397
 6 -0.75729005410541 -2.52960685008501 -1.28257845724572
 6 -1.27363947014701 -1.44632827472747 -0.71638310421042
 6  3.78575651695169  1.46728121342134 -0.40029624602460
 6  2.55976666966697  0.78969030083008 -0.50748230683068
 6  2.28400540484048 -0.50283642944294 -0.85063730873087
 6  3.60733457035704  2.75924393259326  0.13317254435444
 6  1.57307846034603 -3.46220148594860 -1.89908010901090
 6 -5.56137547274728 -2.56461837143714  1.31442138213821
 6 -3.64207627052705 -1.88578364036404  0.15340912591259
 6  2.19387364756476  2.95337176537654  0.08870139313931
 6 -5.05407160346035 -1.60386588978898  0.35576421532153
 6  5.11410988908891  0.72755242524252 -0.48183123952395
 6 -2.61309227142714 -1.03412018361836 -0.45298571297130
 6 -1.56709464716472 -3.71243574587459 -1.74293753745375
 6 -4.40818828562856 -3.60310881658166  1.38216733133313
 6  1.87268774477448 -4.55587780748075 -0.87027988378838
 6  5.43902377867787 -0.01508757265727  0.87381548764876
 6  4.62560834703470  3.85534676597660  0.45806799059906
 6  1.35741698309831  4.05890029752975  0.31739185868587
 6 -6.96371750235024 -3.19995737553755  1.06128559465947
 6 -5.78968757125713 -0.56281101100110 -0.20692216661666
 6 -0.11992698169817  4.01447611921192  0.28499712531253
 6 -1.01394235593559  5.17508860186019  0.45878050665066
 6 -2.26197152335234  4.67444356715672  0.19030043294329
 6  2.91905474677468 -4.05876249534953  0.13215461446145
 6 -5.35491015181518  0.44072930153015 -1.24263533053305
 6  6.76332889908991 -0.72417070117012  0.66038916151615
 6 -3.56578233753375  5.31930822902290  0.34644545964596
 6 -2.09583301960196  3.20404259555956  0.05072599739974
 6 -0.54756889438944  6.44480834883488  0.78820391019102
 6 -4.17807634453445  5.67360576547655 -1.03191396709671
 1 -0.40122768766877  0.27837354295430  0.13393283998400
 1  3.00059407400740 -1.33180518261826 -1.00405991459146
 1  2.40188143904390 -3.00831553845385 -2.23546598129813
 1  1.21595837513751 -3.85626754435444 -2.83275564206421
 1 -5.57774958115812 -1.88162655175518  2.21442360286029
 1  4.98314862506251  0.15815053155316 -1.31690484348435
 1  6.14006597219722  1.39979428872887 -0.78065936553655
 1 -2.93249134483448  0.01784628082808 -0.53139604520452
 1  0.52991932363236  1.84517570057006 -0.59116858895890
 1 -1.77309290049005 -4.41968407260726 -1.06105691139114
 1 -2.66321995169517 -3.52134983698370 -2.10020934113411
 1 -1.04621457255726 -4.35481365576558 -2.55983958695870
 1 -2.52212597039704 -3.53001915031503  0.94933218021802
 1  0.84906071277128 -4.87210969346935 -0.55373909140914
 1  2.42251143694369 -5.27188989748975 -1.48980349424942
 1  4.71096551755176 -0.73054910601060  1.27914850105011
 1  5.31625582518252  0.59764420102010  1.81520599129913
 1  4.63657117741774  4.70990145754575 -0.22568255095510
 1  5.68102472527253  3.46873959315932  0.34138066126613
 1  4.39266868426843  4.44913042114211  1.41599290319032
 1  1.71376720872087  4.99531946154616  0.68792857975798
 1 -7.92163493509351 -2.55982197669767  1.18386308030803
 1 -7.11596724102410 -4.04098186408641  1.90868323622362
 1 -7.21180936493649 -3.61625938943894  0.09543113231323
 1 -6.74932227392739 -0.31454178547855  0.08273020092009
 1 -4.86377121892189  1.14339853675368 -0.62814666276628
 1 -6.16168799849985  0.73490111841184 -1.79683636213621
 1 -4.58972746824683 -0.04463761756176 -1.68236944964496
 1 -3.42248212751275  6.37517017281728  0.81043874787479
 1 -4.31424910241024  4.65988512071207  0.84531666946695
 1 -0.40349578427843  6.67377933783378  1.98924165666567
 1 -1.49648103140314  7.26517321282128  0.65162441884188
 1  0.24696388398840  6.88397689818982  0.26361269546955
 1 -3.66461675747575  6.68189407250725 -1.62900071617162
 1 -5.40425224832483  5.64153689468947 -1.08248339003900
 1 -4.08538305940594  4.70625211751175 -1.67311705010501
 1  3.64277958445845 -4.63630786098610  1.77972660966097
 1  7.97207445214521 -1.90527117941794  1.48326848944895

