%nproc=4
%Mem=4GB
# td=(NStates=1) B3LYP/SVP 

TD

0 1
 8 -4.50591071187119 -4.62955303650365  1.93936930053005
 8  2.82390298839884 -4.96575112431243  1.33532146394639
 8  6.85070545194519 -1.44468200930093  1.90674089458946
 8  3.73244497729773 -3.16611573677368  0.16793965236524
 8  7.61248000000000 -0.65138651795180 -0.07173674297430
 8 -2.89834016281628  2.38656605410541 -0.26030093469347
 7 -0.24090847254725 -0.52330167996800 -0.66634527072707
 7  1.58832651535154  1.82299467826783 -0.51660332243224
 7 -3.46351329432943 -3.16132517931793  0.56076454775478
 7 -0.64741614451445  2.96605702390239 -0.30478550245024
 6  0.60412164456446 -2.47206264456446 -1.31266334943494
 6  0.99676861066107 -1.12248219931993 -0.95991854715472
 6 -0.72859718481848 -2.69475336473647 -1.21442164156416
 6 -1.21823392959296 -1.43631727362736 -0.69649111501150
 6  3.84001194249425  1.48893337863786 -0.51087730413041
 6  2.48780947394739  0.89191052285229 -0.69554111271127
 6  2.22611961626163 -0.43481962776278 -1.03158540354035
 6  3.54349818671867  2.74005201340134 -0.13192396529653
 6  1.67087824032403 -3.47047231303130 -1.90121032203220
 6 -5.68448778397840 -2.58603051265127  1.32499243924392
 6 -3.57564962786279 -1.83371843384338  0.14211799679968
 6  2.15523978417842  3.01523795199520 -0.06423390039004
 6 -5.09744594089409 -1.54523002620262  0.38262690159016
 6  5.08995747384738  0.70324999499950 -0.51080413681368
 6 -2.60807176937694 -0.98790556215622 -0.34049446384638
 6 -1.44047198489849 -3.93865836813681 -1.58443168686869
 6 -4.51518898569857 -3.61571007670767  1.38618773337334
 6  2.04279475547555 -4.60021224092409 -0.90065292109211
 6  5.40430030633063 -0.03649971387139  0.76860496659666
 6  4.51532731893189  3.81005223652365  0.27107929172917
 6  1.42099334073407  4.09765417291729  0.16322644214421
 6 -7.01680281088109 -3.26936431623162  0.94746421252125
 6 -5.83490209270927 -0.61009573947395 -0.28123959835984
 6 -0.03653864286429  4.01957662926293  0.08976760236024
 6 -0.95302626432643  5.11915300830083  0.56672130073007
 6 -2.17248257445745  4.70085620842084  0.31334273717372
 6  2.91012385368537 -4.13643026212621  0.27693909290929
 6 -5.38111277207721  0.55849107770777 -1.15931699869987
 6  6.73429599579958 -0.68417670177018  0.80971409400940
 6 -3.58443420272027  5.23527982618262  0.65618643374337
 6 -2.03427686398640  3.24509670097010 -0.05943501870187
 6 -0.42623676117612  6.49298316631663  1.12924801460146
 6 -4.31736027292729  5.66332473737374 -0.70057083278328
 1 -0.20505807070707  0.28963466906691 -0.17491804510451
 1  3.00035405000500 -1.09010101220122 -1.09446895549555
 1  2.60814206510651 -2.95531023792379 -1.99048148284828
 1  1.30226700600060 -3.77528944654465 -2.87032939943994
 1 -5.94884669086909 -1.98476686578658  2.38885104560456
 1  5.02679298949895  0.02834755125513 -1.33971712471247
 1  5.78842080768077  1.39558386768677 -0.55648694829483
 1 -2.50202829852985  0.13904840104010 -0.47157006260626
 1  0.46837316901690  2.07567875087509 -0.54084355645564
 1 -1.42806839803980 -4.66863896809681 -0.91355216091609
 1 -2.54160779047905 -3.80915861786179 -1.82814213441344
 1 -0.99432938403840 -4.22103027742774 -2.61042464546455
 1 -2.50586434423442 -3.54458060646065  0.88322556955696
 1  1.26274208090809 -5.29495197769777 -0.53899761726173
 1  2.64930411621162 -5.38997170567057 -1.61079559345935
 1  4.86348076907691 -0.86444249534954  1.15798638483848
 1  5.41688588818882  0.78113254985499  1.61577604830483
 1  4.52368988928893  4.75540600800080 -0.37393737643764
 1  5.51904852765276  3.49611233043304  0.62509903310331
 1  3.96680609800980  4.30292580068007  1.18831013491349
 1  1.91042687468747  5.05152508210821  0.69232901980198
 1 -7.82300507210721 -2.51260725522552  1.05286998099810
 1 -7.24831047534753 -3.89809757565757  1.71333370127013
 1 -6.98084626862686 -3.55986374987499 -0.09157756855686
 1 -6.93563090479048 -0.94265459675968 -0.23137120922092
 1 -5.01167600940094  1.39977417431743 -0.60006385448545
 1 -6.34501633133313  0.85954358265827 -1.79710638913891
 1 -4.48810730623062  0.24839168536854 -1.79416062876288
 1 -3.50514039333933  6.06635929172917  1.34737244124412
 1 -4.13042071957196  4.57451658385839  1.12546468426843
 1  0.13019758505851  6.28553051295130  1.96430916341634
 1 -1.52178356165617  6.98362505800580  1.21684094049405
 1  0.21514070167017  6.98848734923492  0.25496183038304
 1 -3.76913720952095  6.64068995209521 -1.20460827692769
 1 -5.62975479857986  5.81415415641564 -0.48531367306731
 1 -4.36245076617662  4.84258575087509 -1.51827156555656
 1  3.54493980048005 -4.67939216941694  1.88481711871187
 1  7.87260450515052 -1.98567922022202  1.90848101070107

