%nproc=4
%Mem=4GB
# td=(NStates=1) B3LYP/SVP 

TD

0 1
 8 -4.40129024982498 -4.78393847504750  1.89528489208921
 8  2.95816641474147 -4.92067661686169  1.05863379517952
 8  7.18549893129313 -1.47362490359036  1.79429965046505
 8  3.68375010781078 -3.19580870607061 -0.01911905350535
 8  7.56359511151115 -0.50940231953195 -0.18759832913291
 8 -2.96596692549255  2.44737213471347 -0.26903180778078
 7 -0.33781816351635 -0.63305265506551 -0.42288092429243
 7  1.56659434213421  1.85634801360136 -0.18836049814982
 7 -3.39994693769377 -3.15568461526153  0.61800027132713
 7 -0.74732613551355  2.94545496369637  0.00841581768177
 6  0.61500273267327 -2.47382282058206 -1.35238732183218
 6  0.90379931373137 -1.16388633973397 -0.90035259055906
 6 -0.79899422452245 -2.63333722312231 -1.27338753815382
 6 -1.35715782198220 -1.50085372727273 -0.79853131903190
 6  3.73507144844484  1.40619510481048 -0.22351856825683
 6  2.47100779377938  0.78915024682468 -0.39355091369137
 6  2.17219422372237 -0.47381352715272 -0.79513175817582
 6  3.49145298219822  2.70224823302330  0.09337856495650
 6  1.53183433593359 -3.44349961576158 -1.82431263226323
 6 -5.51589092429243 -2.60520242984298  1.39512945294529
 6 -3.67181924482448 -1.87594265626563  0.05130891589159
 6  2.11066532673267  2.96993342154215  0.07912043504350
 6 -4.97861405770577 -1.56082158535854  0.50422906180618
 6  5.03572205030503  0.71980165016502 -0.40014307070707
 6 -2.69768073027303 -0.99087585918592 -0.53531394579458
 6 -1.43041097879788 -3.78966346864686 -1.83086633033303
 6 -4.42051951875188 -3.67833633933393  1.24015312991299
 6  1.82916339233923 -4.53607582728273 -0.95547840364036
 6  5.46083595989599 -0.03124918881888  0.92721082718272
 6  4.56667245344534  3.67439867116712  0.45598778257826
 6  1.38880012141214  4.15904031153115  0.27478759825983
 6 -7.05349648024802 -3.22672005180518  1.17857732383238
 6 -5.76040464296430 -0.47432216211621 -0.05946742114211
 6 -0.06246123512351  4.08858352995300  0.30198882448245
 6 -0.95179614131413  5.25895698869887  0.43839846844684
 6 -2.27228255445545  4.64783090589059  0.29779118201820
 6  2.89639248054806 -4.13965058415842  0.11636303530353
 6 -5.37873253405341  0.46829205780578 -1.09934100110011
 6  6.88013057925793 -0.76859514361436  0.73797692029203
 6 -3.54207996729673  5.44692099029903  0.25199601470147
 6 -2.03697713401340  3.25056724802480 -0.03959303450345
 6 -0.53006714421442  6.67447131513151  0.67008209800980
 6 -4.11893042994299  5.58532693759376 -1.16496727242724
 1 -0.54331189608961  0.24216992259226 -0.04045459875988
 1  3.09726374097410 -0.97086908900890 -1.08788829742974
 1  2.36558780968097 -3.04449915681568 -2.36006844154415
 1  0.99182596189619 -3.99641155875588 -2.59743210971097
 1 -5.43281508770877 -2.14382277137714  2.36792895339534
 1  5.05524583478348  0.12084680118012 -1.23058621162116
 1  6.03166513211321  1.40198450775077 -0.64770607020702
 1 -2.86866496219622  0.15182967916792 -0.51715462106211
 1  0.40203653535354  1.89247043004300 -0.30714018611861
 1 -1.70025561676168 -4.61638374257426 -1.15958676437644
 1 -2.39752338203820 -3.49188689068907 -2.27906722692269
 1 -1.04808475957596 -4.27606578097810 -2.78369197219722
 1 -2.38793255105510 -3.60394654305431  0.57074432143214
 1  0.95830163686369 -4.90528301080108 -0.37208092559256
 1  2.46838602440244 -5.48916162466247 -1.20339485338534
 1  4.87327174817482 -0.75699175027503  1.19472005820582
 1  5.26202040164016  0.48852328892889  1.89354382508251
 1  4.87493501380138  4.35396586398640 -0.50909089178918
 1  5.56289291209121  2.99566228542854  0.58226474967497
 1  4.47997741514151  4.23052856095610  1.31928323222322
 1  1.85133096509651  4.97380731033103  0.66264605150515
 1 -7.73174594619462 -2.52642863736374  1.60980567456746
 1 -6.85115075937594 -4.18664643054305  1.68218058595860
 1 -7.22571075507551 -3.16701446494649 -0.01383979477948
 1 -6.87275461716172 -0.49281961326133  0.18567049494950
 1 -5.01907674947495  1.50085428232823 -0.79428327642764
 1 -6.22225405510551  0.76798442674267 -1.59278595709571
 1 -4.54936343184318 -0.01402455625563 -1.83645485818582
 1 -3.78305818511851  6.30995365116512  0.90957866186619
 1 -4.08244592209221  4.69826895909591  0.76944908270827
 1  0.10593515881588  6.53915587548755  1.49499223172317
 1 -1.28418980228023  7.39698639413941  0.71704096049605
 1  0.25925511311131  6.99467796829683 -0.30670433623362
 1 -3.67001729752975  6.32625850895089 -1.88811662776278
 1 -5.11400322342234  5.85953869486949 -1.00832597429743
 1 -4.15987050815081  4.63598509080908 -1.72824256265627
 1  3.70842614911491 -4.87624185438544  1.81050968796880
 1  8.01254849954995 -1.94450510281028  1.67917808040804

