%nproc=4
%Mem=4GB
# td=(NStates=1) B3LYP/SVP 

TD

0 1
 8 -4.52577269806981 -4.80171025222522  1.71739710331033
 8  2.88192879097910 -4.71443599279928  1.43861179297930
 8  7.08841922332233 -1.49325686678668  1.87323754425443
 8  3.81949368216822 -3.11183030823082  0.13836669506951
 8  7.48384713671367 -0.70409178847885 -0.24320388968897
 8 -3.07775810461046  2.52533993149315 -0.35307021162116
 7 -0.21888627032703 -0.53731308110811 -0.62378101430143
 7  1.56835451815182  1.75105748454845 -0.31947360946095
 7 -3.43971091409141 -3.07603665046505  0.56189466076608
 7 -0.77436883978398  2.92360277847785 -0.26038106200620
 6  0.68454968736874 -2.46981241954195 -1.35528761186119
 6  0.93858279207921 -1.10506045714571 -0.94226678197820
 6 -0.73658798389839 -2.62479636903690 -1.25752595199520
 6 -1.28451055725573 -1.50031367326733 -0.76439790569057
 6  3.84477241854185  1.43830831613161 -0.41204742114211
 6  2.52942363536354  0.81895322712271 -0.47534909350935
 6  2.18700570487049 -0.48222436823682 -0.83076532153215
 6  3.54137797469747  2.72912092029203 -0.01108188108811
 6  1.69660081258126 -3.41336660246025 -1.94743494449445
 6 -5.59534887008701 -2.52594450405040  1.42466240624062
 6 -3.65347741064106 -1.82639770177018  0.08115190019002
 6  2.15952021222122  2.93004943314331  0.06422894589459
 6 -5.05956215251525 -1.51671717491749  0.38383702260226
 6  5.14206268436844  0.76116578657866 -0.45439849624963
 6 -2.57135809800980 -0.94812158375838 -0.35587600200020
 6 -1.58968690639064 -3.84146864916492 -1.67860110381038
 6 -4.41829929672967 -3.69169767546755  1.24663377797780
 6  2.06944742074207 -4.54097631733173 -0.86901975777578
 6  5.36062593889389 -0.17695375927593  0.78757686378638
 6  4.62912869906991  3.78336956825683  0.21300348414842
 6  1.36913815521552  4.01672608010801  0.42350246974697
 6 -7.03986511711171 -3.03882126192619  1.17632709880988
 6 -5.70311891439144 -0.47811254115412 -0.14652612701270
 6 -0.01509649864987  4.05803047464746  0.14641326692669
 6 -0.99300026172617  5.14535562856286  0.45545017361736
 6 -2.30780610681068  4.64931105390539  0.35574697759776
 6  2.99092193349335 -4.04322094119412  0.20245164416442
 6 -5.44885954675467  0.44333956255626 -1.25839690669067
 6  6.72674524072407 -0.76891517561756  0.71773489608961
 6 -3.63338909820982  5.25833213141314  0.50345116021602
 6 -2.10770420672067  3.19412160346035 -0.09780885608561
 6 -0.48234237173717  6.43019688768877  0.97297238703870
 6 -4.31222975987599  5.54829323422342 -0.79663043874387
 1 -0.12486005090509  0.35597130273027 -0.35483603690369
 1  3.32362637723772 -0.97163916601660 -1.01612112071207
 1  2.46219747064706 -2.78033274017402 -2.10144257895790
 1  1.29773655295529 -3.86376829442944 -2.74136650315031
 1 -5.49910171637164 -2.01977036613661  2.56530869136914
 1  5.32566287648765  0.06395111161116 -1.26440959395940
 1  6.14931689728973  1.30856516581658 -0.40302160176018
 1 -2.48867696339634  0.27847234343434 -0.17723062866287
 1  0.46788312001200  1.66261744474448 -0.59347881998200
 1 -1.90830642184218 -4.79164126832683 -1.16794760046005
 1 -2.48284191389139 -3.45898360036004 -1.77629694989499
 1 -1.24752470357036 -4.52440061446145 -2.41131473447345
 1 -2.48555231303130 -3.51359750815082  0.64120136713671
 1  1.12795860256026 -5.12268475097510 -0.52458617611761
 1  2.85162434823482 -5.23787649614961 -1.37261177507751
 1  4.64095851685169 -1.01725777687769  0.87107769396940
 1  5.51277547714772  0.45445988258826  1.87444191489149
 1  4.15501302160216  4.70875134253425 -0.48784876757676
 1  5.56580320312031  3.37783050225023 -0.38883236003600
 1  4.76153557095710  4.11143665176518  1.38246955085509
 1  1.68071390339034  5.01971190079008  0.73953374027403
 1 -7.77818058965897 -2.42293828832883  1.41983667766777
 1 -7.12396804110411 -4.03645141104110  1.85488785668567
 1 -7.16350453445344 -3.37190495399540  0.10135172437244
 1 -6.75552289398940 -0.48620895219522  0.01006293419342
 1 -4.79654449624962  1.47887208410841 -0.97788163626363
 1 -6.35535736543654  0.83694132243224 -1.61739841834183
 1 -4.83948244374437  0.04009085528553 -2.25690690339034
 1 -3.54009388868887  6.27405006080608  0.84923262726273
 1 -4.28103578107811  4.55128426062606  1.15193733153315
 1  0.29631419671967  6.26250821072107  1.80084281678168
 1 -1.17383876717672  7.18918561406141  1.35057431383138
 1 -0.12300311271127  7.15916441694169  0.08916525072507
 1 -3.70943123892389  6.19639552265227 -1.37272508860886
 1 -5.41830365346535  5.79166190719072 -0.87165230693069
 1 -4.28131265236524  4.71411290359036 -1.67213695209521
 1  3.59946525302530 -4.36108033823382  2.04484312131213
 1  7.96042328702870 -1.86588724102410  1.72771293389339

