%nproc=4
%Mem=4GB
# td=(NStates=1) B3LYP/SVP 

TD

0 1
 8 -4.49342946374638 -4.66965704690469  1.91726709030903
 8  3.00144074217422 -4.90006455565557  1.25190312211221
 8  7.01274165556556 -1.33590113121312  1.97541776227623
 8  3.71830356315632 -3.15989511471147  0.06139899829983
 8  7.59285803780378 -0.67375875517552 -0.15013458275828
 8 -2.98125845464546  2.36399379687969 -0.17757266186619
 7 -0.18853323502350 -0.60635998579858 -0.53840247644764
 7  1.49199688238824  1.86697907670767 -0.33475513761376
 7 -3.43800074307431 -2.95535458225823  0.74646311761176
 7 -0.72116351925193  2.92339275747575 -0.10119514341434
 6  0.67861909430943 -2.55783122142214 -1.23456553965397
 6  0.97506644044404 -1.18644859595960 -0.96368892419242
 6 -0.60274459955996 -2.69225311471147 -1.32543274267427
 6 -1.24222632883288 -1.49654329622962 -0.78332979887989
 6  3.77416535783578  1.49042352765276 -0.47635385178518
 6  2.37313800680068  0.81741307310731 -0.56156771537154
 6  2.20497750205020 -0.44605075087509 -1.02540478547855
 6  3.65105894279428  2.76841484968497 -0.03250402330233
 6  1.61955310781078 -3.54041930773077 -1.90495069606961
 6 -5.70977031223122 -2.47620953055306  1.41269120912091
 6 -3.61793385628563 -1.75012007400740  0.11848563356336
 6  2.12692695289529  2.96181260946095 -0.04807228422842
 6 -5.07760395669567 -1.50870637383738  0.34714335323532
 6  5.01312979107911  0.60469013901390 -0.56532958935894
 6 -2.65087604980498 -1.07604437603760 -0.54614502890289
 6 -1.41352929062906 -3.93136763906391 -1.64969821352135
 6 -4.46765423222322 -3.61505001070107  1.34456357095710
 6  2.12195267126713 -4.62737495719572 -0.97101995779578
 6  5.42307218351835 -0.13422948684868  0.83268137423742
 6  4.68155394159416  3.73677490879088  0.18184036783678
 6  1.36815805720572  4.14225863336334  0.27854797429743
 6 -7.07401853245324 -3.02110949074907  1.06291575767577
 6 -5.88069667216722 -0.65117984788479 -0.36216769116912
 6 -0.08563355235524  4.07413208480848  0.21555018061806
 6 -1.01840280198020  5.11351244424442  0.56350097869787
 6 -2.24148947514751  4.70202632543254  0.42612401530153
 6  2.97649049034903 -4.13458007710771  0.17105850485049
 6 -5.48094275507551  0.33980920952095 -1.48099916691669
 6  6.80943350955096 -0.71085937003700  0.81090421302130
 6 -3.56045180448045  5.34911120932093  0.55501631673167
 6 -2.07006044234423  3.18309050035003  0.03291421622162
 6 -0.64524866236624  6.52212608060806  0.89112420222022
 6 -4.23324186108611  5.80555896079608 -0.68498927462746
 1 -0.28862642754275  0.23470917651765 -0.28107866116612
 1  2.95393940854085 -1.07546954905491 -1.02653216181618
 1  2.49870112101210 -3.20716542344234 -2.28030046474647
 1  0.85220199949995 -3.90865278287829 -2.64010637713771
 1 -5.68738054425442 -2.08903729282928  2.32933509400940
 1  4.95938624882488 -0.24210949444945 -1.32678583158316
 1  5.82087405300530  1.39147345664566 -0.88353965356536
 1 -2.90258835453545 -0.13066857065707 -0.75953885948595
 1  0.30724705640564  2.01414259725973 -0.33787325942594
 1 -1.37380297149715 -4.85005710991099 -0.96012681838184
 1 -2.55877950765076 -3.84202190419042 -1.97052637283728
 1 -0.98935888698870 -4.36581475587559 -2.59664326732673
 1 -2.53236699449945 -3.47094324272427  0.77319456645665
 1  1.48127393409341 -5.43090557305731 -0.43005672317232
 1  2.71518070387039 -5.38643135163516 -1.51724623852385
 1  4.64660908190819 -0.94111016211621  0.98845943214321
 1  5.44374857445745  0.59583402000200  1.71638610931093
 1  4.49420694099410  4.52993346074607 -0.40547052975298
 1  5.82979960276028  3.30551327052705  0.30683720692069
 1  4.70896031343134  4.18967447554755  1.24325562946295
 1  1.87080291229123  5.08912884248425  0.42152193909391
 1 -7.64936770837084 -2.10486648114811  1.10294498849885
 1 -7.48333397769777 -3.75863362926293  1.61498386628663
 1 -6.98633681768177 -3.57849561306131 -0.00881929272927
 1 -6.93426076777678 -0.45152548384838 -0.07987605970597
 1 -4.95877071887189  1.11077527442744 -0.79967381548155
 1 -6.40573240294029  0.85351297959796 -1.74101077957796
 1 -4.71973046854685  0.18762560876088 -2.20467167986799
 1 -3.40233011231123  6.19136179197920  1.23870157415742
 1 -4.40526820432043  4.71545067726773  1.12121425922592
 1  0.12569713501350  6.27774973487349  1.70471320382038
 1 -1.52774415771577  7.13463015851585  1.14570382678268
 1 -0.00124093649365  7.01576007650765 -0.13730739653965
 1 -3.76238653445345  6.65253113621362 -1.21404922102210
 1 -5.23143496659666  6.35242798379838 -0.47997313901390
 1 -4.15836035713571  5.11330282258226 -1.56719645804580
 1  3.53087839433943 -4.59989421962196  1.84132276927693
 1  7.87705495019502 -1.62722337463746  2.07095725832583

