%nproc=4
%Mem=4GB
# td=(NStates=1) B3LYP/SVP 

TD

0 1
 8 -4.38688880968097 -4.75300538173817  1.87170253385339
 8  3.19792039013901 -5.02909745894589  1.19866779857986
 8  6.90240062146215 -1.42360990209021  2.02113233373337
 8  3.51209294209421 -3.05841496669667  0.07528038643864
 8  7.57276602860286 -0.77970935023502 -0.14270383968397
 8 -2.99840016881688  2.46675407290729 -0.14899980458046
 7 -0.33251763346335 -0.48916826662666 -0.66041467766777
 7  1.63527120982098  1.83736611541154 -0.50474213631363
 7 -3.35530247324732 -3.09575862266227  0.64511298259826
 7 -0.71762316521652  2.89857027522752 -0.15593061696170
 6  0.65783701610161 -2.41095653395340 -1.21451353445345
 6  0.97314624842484 -1.07276722782278 -1.00851340664066
 6 -0.79737406250625 -2.68125201460146 -1.24615481488149
 6 -1.38719082528253 -1.43587722962296 -0.75698716461646
 6  3.81484942624262  1.40455494079408 -0.31336755315532
 6  2.47485817881788  0.84646597839784 -0.58202976157616
 6  2.18831583588359 -0.42761890769077 -0.92028427342734
 6  3.60432426932693  2.76335434363436  0.02638186528653
 6  1.58485963846385 -3.42602786858686 -1.92234243524352
 6 -5.54244357955796 -2.68245015461546  1.26172611261126
 6 -3.65068713161316 -1.81430649264927  0.15454923992399
 6  2.16639089928993  3.00955738393839 -0.00065754275428
 6 -5.08774497079708 -1.56897240044004  0.38314695359536
 6  5.06682516061606  0.70557022702270 -0.42453550995100
 6 -2.67104806700670 -0.99218599019902 -0.42423283768377
 6 -1.46275421312131 -3.89224372667267 -1.67884112781278
 6 -4.45685315211521 -3.64567307300730  1.38483759835984
 6  2.05632610861086 -4.56243846354635 -0.90212306810681
 6  5.43998387468747 -0.14864092799280  0.74209231533153
 6  4.63514930113011  3.77540877217722  0.44572675647565
 6  1.31782302370237  4.10776518401840  0.28055817531753
 6 -7.00889201980198 -3.23782116191619  1.06169563566357
 6 -5.98641724422442 -0.69822455235524 -0.18313978837884
 6 -0.07934292329233  4.02024669626963  0.11754037963796
 6 -0.92908387008701  5.18518961196120  0.43367799639964
 6 -2.17147247344734  4.66996311911191  0.33765516841684
 6  3.02242508380838 -4.21034765386539  0.13974537353735
 6 -5.51515617641764  0.50013524212421 -1.14105517251725
 6  6.76133870007001 -0.76546483058306  0.81552467506751
 6 -3.51332709200920  5.38329462766277  0.46918773387339
 6 -2.08287172347235  3.25184737603760 -0.06745582078208
 6 -0.46915105260526  6.56591045904590  0.75062015181518
 6 -4.22518105500550  5.79899830473047 -0.88941971767177
 1 -0.45532309720972  0.39881558715872 -0.15859641294129
 1  2.80040405500550 -1.24233623572357 -0.95407491609161
 1  2.53259451035103 -2.91047575447545 -2.32483491819182
 1  0.94426120542054 -3.79476139373937 -2.89647201370137
 1 -5.43765557175717 -2.16767515661566  2.35102726322632
 1  5.17177748794879  0.29010372687269 -1.38928208120812
 1  5.87109907550755  1.48580288958896 -0.59818111771177
 1 -2.99893798949895 -0.02206771057106 -0.39716262186219
 1  0.80841717341734  1.70462164516452 -0.81416088818882
 1 -1.19495508670867 -4.64780688488849 -0.85547635333533
 1 -2.43559718941894 -3.65561326332633 -1.62980230043004
 1 -1.33496344744474 -4.29526770117012 -2.67116071907191
 1 -2.45968972677268 -3.53366951535154  1.00395764276428
 1  1.37092289898990 -5.33416589908991 -0.36156987448745
 1  2.67494668046805 -5.34906761526153 -1.36418093199320
 1  4.52866728772877 -0.94639069016902  0.65901648784878
 1  5.22867706730673  0.38383281988199  1.61826629732973
 1  4.42353987428743  4.58129859725973 -0.02160214291429
 1  5.67513413621362  3.62138485768577  0.19065558875888
 1  4.69475889328933  3.95918142624262  1.50302160606061
 1  1.79856568856886  5.16948687828783  0.60232001890189
 1 -7.76927969956996 -2.28815480998100  1.02118681268127
 1 -7.22435808010801 -3.86185395129513  1.76287865576558
 1 -6.78889707370737 -3.60755851935194  0.06621821102110
 1 -6.85330267196720 -0.55849618091809  0.22559448734873
 1 -5.11882672447245  1.35848004490449 -0.64789863796380
 1 -6.43354518421842  0.81935956425643 -1.50960763926393
 1 -4.68840733623362  0.28163500970097 -1.92328354105410
 1 -3.57335721502150  6.19836249204920  1.15143284728473
 1 -4.24652232973297  4.75917504970497  1.06217835563556
 1  0.04342890819082  6.60554251415142  1.67476020852085
 1 -1.45581696499650  7.25249194469447  0.78719797619762
 1  0.17440662826283  7.04802330283028 -0.02546621242124
 1 -3.75597589338934  6.36832271537154 -1.58529634573457
 1 -5.13524534763476  6.29574231523152 -0.79499464116412
 1 -4.34123864496450  4.88678017031703 -1.54817455585559
 1  4.02352765926593 -4.54357858805881  1.76228486548655
 1  7.77892513721372 -1.88610926322632  1.87978814141414

