%nproc=4
%Mem=4GB
# td=(NStates=1) B3LYP/SVP 

TD

0 1
 8 -4.48322844364437 -4.65820590179018  2.08215357895790
 8  2.85290588868887 -4.93631818101810  1.15798373017302
 8  6.97192757415742 -1.67934547564756  1.85588580908091
 8  3.65181691449145 -3.20321944714471  0.06022888128813
 8  7.61563031503150 -0.56142752205221 -0.04330389968997
 8 -2.93239356815682  2.46658405590559 -0.29974487908791
 7 -0.19140352205221 -0.57966731653165 -0.54820345654565
 7  1.53449113181318  1.81744412321232 -0.29983164526453
 7 -3.33934087708771 -3.12688173497350  0.79258773007301
 7 -0.71718312121212  2.91445186338634 -0.00269529342934
 6  0.65707694009401 -2.43172861116112 -1.57340942404240
 6  0.95046398019802 -1.07182713381338 -1.09769232453245
 6 -0.72665699079908 -2.68621251065107 -1.28891909130913
 6 -1.32196430263026 -1.44710835273527 -0.60747221312131
 6  3.80192813411341  1.49942442774277 -0.27625384178418
 6  2.46993768676868  0.87041837363736 -0.62544410301030
 6  2.18526553085309 -0.44050019581958 -0.94686693169317
 6  3.60588442534253  2.78210621882188  0.24495372247225
 6  1.65342649514951 -3.45435070087009 -2.08059826082608
 6 -5.57714704990499 -2.72498440804080  1.34910485048505
 6 -3.60141220412041 -1.82460752275228  0.28149193419342
 6  2.09455371557156  2.96200262846285  0.10105262826283
 6 -4.99494569086909 -1.57892339553955  0.45882452135214
 6  5.09987846594659  0.68651832183218 -0.34193725012501
 6 -2.66015697789779 -1.03105987758776 -0.30546096049605
 6 -1.52954089178918 -3.85085958825883 -1.86415965966597
 6 -4.40229769656966 -3.64180268596860  1.46148526312631
 6  2.18855933193319 -4.59358157785779 -1.08382123792379
 6  5.30070994729473 -0.28943500740074  0.87529563566357
 6  4.55732151835184  3.87297852915292  0.54677686148615
 6  1.34738597999800  4.13612802030203  0.31140125962596
 6 -6.86079721032103 -3.40869824962496  1.08708817491749
 6 -5.84605320782078 -0.69564429432943 -0.13521499589959
 6 -0.06723171217122  4.08553322492249  0.16711533713371
 6 -1.05077603930393  5.23309440244024  0.34910953955396
 6 -2.24634996119612  4.79151527432743  0.21547295019502
 6  2.93118595989599 -4.07813443254325  0.06121752075208
 6 -5.45903056385638  0.52177740634063 -1.03816488348835
 6  6.78872143834383 -0.82334061816182  0.79033215581558
 6 -3.56763252255225  5.51492779097910  0.32733354845485
 6 -2.12185562186219  3.27766995829583 -0.12827190239024
 6 -0.53887802530253  6.63705757375738  0.66322141194119
 6 -4.14912344924492  5.81661006590659 -1.18634941064106
 1 -0.41307887278728  0.44607031263126 -0.21865241854185
 1  3.05831984658466 -1.21121312341234 -1.18283779237924
 1  2.45713696459646 -2.96650135703570 -2.52740517521752
 1  1.09867664696470 -3.83435535313531 -2.98915128162816
 1 -5.69265107130713 -2.40516890599060  2.41609376987699
 1  4.78163847404740 -0.14414969846985 -1.33373652665267
 1  6.05275724132413  1.40333464276428 -0.37215851545154
 1 -2.77320541624162  0.08637313351335 -0.38293119871987
 1  0.35890222192219  1.98161934493449 -0.53886335843584
 1 -1.63738933013301 -4.83803590779078 -1.24750555625563
 1 -2.67010063976398 -3.52079978197820 -1.84979429962996
 1 -1.21480143124312 -4.23287146154615 -2.71021462446245
 1 -2.55579933773377 -3.65700184858486  0.68618586558656
 1  1.34511031773177 -5.15909839233923 -0.79205292279228
 1  2.51015020082008 -5.34931764026403 -1.80099461336134
 1  4.65986040704070 -1.26529258035804  0.67441802800280
 1  5.10547474707471  0.05378981558156  1.80228469916992
 1  4.31978949924993  4.77452792019202  0.24188420572057
 1  5.59218584138414  3.44692741194119  0.05854237743774
 1  4.71095051245124  3.82384789288929  1.77363866776678
 1  1.82203803580358  5.01163109270927  0.57665745264526
 1 -7.77374014561456 -2.89451544604460  1.60724541854185
 1 -6.82603824812481 -4.48089585548555  1.59671203910391
 1 -6.99219740374037 -3.49728749224922  0.05365695489549
 1 -6.84326166786679 -0.86052638393839  0.14348627652765
 1 -5.06676151795179  1.37799199609961 -0.52088593669367
 1 -6.57306913661366  0.97438506680668 -1.58723540204020
 1 -4.92578107360736  0.20436728292829 -1.92699391209121
 1 -3.63330320962096  6.37151980778078  0.85313301730173
 1 -4.19857753525353  4.77123625582558  0.72993513131313
 1 -0.14915034973497  6.65244720462046  1.86368910141014
 1 -1.31505288858886  7.48884558005800  0.61881113751375
 1  0.23364255185519  7.09904840534053  0.05188152235223
 1 -3.49110940674067  6.62076795989599 -1.33074089018902
 1 -5.11847367046705  6.26765950695069 -1.15297043874387
 1 -4.20642516361636  4.90136162846285 -1.89828956735674
 1  3.62931823832383 -4.49269349954996  1.72553119011901
 1  7.89315656035604 -1.75824647694769  1.65654581718172

