%nproc=4
%Mem=4GB
# td=(NStates=1) B3LYP/SVP 

TD

0 1
 8 -4.61160128092809 -4.63218329952995  1.91912727632763
 8  3.16992759085909 -4.93897844704470  1.30975890769077
 8  7.34481486288629 -1.35441298239824  1.75669589008901
 8  3.72093382618262 -3.02720184538454  0.04542740114011
 8  7.56849560156016 -0.73304468376838 -0.36464603390339
 8 -3.02787311611161  2.36020341784178 -0.12449735433543
 7 -0.31277565926593 -0.58960831063106 -0.53370200640064
 7  1.51989967266727  1.75820819961996 -0.28147981008101
 7 -3.50544748774877 -3.08809785658566  0.68274674597460
 7 -0.76715811871187  2.94447486568657 -0.10692571647165
 6  0.63654488688869 -2.56008144644464 -1.28143022612261
 6  0.97416635043504 -1.24022397349735 -0.93124567986799
 6 -0.76120044514451 -2.61429531893189 -1.23964416381638
 6 -1.35491759795980 -1.48063170507051 -0.79457092299230
 6  3.84248218951895  1.40783526882688 -0.22469868626863
 6  2.50755144814481  0.78781011281128 -0.49333089168917
 6  2.29637664196420 -0.50513665946595 -0.83049529452945
 6  3.62905674257426  2.69257726592659  0.13285251235124
 6  1.64745589808981 -3.42060732653265 -1.90758095909591
 6 -5.66236557175718 -2.55112702230223  1.34157409740974
 6 -3.66073813671367 -1.86462152415242  0.10152393739374
 6  2.10328458865887  2.91132756095610  0.04226674967497
 6 -5.03871006730673 -1.44145964916492  0.32995163406341
 6  5.14798327642764  0.74169383938394 -0.38096115251525
 6 -2.73586454865487 -1.02462923452345 -0.38259867426743
 6 -1.39199713741374 -3.83224772707271 -1.72724596829683
 6 -4.55493296009601 -3.63534203990399  1.30068918351835
 6  2.02537301330133 -4.53766598629863 -0.89755261106111
 6  5.42059193549355 -0.22133819771977  0.82511061716172
 6  4.43412919911991  3.87188842014201  0.44272645644564
 6  1.28332957435744  4.04758916641664  0.25704582408241
 6 -6.99326045664566 -3.23505088488849  0.96618608470847
 6 -5.85075367786779 -0.54923965386539 -0.28465994039404
 6 -0.09103409240924  4.00367503910391  0.17996662226223
 6 -1.09535049674967  5.19027012001200  0.52793742234223
 6 -2.32245757195720  4.61048717151715  0.44275567846785
 6  3.03629647094709 -4.05002162126213  0.16984838383838
 6 -5.47420208100810  0.53694892349235 -1.13166423342334
 6  6.80973353955396 -0.82987127122712  0.64143726632663
 6 -3.56167192649265  5.45822212041204  0.31985280038004
 6 -2.11611504780478  3.17990018131813 -0.03974304950495
 6 -0.51139527702770  6.47885175317532  0.84474956475648
 6 -4.05073361026103  5.81911031593159 -1.10285106080608
 1 -0.35416298119812  0.29432513811381 -0.04890544384438
 1  3.03854786938694 -1.25628763086309 -1.13520302890289
 1  2.44562581348135 -2.92709741664167 -2.26013844854485
 1  0.97317409670967 -4.06752867046705 -2.72369473597360
 1 -5.48477028322832 -2.15301369046905  2.20522268276828
 1  5.05551586178618  0.24963968046805 -1.41643479647965
 1  5.95155712131213  1.25318962826283 -0.54356565616562
 1 -3.01448954465447  0.06183067926793 -0.40002290789079
 1  0.65235156685669  1.79782096509651 -0.50129960206021
 1 -1.57062265346535 -4.55147725192519 -0.66538734443444
 1 -2.42718634833483 -3.94585228722872 -2.30963028322832
 1 -0.78286823792379 -4.36609478387839 -2.38156175917592
 1 -2.47548130593059 -3.37373352175218  1.11654890189019
 1  1.19271507820782 -4.88542102460246 -0.38782249974997
 1  2.52291147694769 -5.48689139763976 -1.46300081398140
 1  4.63575799679968 -0.86544259535954  0.85702628882888
 1  5.44757895749575  0.27715215181518  1.87320179087909
 1  4.31217873817382  4.59752021942194 -0.37722770547055
 1  5.44805142794279  3.51004372357236  0.54735125832583
 1  4.10047946534653  4.44688019611961  1.52061336523652
 1  1.78062389438944  4.96658658825883  0.55655544244424
 1 -7.81328410001000 -2.42758875337534  0.75266996099610
 1 -7.31692733703370 -3.82748051395139  1.82976534443444
 1 -6.95955413941394 -3.63238100160016  0.00735232443244
 1 -6.88885622732273 -0.41338166946695  0.24150607850785
 1 -4.91491633343334  1.29227342424242 -0.51642549064906
 1 -6.26341817151715  0.93735136343634 -1.96307298579858
 1 -4.75530402590259  0.15382222842284 -1.89548076077608
 1 -3.43680355965597  6.37223987978798  0.82588029202920
 1 -4.41728940644064  4.82698183038304  1.02068420622062
 1 -0.05492092679268  6.81154311421142  1.97778051055106
 1 -1.39671105440544  7.25980267576758  0.66529578597860
 1  0.22002118971897  6.76230473097310  0.07817415161516
 1 -3.48824912071207  6.79300518361836 -1.45265308140814
 1 -5.16623844694469  6.21149389038904 -1.14765990769077
 1 -3.85320984208421  5.01492298459846 -1.84082382078208
 1  3.81198650515052 -4.37928215841584  1.92891152815282
 1  8.21773901860186 -1.68275892819282  1.40693085568557

