%nproc=4
%Mem=4GB
# td=(NStates=1) B3LYP/SVP 

TD

0 1
 8 -4.52083220402040 -4.58744882608261  1.91321668526853
 8  3.20159075717572 -4.71529607880788  1.33638156995700
 8  7.17687806920692 -1.54756229732973  1.72903312381238
 8  3.80062179497950 -3.15542466766677  0.00782364076408
 8  7.56344509650965 -0.89334071337134 -0.37244681398140
 8 -3.09134946374637  2.47739513701370 -0.18590349494950
 7 -0.24879926162616 -0.54386373617362 -0.59575821202120
 7  1.48173585628563  1.77150952975298 -0.30220188228823
 7 -3.37300424342434 -3.10324937173717  0.65770424172417
 7 -0.82385378827883  2.94129454765477 -0.19165418931893
 6  0.60602183458346 -2.43075851415141 -1.39119120222022
 6  0.95542447624762 -1.13734368546855 -0.98058061336134
 6 -0.83692801790179 -2.64594848424843 -1.22093229262926
 6 -1.33992609880988 -1.39420306220622 -0.81285275117512
 6  3.80613855515552  1.41934641994199 -0.33602981938194
 6  2.45370606360636  0.81769310111011 -0.56793835243524
 6  2.26127313161316 -0.44831097689769 -0.97019926492649
 6  3.52822665956596  2.71863987218722  0.12731195829583
 6  1.50364151665167 -3.58536380218022 -1.83720392139214
 6 -5.48234756995700 -2.48307021662166  1.40303024302430
 6 -3.63175523842384 -1.84849991199120  0.08512229722972
 6  2.10853511371137  2.94888131633163 -0.05442291929193
 6 -5.01332752905290 -1.48434393759376  0.27544618351835
 6  5.16748522662266  0.75318498849885 -0.33833689008901
 6 -2.66340730293029 -0.99922669426943 -0.41215162956296
 6 -1.55150308800880 -3.81453595589559 -1.64568781248125
 6 -4.52026949374938 -3.49776828252825  1.38961807640764
 6  1.97646812281228 -4.61680390009001 -0.71503435923592
 6  5.52512238853885 -0.02518858275828  0.92478058415842
 6  4.57856364256426  3.70601183248325  0.59970215401540
 6  1.24712595399540  4.12266667416742  0.19634975447545
 6 -6.90974210481048 -3.10956833663366  1.01247071317132
 6 -5.75719432193219 -0.53235796569657 -0.33391486588659
 6 -0.17168215721572  4.02894756635664  0.09060768636864
 6 -1.05550651235124  5.15590668366837  0.56477110571057
 6 -2.26938226442644  4.60679680248025  0.34012541544154
 6  3.13219606090609 -4.10326694579458  0.16132753175318
 6 -5.34082874367437  0.39377460606061 -1.41423249024903
 6  6.87845041124112 -0.83770205430543  0.70793391599160
 6 -3.59304506380638  5.30588688688869  0.52585340044004
 6 -2.17178061436144  3.22557474877488 -0.11179025422542
 6 -0.54512865036504  6.49654352235224  1.00602569236924
 6 -4.26634517141714  5.61084948984899 -0.90057083278328
 1 -0.47372493739374  0.33784949054905 -0.23340389368937
 1  3.06881089568957 -1.20862286438644 -1.03577308590859
 1  2.55273652455246 -3.28224293119312 -2.12676511121112
 1  1.08657543684368 -4.24258617621762 -2.56114848134813
 1 -5.41236304250425 -1.87880626972697  2.37243940444044
 1  5.11570188038804  0.13624834133413 -1.26307946094609
 1  5.91207317291729  1.45452976227623 -0.57849914951495
 1 -2.82968106380638  0.06456095229523 -0.59768267386739
 1  0.48417474917492  1.65026620962096 -0.26774624672467
 1 -1.45194078527853 -4.79354145834583 -1.10531133683368
 1 -2.74076770647065 -3.68724642664266 -1.81820114031403
 1 -1.03569352045205 -4.21557973237324 -2.47481108410841
 1 -2.47445120292029 -3.63674982338234  0.69799704670467
 1  1.22964877157716 -4.93114559705971  0.15213149564956
 1  2.55594478027803 -5.39947265576558 -1.17407192109211
 1  4.74718913991399 -0.87620367146715  1.00155074127413
 1  5.61828602820282  0.63263770037004  1.71011548224822
 1  4.34812233253325  4.82503297069707  0.30787080438044
 1  5.64899152195219  3.66288900810081  0.19293581678168
 1  4.45324474187419  3.80264577267727  1.60322162606261
 1  1.83128896089609  4.91196112571257  0.50133992089209
 1 -7.92889566116612 -2.14695068956896  0.95943063706371
 1 -7.23794943924392 -3.92170993689369  1.65956832473247
 1 -6.90246843084308 -3.41820958445845 -0.05615402620262
 1 -6.84009135083508 -0.46085641694169  0.01001292919292
 1 -4.63361820362036  1.19424362126213 -1.21024487258726
 1 -6.19571140084008  0.78360598889889 -1.74532121062106
 1 -4.80626912241224 -0.01909506330633 -2.31268248094809
 1 -3.39406928622862  6.48213086888689  0.74627233123312
 1 -4.40672835033503  4.93014214641464  1.20590272807281
 1  0.05396996229623  6.68969092899290  2.01355408790879
 1 -1.38011939523952  7.07638433393339  1.19310856725673
 1  0.12092127972797  6.95644414491449  0.30036637083708
 1 -3.87459775557556  6.18850473357336 -1.62739055515552
 1 -5.29643146624662  6.08989173017302 -0.72909805150515
 1 -4.69454397549755  4.75700719301930 -1.40336007440744
 1  3.73458876537654 -4.29968419861986  1.99030766776678
 1  7.98206545124512 -2.12945359765977  1.58322848544854

