%nproc=4
%Mem=4GB
# td=(NStates=1) B3LYP/SVP 

TD

0 1
 8 -4.57516763756376 -4.80836091729173  1.90209557315732
 8  2.73143374147415 -4.71926647584758  1.36605453725373
 8  7.10293067446745 -1.59312685378538  1.76442666316632
 8  3.60023175597560 -3.04948407360736  0.15820867926793
 8  7.71621037303730 -0.20975235453545 -0.03338290759076
 8 -3.02409273807381  2.62014941244124 -0.11294619921992
 7 -0.30717509920992 -0.59095844564456 -0.49274791099110
 7  1.54067174987499  1.70010238903890 -0.40102176427643
 7 -3.42594953795380 -3.28929797659766  0.53578204950495
 7 -0.74273567646765  2.97240765896590 -0.05300032393239
 6  0.65040627302730 -2.51980741904190 -1.33647573067307
 6  0.92903183698370 -1.12781273237324 -0.96064862016202
 6 -0.71504582968297 -2.72581647104710 -1.33299349874988
 6 -1.32730483668367 -1.51650529242924 -0.84575604150415
 6  3.80928887018702  1.36682116741674 -0.44143035943594
 6  2.43177387038704  0.76992832463246 -0.57610916951695
 6  2.17456446074607 -0.58475462126213 -0.85121736673667
 6  3.59632346924692  2.65876388458846  0.01120034713471
 6  1.65559671217122 -3.49426469226923 -1.93757395839584
 6 -5.64100343554355 -2.63341525112511  1.34164410441044
 6 -3.63691575447545 -2.04626968896890  0.08580236523652
 6  2.11249550975098  2.95504193239324 -0.07622509950995
 6 -5.08253444974497 -1.65006050925093  0.38383702260226
 6  5.10322880098010  0.66273594359436 -0.52684574097410
 6 -2.69132009420942 -1.23047981958196 -0.42655306970697
 6 -1.51644958265827 -3.85248975127513 -1.78064130783078
 6 -4.51007847464747 -3.77957646334634  1.27766688128813
 6  2.08754923092309 -4.58789100880088 -0.89509236503650
 6  5.42999287558756 -0.11236730063006  0.80238834493449
 6  4.60267605380538  3.78103933523352  0.34272645644564
 6  1.37962920432043  4.05978038553855  0.20000011951195
 6 -7.10359148974898 -3.26064344414441  0.99362882898290
 6 -5.80939954245425 -0.60584531443144 -0.08512998739874
 6 -0.06870185918592  4.12802747434743  0.20292891849185
 6 -1.01783274497450  5.22866395939594  0.42204683328333
 6 -2.19865519171917  4.81047717051705  0.30977238013801
 6  2.93747658895890 -4.10026664576458  0.19879127812781
 6 -5.29097375817582  0.47247247584758 -1.05496656365637
 6  6.87886045224523 -0.67185546964696  0.80937406000600
 6 -3.50881664096410  5.56783308150815  0.49687050215021
 6 -2.05101853815382  3.34943713501350  0.02319324412441
 6 -0.47564170167017  6.62730659865987  0.75923101290129
 6 -4.04141267816782  5.96174457935794 -0.88651942764276
 1 -0.34364192909291  0.18277398299830  0.10310975767577
 1  3.02816683128313 -1.14256625872587 -1.13779328792879
 1  2.54295554645465 -3.30893560046005 -2.31102353705371
 1  1.10630741004100 -4.08396031363136 -2.68754112061206
 1 -5.32704451065107 -2.54931332043204  2.38913107360736
 1  5.10441075127513 -0.08708399189919 -1.47214036703670
 1  5.80041200680068  1.38842315161516 -0.74606590619062
 1 -2.86399449514951 -0.25074057785779 -0.59729263486349
 1  0.56166249794980  1.69742092509251 -0.46368584068407
 1 -1.34548013921392 -4.58789089328933 -0.97744855055506
 1 -2.57405103480348 -3.69891759375938 -1.72123144334433
 1 -1.19224917601760 -4.11791996639664 -2.85320892389239
 1 -2.49423318111811 -3.73762991139114  0.37470471747175
 1  1.18036384308431 -5.11818430093009 -0.53040675817582
 1  2.70848003380338 -5.51043375187519 -1.33834834873487
 1  4.93870829182918 -1.31529758085809  0.82137272347235
 1  5.26411061066107  0.32242667926793  1.77352182288229
 1  4.31255877617762  4.73092355975598 -0.00983096579658
 1  5.65541216401640  3.38317103630363 -0.16527000380038
 1  4.86379579697970  3.76832234033403  1.52573387728773
 1  1.96136196819682  4.98920885048505  0.32956274317432
 1 -7.69000177177718 -2.47426342084208  1.46611130513051
 1 -7.19060470477048 -4.26360412631263  1.73014538243824
 1 -7.18496668066807 -3.61408917241724 -0.15810422122212
 1 -6.88513585528553 -0.59522985428543  0.23368529642964
 1 -4.97970281208121  1.38898309520952 -0.66583043114311
 1 -6.20143197289729  0.86741436973697 -1.56241291979198
 1 -4.58773726922692  0.02251909810981 -1.72123333603360
 1 -3.20735061436144  6.48695135093509  0.91138884288429
 1 -4.27816549404941  5.00606973917392  1.13606574437444
 1 -0.12649808450845  6.42957491739174  1.75620835333533
 1 -1.42082346564656  7.12881957745775  1.10393965036504
 1  0.17874706230623  7.18754725522552  0.18113444764477
 1 -3.51930222602260  6.64484036713671 -1.55742355845585
 1 -4.93266508960896  6.48998173917392 -0.76580172187219
 1 -4.16355087618762  4.97881937423742 -1.54186392479248
 1  3.40602590909091 -4.10126435663566  2.09006764376438
 1  8.06126337103710 -1.72703335563556  1.65852601520152

