%nproc=4
%Mem=4GB
# td=(NStates=1) B3LYP/SVP 

TD

0 1
 8 -4.57913803460346 -4.74010409160916  1.71379674327433
 8  3.09642024012401 -4.94320887008701  1.15202313411341
 8  6.93289367076708 -1.42988052915292  1.98654887538754
 8  4.00170190299030 -3.35039416461646 -0.19476661826183
 8  7.75854460646065 -0.31408278757876  0.19759018971897
 8 -3.00923125192519  2.57553495099510 -0.22297720232023
 7 -0.35759014071407 -0.61407075687569 -0.53352198839884
 7  1.49730741344134  1.87430980978098 -0.42106376847685
 7 -3.35050199319932 -3.00660970777078  0.69056752805281
 7 -0.72767417031703  2.94136455465547 -0.03333835773577
 6  0.60574180658066 -2.46826226452645 -1.35767785088509
 6  0.89757869166917 -1.15094504560456 -0.86944950025002
 6 -0.75499982508251 -2.62622651205121 -1.27156735613561
 6 -1.32639474567457 -1.47881152305231 -0.70129159505951
 6  3.75730367166717  1.36703118841884 -0.31340755715572
 6  2.45492618561856  0.82102343414341 -0.57012857145715
 6  2.19341634593459 -0.51618776457646 -0.78570081508151
 6  3.57852168906891  2.72789079727973 -0.03248402130213
 6  1.47032818531853 -3.58872413821382 -1.90056025702570
 6 -5.59604894009401 -2.58421033063306  1.42885282528253
 6 -3.60877294019402 -1.80606566856686  0.12623640864086
 6  2.10941520172017  3.03685011321132 -0.11239871687169
 6 -5.07332352865286 -1.57040254345435  0.40547918681868
 6  5.01516999509951  0.65048471847185 -0.39452250865086
 6 -2.69914087628763 -0.97379415101510 -0.54398481288129
 6 -1.57322526022602 -3.82325682798280 -1.78168141184118
 6 -4.51090855765577 -3.65653415911591  1.32641175577558
 6  2.00683115911591 -4.57412963266327 -0.98378123392339
 6  5.22762263856386 -0.39044510841084  0.69614772087209
 6  4.53090887708771  3.77507873917392  0.41299348314831
 6  1.37753899529953  4.11238564606461  0.26810693019302
 6 -6.99563069366937 -3.09981736153615  1.24532399849985
 6 -5.81576017851785 -0.56070079998000 -0.11999347374737
 6 -0.04237922692269  4.10045471707171  0.14032265786579
 6 -0.90641160286029  5.22662375537554  0.44660928952895
 6 -2.15457078327833  4.82832895569557  0.34635603850385
 6  3.13157599889989 -4.18287490659066  0.00866226522652
 6 -5.37608226902690  0.34318954755476 -1.17660872787279
 6  6.79827239343934 -0.59683796789679  0.91033415601560
 6 -3.50835659495950  5.41798809700970  0.46210702580258
 6 -2.05577901420142  3.27267945924592 -0.02551162636264
 6 -0.43841797929793  6.59439330733073  0.61292638243824
 6 -4.26981551845184  5.45199360426043 -0.87171794749475
 1 -0.54708227312731  0.39975568116812 -0.35097565086509
 1  3.01175519011901 -1.29908191029103 -0.83046255485549
 1  2.37584883578358 -3.11080578747875 -2.55987842254225
 1  1.06400317961796 -4.15562748034804 -2.67454982148215
 1 -5.37088889508951 -2.04874326342634  2.47004916541654
 1  5.25799610981098  0.02161687818782 -1.27425057805781
 1  5.88189015461546  1.30889519881988 -0.58057935753575
 1 -2.99999809550955 -0.00698620242024 -0.63536644224423
 1  0.52409874157416  1.68547973097310 -0.56361583368337
 1 -1.56215180638064 -4.64946705090509 -1.15606641234123
 1 -2.64287791749175 -3.68874657665767 -1.87033635383538
 1 -1.14025397649765 -4.08114628902890 -2.79136273927393
 1 -2.52399615741574 -3.51372752115212  0.70965821282128
 1  1.28996480318032 -5.15004748724872 -0.51639535703570
 1  2.56675586138614 -5.20645335383538 -1.48069258315832
 1  4.68867328832883 -1.43248930003000  0.59295988218822
 1  4.72827702730273  0.04464890149015  1.70694516521652
 1  4.03048056835684  4.72561302870287 -0.05254523722372
 1  5.52807943074307  3.43650636983698  0.24880140334033
 1  4.57102652005200  3.95317082518252  1.43496480038004
 1  1.79453528552855  5.12050197979798  0.48407819471947
 1 -7.77711048264826 -2.39827582208221  1.62189688368837
 1 -7.15700134443444 -3.90627839373937  2.14126649454946
 1 -7.32684086808681 -3.65145290879088  0.39770135933593
 1 -6.84028136983698 -0.38154848614861  0.27552948084808
 1 -4.93256809860986  1.26595079197920 -0.78177202530253
 1 -6.30524235393539  0.53469109740974 -1.78263494199420
 1 -4.81598009350935  0.05593243944394 -1.83876508920892
 1 -3.43688356765677  6.44021667746775  0.88105580958096
 1 -3.83063074057406  4.70174930713071  1.28428056585659
 1  0.23098766406641  6.67651961186119  1.41184391689169
 1 -1.15256663996400  7.21866856235624  1.30901015741574
 1  0.11095028262826  7.10269877037704 -0.27586125192519
 1 -3.68818911471147  6.15742162526253 -1.55465328142814
 1 -5.22206402950295  5.79321206220622 -0.65706084778478
 1 -4.26269079017902  4.49075056735674 -1.29755949434943
 1  3.77269257575758 -4.51623585378538  1.66498513551355
 1  7.84123136783678 -1.76227687998800  2.04601476407641

