%nproc=4
%Mem=4GB
# td=(NStates=1) B3LYP/SVP 

TD

0 1
 8 -4.57304742554255 -4.61838191939194  1.98577394099410
 8  2.92780337843784 -4.83151770097010  1.18244617641764
 8  7.05530591199120 -1.40905844694469  1.98632885338534
 8  3.84951668446845 -3.15860498569857  0.10469332773277
 8  7.51470022202220 -0.73346472577258 -0.11220078937894
 8 -2.97043737253725  2.46777417491749 -0.21251615621562
 7 -0.26412079377938 -0.59966931673167 -0.47242587878788
 7  1.56674435713571  1.83713609240924 -0.39115077717772
 7 -3.38435537853785 -3.14241328812881  0.59568804010401
 7 -0.73356475937594  2.90481089928993  0.01166614271427
 6  0.58406963936394 -2.53830926922692 -1.33344542764276
 6  0.94346328012801 -1.18146809790979 -0.94887744304430
 6 -0.72748707380738 -2.68215210461046 -1.31494169356936
 6 -1.25242734893489 -1.46282992489249 -0.68368983488349
 6  3.84423236453645  1.41144562986299 -0.40390660706071
 6  2.48238893189319  0.80313164496450 -0.67407896649665
 6  2.17118412271227 -0.50719686548655 -0.91176342134213
 6  3.50588442534253  2.79608761696170 -0.07806857975798
 6  1.59802095459546 -3.42515778157816 -1.93169337033703
 6 -5.63952328752875 -2.53437534713471  1.28882882288229
 6 -3.62335439833983 -1.85480054205421  0.19355314031403
 6  2.21524578477848  2.95021144934493 -0.03472094909491
 6 -5.08293448974897 -1.48148365156516  0.33422206110611
 6  5.12648112621262  0.59664933493349 -0.45173823022302
 6 -2.63877483968397 -1.05923269486949 -0.43123353775378
 6 -1.41855979367937 -3.90626512881288 -1.86804004770477
 6 -4.56446391319132 -3.65192369806981  1.36741585618562
 6  2.11316179217922 -4.51706392609261 -1.06279913571357
 6  5.38366824312431 -0.14202026592659  0.86097420352035
 6  4.53008879507951  3.95247647894790  0.35888807260726
 6  1.37956919831983  4.09471387888789  0.28450857035704
 6 -6.97584871547155 -3.03085046484648  1.25202466856686
 6 -5.76568517101710 -0.53397812771277 -0.27230870527053
 6 -0.00713570257026  4.00760543214321  0.26130475607561
 6 -0.93878484018402  5.19514060706071  0.59662429102910
 6 -2.23707903410341  4.75381150395039  0.27250865376538
 6  3.01452429372937 -4.07395401450145  0.08075947494749
 6 -5.43358801960196  0.36898212681268 -1.23054412141214
 6  6.73386595279528 -0.77280556465647  0.80544366696670
 6 -3.62385814511451  5.35639193739374  0.37812862796280
 6 -2.08874231053105  3.21539373067307  0.04289521432143
 6 -0.50581471897190  6.53981784978498  0.87867295709571
 6 -4.28766730363036  5.54879328422842 -0.90611138683868
 1 -0.41734929982998  0.42439814541454 -0.18840939423942
 1  3.06138015261526 -1.22918492059206 -1.05057456605661
 1  2.36730798169817 -2.76751145804581 -2.42960539523952
 1  1.23420019931993 -3.82691460906091 -2.86355872237224
 1 -5.49222102830283 -2.06241463056306  2.29126128662866
 1  5.12254256445644  0.01653637013701 -1.30529368236824
 1  6.35721768736874  1.22964727402740 -0.68225952555256
 1 -2.99535763146315  0.02653714991499 -0.76217912351235
 1  0.48688502020202  1.82865404840484 -0.41583105520552
 1 -1.33869946114611 -5.05336744094409 -1.35589639533953
 1 -2.68188181788179 -3.84872257425743 -1.59150847104711
 1 -1.40844079517952 -4.06140431483148 -2.93803740674067
 1 -2.53243700150015 -3.49037518591859  0.75395264226423
 1  1.39146495319532 -5.03767625012501 -0.48730244774477
 1  2.60051923772377 -5.53813652215222 -1.47569208310831
 1  4.49760418141814 -0.84283033413341  1.03176376257626
 1  5.34173837343734  0.49218365496550  1.66044051475147
 1  4.26448396869687  4.88790925832583 -0.15863584628463
 1  5.60007663046305  3.35592831203120  0.16391291449145
 1  4.48274769216922  4.23539904800480  1.31213251715171
 1  1.93978981098110  5.02088201780178  0.65280506740674
 1 -7.71179395099510 -2.30075607010701  1.64691938593859
 1 -7.32519816411641 -4.07952571847185  1.78527089498950
 1 -7.10902908690869 -3.49274703820382  0.06736832603260
 1 -6.94841218291829 -0.52411274257426 -0.04766283838384
 1 -5.13038788058806  1.35496969386939 -0.91104495259526
 1 -6.29958178787879  0.70802843114311 -2.02901958045805
 1 -4.63681217671767 -0.17496064986499 -1.94227544024402
 1 -3.60963084238424  6.36633928972897  0.91710941494149
 1 -4.12835051255126  4.65325445764576  1.09274141194119
 1  0.30333489878988  6.63562552245225  1.71228396089609
 1 -1.47341872517252  7.22215891139114  1.13415267166717
 1 -0.14155496789679  7.14211271177118  0.02689902410241
 1 -3.81984228002800  6.11637752085208 -1.57958577467747
 1 -5.35178700180018  5.87362010301030 -0.67721286298630
 1 -4.29189371047105  4.54901639393939 -1.42768250665066
 1  3.67501280778078 -4.47896212641264  1.78666730373037
 1  7.95431267596760 -1.68257891019102  1.84506466906691

