%nproc=4
%Mem=4GB
# td=(NStates=1) B3LYP/SVP 

TD

0 1
 8 -4.31042116291629 -4.54967504870487  2.12582794639464
 8  2.78314891299130 -4.75441999119912  1.23966189798980
 8  6.95417579897990 -1.48857639873987  2.00657087758776
 8  3.75573730653065 -3.14197332253225 -0.05061220282028
 8  7.71503025502550 -0.52346372567257  0.06854728542854
 8 -3.04889521832183  2.40267766526653 -0.12242714731473
 7 -0.22401678337834 -0.48275762556256 -0.61601023722372
 7  1.61801948464846  1.76750912971297 -0.39978164026403
 7 -3.39680662366237 -3.11632067886789  0.73491196249625
 7 -0.68305970887089  2.95455587378738 -0.23436846074607
 6  0.59679091149115 -2.40086552485249 -1.34509659275928
 6  0.93886282008201 -1.11854180528053 -1.04226678197820
 6 -0.70927525262526 -2.52836672607261 -1.23848404780478
 6 -1.24696680288029 -1.35604924682468 -0.70889235513551
 6  3.86255419671967  1.41968645394539 -0.34691090749075
 6  2.60497119011901  0.74455578737874 -0.64468602720272
 6  2.22257926222622 -0.54234037983798 -0.97096934193419
 6  3.53981781868187  2.73499150735074 -0.03975474837484
 6  1.51531268376838 -3.48231349714972 -2.04315451645165
 6 -5.66771610681068 -2.58063997359736  1.39617955795580
 6 -3.63443550645065 -1.87888295029503  0.11044482948295
 6  2.12497675787579  2.94602103030303 -0.04908238523852
 6 -5.08629482578258 -1.59506500970097  0.18578721762176
 6  5.12143062116212  0.61892156215622 -0.48804186058606
 6 -2.65525648784878 -0.96510328192819 -0.40189060346035
 6 -1.63743168086809 -3.77860236253625 -1.77363060676068
 6 -4.41544901170117 -3.53487199289929  1.50636975157516
 6  1.94505498149815 -4.56717893759376 -1.01981483728373
 6  5.41002087838784 -0.17315337923792  0.82671077717772
 6  4.50485627182718  3.77079831113111  0.43614579837984
 6  1.39054029542954  4.08791319881988  0.25222534203420
 6 -6.94439557015702 -3.37022440224022  0.95594506060606
 6 -5.84943354585459 -0.60272500240024 -0.24232570697070
 6 -0.02165715471547  3.98041271287129  0.16719534513451
 6 -0.97456841854185  5.05445653865387  0.52070669926993
 6 -2.16345167136714  4.63667979077908  0.35560696359636
 6  2.95607844914491 -4.04451107020702  0.07746914591459
 6 -5.38923358415842  0.58514374297430 -1.11471253825383
 6  6.84032659885989 -0.72400068416842  0.86435955855586
 6 -3.56533229252925  5.19002530073007  0.52306312141214
 6 -2.06039947624763  3.20737292859286 -0.07154622982298
 6 -0.55689982748275  6.51944581258126  0.74994008380838
 6 -4.21714025092509  5.50103850875088 -0.86367714341434
 1 -0.23533109800980  0.34827053265327 -0.18463901720172
 1  2.78276229082908 -1.32847484958496 -1.05306481508151
 1  2.42213346424642 -2.95021972887289 -2.41316375107511
 1  1.01180796009601 -3.82138405600560 -2.86592895939594
 1 -5.72132393859386 -2.07096548564856  2.37535969646965
 1  5.32288259845985 -0.03011829532953 -1.38522167516752
 1  5.90764272987299  1.40127443674367 -0.78156945654565
 1 -3.07850594629463  0.09473396959696 -0.70236314191419
 1  0.47561389308931  1.95974715771577 -0.57342681478148
 1 -1.72874846604661 -4.40749285348535 -1.10813161886189
 1 -2.60975460516052 -3.36898460046005 -1.93514283448345
 1 -1.20498044914491 -4.09291746614661 -2.90251385438544
 1 -2.44979873767377 -3.36377252565257  0.76980422742274
 1  0.95809161586159 -4.78253073557356 -0.40359407690769
 1  2.29801898769877 -5.40383309180918 -1.64317883178318
 1  4.65314973597360 -0.93016906800680  0.90852143834383
 1  5.09749394899490  0.57769220582058  1.69572404310431
 1  4.28576609690969  4.79803027042704  0.15661567886789
 1  5.58213483628363  3.63291601080108  0.11394791799180
 1  4.60598001540154  3.79184469256926  1.69413071697170
 1  1.81733756575658  4.97410734033403  0.48888867576758
 1 -7.66478925052505 -2.63948994349435  0.84670936493649
 1 -7.14825046934693 -3.88007577347735  1.93247561546155
 1 -6.97835601960196 -3.87334509800980  0.00679226842684
 1 -6.96021336303630 -0.57221755305531  0.16418834673467
 1 -4.62594743654365  1.40501469836984 -0.53106695479548
 1 -6.16295812551255  1.05778340664066 -1.56424310281028
 1 -4.86254474997500  0.24287113331333 -2.14567578027803
 1 -3.51728160746075  6.18730138593859  1.06260396439644
 1 -4.09313699119912  4.36296542874287  0.93581571937194
 1  0.16590115541554  6.51150311021102  1.63222595509551
 1 -1.39110049334933  7.08959565506551  0.92243149954996
 1 -0.06859767216722  6.90870937143714 -0.09083274907491
 1 -3.65208550435044  6.36632251535154 -1.45709352545255
 1 -5.21625344844484  6.01288402940294 -0.78871401310131
 1 -4.67763228432843  4.75123661596160 -1.53695343374337
 1  3.46376168266827 -4.70367459765977  1.94395303230323
 1  7.82062930763076 -1.84021467376738  2.11094125672567

