%nproc=4
%Mem=4GB
# td=(NStates=1) B3LYP/SVP 

TD

0 1
 8 -4.51110123092309 -4.76218629982998  1.83961932553255
 8  2.97683828192819 -4.74356890609061  1.41413934573457
 8  6.99365974737474 -1.63534107520752  1.88296851735174
 8  3.77589932273227 -3.11882100730073  0.03634649304930
 8  7.71720047204720 -0.47206858615862  0.05394582528253
 8 -3.03740406920692  2.57288468596860 -0.29207411201120
 7 -0.32278666036604 -0.55985533533353 -0.70801943814381
 7  1.57279496219622  1.80941332013201 -0.45725738783878
 7 -3.47303424642464 -3.09855890269027  0.69089756105611
 7 -0.67084848774878  2.92446286448645 -0.06239126302630
 6  0.67480871327133 -2.41073651195120 -1.37192927602760
 6  0.92422135593559 -1.06290624172417 -1.00943349864986
 6 -0.75345967106711 -2.64857874727473 -1.36614681408141
 6 -1.32419452565257 -1.47126076797680 -0.73998546444644
 6  3.79741768306831  1.38087257255726 -0.42336855325533
 6  2.46174686768677  0.86123745554555 -0.69313087168717
 6  2.19781678597860 -0.50760690649065 -0.94856710171017
 6  3.60258409530953  2.76237424562456 -0.12924369726973
 6  1.62549370187019 -3.45933119891989 -1.77591779277928
 6 -5.59010834603460 -2.60493240284028  1.34169410941094
 6 -3.70348241114111 -1.79805486748675  0.11833561856186
 6  2.16234049424942  2.96618304650465 -0.13309078607861
 6 -5.13205940224022 -1.53317882108211  0.42408104700470
 6  5.04969344744474  0.67378704870487 -0.47997105350535
 6 -2.69964092629263 -1.01466823842384 -0.41762217661766
 6 -1.53812174987499 -3.90765526782678 -1.79574281798180
 6 -4.50425789258926 -3.70432893859386  1.30914002860286
 6  2.03065354135414 -4.62023424312431 -0.85232808860886
 6  5.36201607790779 -0.15275133903390  0.83114122022202
 6  4.60216600280028  3.83714494579458  0.21580376417642
 6  1.35163640504050  4.06900130763076  0.29696981648165
 6 -6.92153328392839 -3.09690707050705  1.05306477257726
 6 -5.92857145964596 -0.64300903080308 -0.15399687408741
 6  0.01853686468647  4.04090876247625  0.21219984558456
 6 -0.94654561626163  5.17638873187319  0.58177280588059
 6 -2.18634396059606  4.68376449924992  0.38625002790279
 6  3.01872471377138 -4.09371599069907  0.19126052505251
 6 -5.57704236503650  0.46580180878088 -1.23991505850585
 6  6.83938650485049 -0.69132741684168  0.85622874547455
 6 -3.50125588488849  5.23205950415042  0.59674048914891
 6 -2.01251468776878  3.28843103440344 -0.01659073427343
 6 -0.41693583108311  6.51247511551155  0.93478856865687
 6 -4.22348088498850  5.50302870777078 -0.86993776947695
 1 -0.59245681058106  0.32928863446345 -0.22700325362536
 1  2.90909492409241 -1.10336233833383 -0.99214872347235
 1  2.61509276017602 -3.01786649354936 -1.93773620832083
 1  1.45925270457046 -3.83018493609361 -2.76425879237924
 1 -5.59669147534753 -2.20038842794279  2.36513867436744
 1  5.11079138933893  0.02303702020202 -1.21554470747075
 1  5.79973193879388  1.48805311461146 -0.61182248184818
 1 -2.86264436013601  0.09923441964196 -0.44031693729373
 1  0.63758008970897  1.68945012801280 -0.68136760886089
 1 -1.52046763796380 -4.69832193639364 -1.04790559625963
 1 -2.50295392509251 -3.47530523252325 -1.86211553175318
 1 -1.34168411951195 -4.14663283768377 -2.85662926592659
 1 -2.47497125492549 -3.67258340674067  0.50225747274727
 1  1.10422622932293 -4.99317179967997 -0.26142986048605
 1  2.56132531833183 -5.28196090459046 -1.54854936883688
 1  4.63166758775878 -1.02028807990799  0.98926951315131
 1  5.29645384498450  0.51781621822182  1.78297276797680
 1  4.61607912821282  4.57376784418442 -0.50856083878388
 1  5.46223284608461  3.35452817201720  0.19271579477948
 1  4.29675909330933  4.34010951905190  1.19288059195920
 1  2.00192602460246  4.99188911851185  0.35556534343434
 1 -7.91303407500750 -2.32289828432843  0.78542323632363
 1 -7.24306995129513 -3.97359512541254  1.84172654055406
 1 -6.89266745074507 -3.42154991849185  0.12510409960996
 1 -6.90176751845184 -0.58622895419542  0.22523445134513
 1 -5.00441528332833  1.36195039193919 -0.68926277437744
 1 -6.57338916861686  0.54747237553755 -1.60078675717572
 1 -4.82825132063206  0.05306215241524 -1.99089030173017
 1 -3.55363524282428  6.15287794359436  1.17706541054105
 1 -4.06647432493249  4.53557268946895  1.06189832763276
 1  0.47597216251625  6.68278023792379  1.61238397089709
 1 -1.18772015531553  6.99579627512751  1.36537579397940
 1 -0.10705151755175  6.91050955145514 -0.06531019681968
 1 -3.81514180998100  6.34323020612061 -1.43598141424142
 1 -5.20311213431343  5.87468020902090 -0.58387352905290
 1 -4.15013953505350  4.50503199549955 -1.38040777917792
 1  3.62556786328633 -4.28394262446245  2.01591022802280
 1  8.03793103780378 -1.82546319861986  1.78515867846785

