%nproc=4
%Mem=4GB
# td=(NStates=1) B3LYP/SVP 

TD

0 1
 8 -4.52528264906491 -4.57633771497150  1.92536790039004
 8  3.29226982508251 -4.84931948114811  1.21433936573657
 8  7.08435881728173 -1.69741728282828  1.68718893939394
 8  3.95948768156816 -3.02025115031503 -0.07696483808381
 8  7.68689744174417 -0.39391077037704 -0.09004857415742
 8 -3.04445477427743  2.48590598809881 -0.16885178977898
 7 -0.34838922062206 -0.63734308410841 -0.63493212941294
 7  1.51769945264526  1.74150652945295 -0.33679534163416
 7 -3.48986592959296 -3.03731277807781  0.66187465876588
 7 -0.76746814971497  2.93000341854185 -0.01121614551455
 6  0.56041727412741 -2.49914535283528 -1.32213429652965
 6  0.84106304010401 -1.17965791689169 -1.01714426972697
 6 -0.91278560366037 -2.65917980738074 -1.26667686708671
 6 -1.36866897309731 -1.45706934883488 -0.83110457635764
 6  3.80416835813581  1.37352183748375 -0.35637185358536
 6  2.59570026302630  0.72444377617762 -0.59163072167217
 6  2.11136814111411 -0.54248039383938 -0.95688793379338
 6  3.53375721262126  2.69167717591759  0.08441766886689
 6  1.64044519701970 -3.55533079887989 -1.85726592759276
 6 -5.68230756595660 -2.48110001960196  1.32958289828983
 6 -3.74654671757176 -1.81164622662266  0.11871565656566
 6  2.13890815101510  2.90215664386439  0.11071359435944
 6 -5.15000119641964 -1.47492299549955  0.37617625652565
 6  5.09180765886589  0.72004167416742 -0.41860491689169
 6 -2.76130709290929 -1.04104087568757 -0.47428784318432
 6 -1.55721365906591 -3.91771627392739 -1.57297054075408
 6 -4.55715318211821 -3.52287079277928  1.38463757835784
 6  2.24831530753075 -4.60005222492249 -0.81134399019902
 6  5.45012488878888 -0.24685074897490  0.84160226632663
 6  4.64567035323532  3.79264049534954  0.49530171397140
 6  1.36746798819882  4.05489989748975  0.26797691719172
 6 -7.08822995359536 -2.97165454525453  1.12898236433643
 6 -5.88751735423542 -0.58907363726373 -0.24523599799980
 6 -0.06709169816982  4.00286495809581  0.30065869146915
 6 -0.90783174487449  5.15792688568857  0.56295092369237
 6 -2.31897722392239  4.74780090289029  0.27643904680468
 6  3.22567540884088 -4.04675129422942  0.09954135313531
 6 -5.35951061186119  0.27127235583558 -1.37387845484548
 6  6.87224979117912 -0.72615089918992  0.75109823242324
 6 -3.62263802310231  5.44692099029903  0.33940475557556
 6 -2.11557499379938  3.20775296659666 -0.08875795099510
 6 -0.49628376587659  6.52328619661966  0.99444453425343
 6 -4.33345188208821  5.60393879877988 -0.99285006070607
 1 -0.46134369926993  0.43508921452145 -0.55737629092909
 1  3.09614362896290 -1.25343734583458 -0.82971247984799
 1  2.61664291519152 -2.97586229312931 -2.21677411211121
 1  1.10897767706771 -4.12786470407041 -2.78781114761476
 1 -5.65775758195819 -2.28493688278828  2.42526468696870
 1  5.14463477367737  0.23120783728373 -1.28606175917592
 1  5.90989295489549  1.33613792309231 -0.42703400300030
 1 -2.79923801950195  0.21726622282228 -0.48574147974797
 1  0.48097442914291  1.89393057605761 -0.40816028812881
 1 -1.36313190439044 -4.82941504570457 -0.84793559925993
 1 -2.68127175687569 -3.79921762376238 -1.68952827302730
 1 -1.12402235333533 -4.41405958035804 -2.54710831383138
 1 -2.64936869466947 -3.53745989438944  0.76821406840684
 1  1.47366317301730 -5.03861634413441 -0.22028574607461
 1  2.60504969076908 -5.59777248574857 -1.50265477937794
 1  4.79456387738774 -1.10597664876488  0.68940952715272
 1  5.22711691129113  0.45655009160916  1.86230070077008
 1  4.65005252555256  4.55790625802580 -0.32108209090909
 1  5.62076869966997  3.26155887508751  0.65055157835784
 1  4.49986940434043  4.44084959305930  1.47107841174117
 1  1.99021485348535  4.99746967656766  0.56290607750775
 1 -7.81670444204420 -2.03888988348835  0.79344403840384
 1 -7.56505214951495 -3.59312707860786  1.81850421832183
 1 -7.09808799279928 -3.51660942444244  0.06009759895990
 1 -6.93112045374537 -0.35214554585459  0.16177810571057
 1 -5.06889173097310  1.13449764666467 -1.12940678877888
 1 -6.32291412111211  0.55504313261326 -2.02239891839184
 1 -4.74514300980098 -0.36770992479248 -1.99870108280828
 1 -3.52798267756776  6.40152280808081  0.98703640764076
 1 -4.13630130763076  4.87120625282528  1.07624976277628
 1  0.08324288958896  6.87364932483248  1.94209694219422
 1 -1.28500988428843  7.36235293079308  0.78264752115212
 1  0.24959414701470  6.79642814331433  0.22491882608261
 1 -3.53749404520452  6.10740662376238 -1.73668148424843
 1 -5.23918574167417  6.26213895489549 -0.82599774147415
 1 -4.40835535663566  4.51491298359836 -1.46972671107111
 1  3.73915922242224 -4.32227645784578  1.99932856985699
 1  7.89468671337134 -1.83518417071707  1.46836699929993

