%nproc=4
%Mem=4GB
# td=(NStates=1) B3LYP/SVP 

TD

0 1
 8 -4.70615073587359 -4.73391347254725  1.88797416101610
 8  3.02506310441044 -4.69867441664166  1.40393832563256
 8  7.11141152255226 -1.33064060516052  1.84828504900490
 8  3.94373610641064 -3.12976210141014  0.12499535793579
 8  7.52600135213521 -0.74511589088909 -0.33663323262326
 8 -3.14176450525053  2.38611600910091 -0.02957786238624
 7 -0.29179356105611 -0.51846119591959 -0.61897053325333
 7  1.50252793549355  1.77178955775578 -0.46182784488449
 7 -3.46820376337634 -3.19880892769277  0.67357582888289
 7 -0.81421282418242  2.88064848304830 -0.14002902680268
 6  0.68821005340534 -2.56401183948395 -1.31752383548355
 6  1.00659959375938 -1.13437338843884 -0.96305886118612
 6 -0.69394371947195 -2.68277216661666 -1.19849004840484
 6 -1.30428253445345 -1.48630227212721 -0.71223268916892
 6  3.74295223652365  1.42960744604460 -0.41853807020702
 6  2.53526421942194  0.85674700650065 -0.71282284088409
 6  2.24349135343534 -0.48689483528353 -0.87954019901990
 6  3.59068290519052  2.76155416361636  0.00621984908491
 6  1.70629178167817 -3.54528979477948 -1.75500570157016
 6 -5.68219755495550 -2.58298020762076  1.23628356835684
 6 -3.67855991889189 -1.90637569956996  0.08386217121712
 6  2.14063832403240  2.92588901710171 -0.06705418241824
 6 -5.10379657595760 -1.60564606780678  0.31097973687369
 6  5.10918939703970  0.77238690869087 -0.49118217461746
 6 -2.74550551275127 -1.08122489408941 -0.38116853125313
 6 -1.43168110581058 -3.81931643394339 -1.66143938763876
 6 -4.58891635843584 -3.65137364306431  1.31601071567157
 6  2.11309178517852 -4.56608882858286 -0.72896575237524
 6  5.41136101240124 -0.16067213111311  0.69418752485249
 6  4.59243502970297  3.75375660696070  0.34130631443144
 6  1.31809305070507  4.03816822432243  0.19518963846385
 6 -7.09122025262526 -3.07449482928293  0.79324879097910
 6 -5.76332493499350 -0.51055578547855 -0.20173164756476
 6 -0.05656064506451  3.88365303690369  0.20428905450545
 6 -0.94964592629263  5.13169426242624  0.50387501610161
 6 -2.26635196139614  4.67552367516752  0.44850625352535
 6  3.10614345564556 -4.01276789588959  0.29359075807581
 6 -5.35878053885389  0.54969019761976 -1.29097016401640
 6  6.80909347554756 -0.74929321342134  0.64664778737874
 6 -3.52091785108511  5.36953325152515  0.60962177727773
 6 -2.16514995129513  3.19049124042404  0.04789571437144
 6 -0.46890102760276  6.47292116011601  0.86711180098010
 6 -4.07208574547455  5.91062946784678 -0.80247102280228
 1 -0.41371893679368  0.35925163076308 -0.20216076937694
 1  3.02056607120712 -1.33444544664466 -1.04746425502550
 1  2.64624587548755 -2.94132883978398 -2.36511894659466
 1  1.28838561786179 -4.24625654325433 -2.56462882938294
 1 -5.78567037323732 -2.37255564466447  2.23838599909991
 1  5.08422873307331  0.13915863236324 -1.42097525052505
 1  5.87396936253625  1.57608191749175 -0.52942424202420
 1 -2.71976007170717  0.06843133933393 -0.57429033463346
 1  0.34640097179718  1.64770595359536 -0.47633710581058
 1 -0.98397398859886 -4.81110321452145 -0.96783758945895
 1 -2.62123575327533 -3.78048575057506 -1.48016733693369
 1 -1.44495444654465 -4.14981315571557 -2.75984958795880
 1 -2.40733449124912 -3.47345349374937  0.77538478547855
 1  1.26398220492049 -4.89036151865186 -0.38511222872287
 1  2.66113529932993 -5.35906861536154 -1.39080359425943
 1  4.70573499449945 -1.12504855595560  0.88716930313031
 1  5.47999219881988  0.37874231083108  1.55643011371137
 1  4.46940446074608  4.54097456485649 -0.29403938663866
 1  5.53300992379238  3.36556927612761  0.24770129332933
 1  4.39812923032303  4.21682719081908  1.46819812371237
 1  1.88102393439344  4.94336426602660  0.56408619551955
 1 -7.94190696229623 -2.19056505100510  0.81793648764877
 1 -7.36097174147415 -4.08965673157316  1.36189855775578
 1 -7.04960314431443 -3.30277804130413 -0.43126153695370
 1 -6.87443478517852 -0.18891922322232  0.27667959585959
 1 -4.98759360116012  1.39526372327233 -0.80552440054005
 1 -6.23948577827783  0.78059568786879 -1.95099177767777
 1 -4.62957145264526  0.10479732593259 -2.05226643934393
 1 -3.35397527682768  6.34882753855385  1.19352705670567
 1 -4.44363204070407  4.98256738893889  1.09876201400140
 1  0.05041960726073  6.53631559145915  1.87292002450245
 1 -1.22163354665467  7.25030172567257  1.04878413481348
 1  0.08077726532653  7.00897939843984 -0.01695536133613
 1 -3.63633392919292  6.70432631573157 -1.25304312041204
 1 -5.18295011811181  6.23622636363636 -0.60235537723772
 1 -4.31006552765276  5.11957344964496 -1.59690942934293
 1  3.73523883038304 -4.23806803700370  2.01111974897490
 1  7.89756700140014 -1.81425207750775  1.87584774737474

