%nproc=4
%Mem=4GB
# td=(NStates=1) B3LYP/SVP 

TD

0 1
 8 -4.53766388718872 -4.65493557475748  1.98067343094309
 8  3.08447904600460 -4.73767831703170  1.40117804960496
 8  6.98887926932693 -1.63428096919692  1.68525874637464
 8  3.66373810661066 -2.95859498469847  0.10906376477648
 8  7.69729848184818 -0.53078445774577 -0.05831540084008
 8 -2.98209853865387  2.50164756225623 -0.30242514711471
 7 -0.29266364806481 -0.56431578137814 -0.68118675487549
 7  1.54540222292229  1.86826920572057 -0.39371103320332
 7 -3.43648059105911 -3.12615166196620  0.64987345864586
 7 -0.76496789968997  2.94596501470147 -0.12041706560656
 6  0.68706993939394 -2.47499293759376 -1.32579466256626
 6  0.82365129892989 -1.08378832993299 -1.03805636093609
 6 -0.75698002310231 -2.69076296569657 -1.21874207360736
 6 -1.40464257045705 -1.50017365926593 -0.76761822772277
 6  3.76570451175118  1.37752223752375 -0.44312052845285
 6  2.41434212721272  0.82529386118612 -0.63644520312031
 6  2.18681568586859 -0.45132127792779 -0.92760500550055
 6  3.64760859775978  2.69204721292129 -0.09085985888589
 6  1.61980313281328 -3.44674994079408 -1.86356655765577
 6 -5.60754008920892 -2.59404131373137  1.23287322732273
 6 -3.70429249214921 -1.92620768276828  0.00835462046205
 6  2.20054431463146  3.02387881608161 -0.06383386038604
 6 -5.10087628392839 -1.62820832403240  0.39554819371937
 6  5.12789126722672  0.69573924392439 -0.44816787318732
 6 -2.78160912311231 -1.12735950755075 -0.54099451385139
 6 -1.51717965566557 -3.95529003130313 -1.69257250095009
 6 -4.51706917371737 -3.66932543824382  1.36796591119112
 6  2.05374585058506 -4.50426264596460 -0.75702855865587
 6  5.46203607990799 -0.09963602750275  0.82667077317732
 6  4.62606839303930  3.68954018531853  0.33760594439444
 6  1.42540378177818  4.09520392789279  0.30782090159016
 6 -6.98137926852685 -3.29273665346535  0.96735620172017
 6 -5.82177077957796 -0.61044577447745 -0.18774024842484
 6  0.03503851485149  4.00019469106911  0.30295892149215
 6 -0.94440540224022  5.14610570357036  0.56631125972597
 6 -2.16584191039104  4.66169229202920  0.40082148504850
 6  2.97102994429443 -3.95141176027603  0.33585498449845
 6 -5.52214687548755  0.45779100770077 -1.20367143414341
 6  6.80360292649265 -0.77441572567257  0.69000212281228
 6 -3.52380814011401  5.38259455765577  0.46898771387139
 6 -2.02370580688069  3.25958815011501 -0.11571064626463
 6 -0.49734387188719  6.46087995599560  1.04186927672767
 6 -4.14526306320632  5.78178658355836 -0.88139891559156
 1 -0.69038660356036  0.38728443404340 -0.37388794209421
 1  2.90283429802980 -1.14256625872587 -1.02873238183818
 1  2.46649790069007 -2.88736344324432 -2.18045047974797
 1  1.27323410271027 -4.23020493809381 -2.56408877537754
 1 -5.51133293949395 -2.36827521662166  2.27869002950295
 1  4.91069137933793 -0.00341562506251 -1.29645279827983
 1  5.87500946654665  1.35295960526053 -0.74548584818482
 1 -3.01455955165517  0.08139263546355 -0.60468337393739
 1  0.60493682538254  1.86865804880488 -0.54064353645365
 1 -1.49153474467447 -4.70943304750475 -0.91219202490249
 1 -2.55197882758276 -3.59843754575458 -1.78838815901590
 1 -1.13503345444544 -4.33940211461146 -2.70449405240524
 1 -2.46551030883088 -3.50045619401940  0.71331857885789
 1  1.15174098079808 -5.19698218071807 -0.35967968546855
 1  2.54036322212221 -5.28852156065606 -1.43457797169717
 1  4.62827724872487 -0.81997804890489  1.14662524872487
 1  5.76827102670267  0.68670310691069  1.74791926262626
 1  4.24763228352835  4.68207867526753  0.04420443774377
 1  5.62478910171017  3.47331005020502 -0.32787626442644
 1  4.81894131153115  3.78876438453845  1.65689699359936
 1  1.79238507050705  5.01083101270127  0.66150593749375
 1 -7.78430120172017 -2.46206220072007  1.03459815381538
 1 -7.23018866316632 -4.32407017291729  1.51750411831183
 1 -7.07564574857486 -3.53195095859586 -0.06894530533053
 1 -6.99092643434343 -0.70623095439544  0.10623255115512
 1 -4.53429827162716  1.25034923182318 -0.88050189828983
 1 -6.45850768046805  0.96467409570957 -1.42148882738274
 1 -4.99903839933993 -0.11718487228723 -2.10209142184218
 1 -3.52913279257926  6.12309496529653  1.20820852485248
 1 -4.31119879737974  4.49554868706871  0.78759089688969
 1  0.20406497179718  6.48069002890289  1.95920865336534
 1 -1.41828321162116  7.02729942544254  1.36052530893089
 1 -0.05020583298330  7.18064656515651  0.25031136533653
 1 -3.41078137393739  6.26332221532153 -1.48172598869887
 1 -4.95053687678768  6.40350309130913 -1.07525266696670
 1 -4.81636615771577  4.85269676197620 -1.42509224762476
 1  3.86654196069607 -4.35950018021802  2.12756139313931
 1  7.90820806550655 -1.83498415071507  1.67810797339734

