%nproc=4
%Mem=4GB
# td=(NStates=1) B3LYP/SVP 

TD

0 1
 8 -4.51804192499250 -4.68092817401740  1.95982134573457
 8  3.13009360746075 -5.02708725792579  1.19424735653565
 8  6.99884026542654 -1.49972751385139  1.76783700420042
 8  3.74272600540054 -3.08737786298630  0.08739159755976
 8  7.57266601860186 -0.56705808510851 -0.13785335463546
 8 -3.04710503930393  2.51944934243424 -0.28585348994899
 7 -0.29236361806181 -0.61437078687869 -0.63849248544854
 7  1.56839452215222  1.74913729252925 -0.28625028712871
 7 -3.42446938993899 -3.06979602640264  0.64212268356836
 7 -0.75527693059306  2.96355677387739 -0.10573559745975
 6  0.64978621102110 -2.52964840314031 -1.22887497059706
 6  0.94267320112011 -1.19707965906591 -0.96607916321632
 6 -0.72769709480948 -2.80716460586059 -1.15059525892589
 6 -1.30811291749175 -1.51754539643964 -0.76558802470247
 6  3.77543548484848  1.37770225552555 -0.35122133853385
 6  2.50318101110111  0.86468780058006 -0.63845540414041
 6  2.24035103940394 -0.50973711951195 -0.87395964096410
 6  3.56644048094809  2.75929393759376 -0.00582135503550
 6  1.63024417691769 -3.51245651145115 -1.88947914891489
 6 -5.66076541174117 -2.50172208180818  1.29785972597260
 6 -3.66889895279528 -1.83525858785879  0.07501128612861
 6  2.05680994119412  2.94440086828683 -0.01588906590659
 6 -5.12984918121812 -1.49962546574657  0.28356699559956
 6  5.09851832993299  0.68721839183918 -0.41612466886689
 6 -2.78121908410841 -1.04211098269827 -0.47713812821282
 6 -1.37691562926293 -3.93989849214922 -1.65362860656066
 6 -4.50055752255226 -3.60306881258126  1.36055517011701
 6  2.19458993499350 -4.55848806850685 -0.88066092189219
 6  5.44737461376138 -0.19720578447845  0.81288939503950
 6  4.54479026522652  3.82681391269127  0.29083126692669
 6  1.33175441684168  4.15329973747375  0.26865698519852
 6 -7.03915504610461 -2.94072145194519  0.98873833993399
 6 -5.80590919341934 -0.58720345024502 -0.13447492189219
 6 -0.01863685268527  4.04712938453845  0.29138776437644
 6 -0.98586954865487  5.23490458345835  0.50367499609961
 6 -2.19874520072007  4.68878500130013  0.33832523542354
 6  3.08192103340334 -4.12065868496850  0.15054645364536
 6 -5.45476013681368  0.39760498909891 -1.32168323532353
 6  6.78328089428943 -0.77136542064206  0.75496861946195
 6 -3.56149190849085  5.28131442964296  0.51642245734573
 6 -2.10016345264526  3.35986817811781 -0.07918699389939
 6 -0.44476861436144  6.67708157615762  0.90122521232123
 6 -4.36876541344134  5.61775017991799 -0.77900867656766
 1 -0.41085865076508  0.19919562516252 -0.06396694999500
 1  3.00773478807881 -1.18977097919792 -1.13342285088509
 1  2.48979022992299 -3.00589529642964 -2.22342477717772
 1  1.21047782708271 -4.00616253385339 -2.64479684618462
 1 -5.68240004620462 -2.06488487758776  2.26356851735174
 1  5.23773408360836  0.14897961446145 -1.32320547354736
 1  5.87872983858386  1.55407971727173 -0.51894319391939
 1 -2.95316341204120 -0.01961746554655 -0.96416932253225
 1  0.52392872457246  1.66051723472347 -0.42271174327433
 1 -1.58836442764276 -4.64732683688369 -0.82111291699170
 1 -2.53458708840884 -3.66625432743274 -2.06258557875788
 1 -0.75359531063106 -4.57665583998400 -2.42634623762376
 1 -2.53650740854085 -3.47246339473947  0.78141538853885
 1  1.41909771647165 -5.28563104560456 -0.48546226372637
 1  2.80022920872087 -5.16748945744574 -1.41549606350635
 1  4.59701412241224 -0.83656970807081  1.15222580878088
 1  5.57055125472547  0.41295573217322  1.81305577627763
 1  4.54524204450445  4.65711617901790 -0.47555753845385
 1  5.77348397119712  3.50581330053005  0.23488001120112
 1  4.51508092549255  4.39391489958996  1.20904220812081
 1  2.01638747074707  4.87154708430843  0.68321810871087
 1 -7.72983575517552 -2.03737973247325  1.20321501550155
 1 -7.31164680898090 -3.96299406530653  1.57641000890089
 1 -7.19546773077308 -3.34992275577558  0.04167575677568
 1 -6.81124846654665 -0.53544387568757  0.17402933083308
 1 -4.89927476927693  1.21711590849085 -1.17842169026903
 1 -6.40352218191819  0.71127875617562 -1.73804048254825
 1 -5.05442393789379 -0.00683383718372 -2.37203841654165
 1 -3.52137201650165  6.29691234703470  0.94268197219722
 1 -4.14686236373637  4.73745287748775  1.33870600840084
 1  0.07672223752375  6.71927388728873  1.78283101560156
 1 -1.32830421372137  7.23302999849985  1.19938919531953
 1  0.10214940254025  7.26219471997200  0.05584191839184
 1 -3.51089138493849  6.05542142524252 -1.43356117221722
 1 -5.44256607970797  6.24453719471947 -0.85288042974297
 1 -4.59579410051005  4.71399289158916 -1.23748348674867
 1  3.77589289578958 -4.45274950515052  1.94016265326533
 1  7.78388563326333 -1.97729838213821  1.78736889948995

