%nproc=4
%Mem=4GB
# td=(NStates=1) B3LYP/SVP 

TD

0 1
 8 -4.48437855865587 -4.79340942214221  1.77392275587559
 8  3.09276987508751 -4.77839238843884  1.39547747954795
 8  6.79732011341134 -1.50035757685769  1.79479970047005
 8  3.71918365116512 -3.07812693789379  0.17265012341234
 8  7.50696944894489 -0.76364774407441 -0.23378294759476
 8 -2.99526985578558  2.58023542104210 -0.29328423302330
 7 -0.33308769046905 -0.54000335013501 -0.68507714391439
 7  1.59170685338534  1.78463084188419 -0.46392805490549
 7 -3.42347929092909 -3.22642168896890  0.65124359565957
 7 -0.71300270317032  2.96263668186819 -0.24636966086609
 6  0.70184141654165 -2.54169960826083 -1.27110919401940
 6  0.89418835263526 -1.12157210831083 -1.03211576687669
 6 -0.69311363646365 -2.72882677207721 -1.19692989238924
 6 -1.32064417061706 -1.45694933683368 -0.84453591949195
 6  3.78942688398840  1.52038652395240 -0.30729694609461
 6  2.47660835383538  0.83903523532353 -0.59792135073507
 6  2.22347935223522 -0.47995414121412 -0.91667391239124
 6  3.54053789068907  2.76501450965097  0.00535976307631
 6  1.75443659615962 -3.51553681948195 -1.80960116111611
 6 -5.60780011521152 -2.66010792039204  1.22674261426143
 6 -3.68700076297630 -1.90763582558256  0.08685247024702
 6  2.11367562776278  2.93386981518152 -0.01476895389539
 6 -5.00521671797180 -1.50449595279528  0.34638327722772
 6  5.09143762186219  0.78885855585559 -0.48031108750875
 6 -2.66044700690069 -1.16547331893189 -0.55176559095910
 6 -1.51627956565657 -3.97308181048105 -1.65189843354335
 6 -4.50066753355336 -3.71343984968497  1.21662077667767
 6  2.05013548954896 -4.53271549124912 -0.75100795659566
 6  5.30212008830883 -0.20822688658866  0.81799990609061
 6  4.70884667086709  3.76385761706171  0.29363154695470
 6  1.40063130453045  4.03160756825683  0.21642176167617
 6 -6.90925205580558 -3.29472685248525  1.03689315541554
 6 -5.79818842134213 -0.48675340524052 -0.06512798719872
 6 -0.05731072007201  4.10724539613961  0.21525015061506
 6 -1.00453141484148  5.22937403040304  0.50606523512351
 6 -2.26299162536254  4.75077119991999  0.43220462336234
 6  2.88266110741074 -3.99004562366237  0.34331573057306
 6 -5.43841850265026  0.58958418701870 -1.06064713171317
 6  6.73379594579458 -0.80892917701770  0.68388151075107
 6 -3.55641140044004  5.47846414461446  0.60291110621062
 6 -2.08963239953995  3.24315650695070 -0.06703577877788
 6 -0.53037717521752  6.58581244924492  0.89195428522852
 6 -4.12475101200120  5.76133453835384 -0.81815259095910
 1 -0.48315588048805  0.34933063866387 -0.39299985328533
 1  2.85032904750475 -1.45717771987199 -0.87197670627063
 1  2.87870912181218 -3.09343405030503 -2.08178061276128
 1  1.54701148044804 -3.70700261786179 -2.78937130363036
 1 -5.49479128532853 -2.43955234433443  2.28149030953095
 1  5.31701201140114  0.37257197369737 -1.53685683868387
 1  6.00349231483148  1.58412272157216 -0.46476777637764
 1 -2.89412750845085 -0.15726122992299 -0.55749865546555
 1  0.52803913561356  2.00134131713171 -0.64404387648765
 1 -1.39104469566957 -4.76903900810081 -0.86515732143214
 1 -2.59192282198220 -3.66859456145615 -1.80649997019702
 1 -1.23211316241624 -4.59013718811881 -2.68537214021402
 1 -2.37895165296530 -3.63729987838784  0.70623787078708
 1  1.36462226892689 -5.26134861736174 -0.39478319581958
 1  2.66358554435444 -5.43212592109211 -1.21181569546955
 1  4.40831525252525 -0.84400045114511  1.11487207340734
 1  5.54604880448045  0.47579201580158  1.67838230893089
 1  4.51976949724973  4.58979944734473 -0.51714169686969
 1  5.62505912871287  3.21431415061506  0.43359988318832
 1  4.50902031943194  4.26293180128013  1.35172647654765
 1  1.78818465046505  5.09781971157116  0.46784657155716
 1 -7.99623239483948 -2.73781977647765  1.33579827382738
 1 -6.69533517781778 -4.13463122902290  1.73934630253025
 1 -6.94171235523552 -3.80856862036204 -0.09433784458446
 1 -6.81058840054005 -0.53261359265927  0.31439336723672
 1 -5.09288413021302  1.61974617151715 -0.63258710681068
 1 -6.29179100880088  0.78429605790579 -1.63092977147715
 1 -4.64643313881388  0.18802564876488 -1.61494270697070
 1 -3.43450332963296  6.34835749154915  1.21937964196420
 1 -4.35922359985999  4.81942107430743  1.18290042784278
 1  0.29464402970297  6.63511547144714  1.70551328382838
 1 -1.22851423472347  7.38968566406641  1.02196145254525
 1  0.12601178877888  7.13168166866687  0.11432776697670
 1 -3.57716801260126  6.44194007710771 -1.48893670977098
 1 -5.10461228432843  6.06317905890589 -0.58697383908391
 1 -4.13429795089509  4.83505499779978 -1.27199693809381
 1  3.57914322082208 -4.21173540374037  1.82859149614962
 1  7.59077632233223 -2.00023067536754  1.73341350395040

