%nproc=4
%Mem=4GB
# td=(NStates=1) B3LYP/SVP 

TD

0 1
 8 -4.56927704850485 -4.79536961816182  1.99153451705170
 8  2.81317191529153 -4.82076662586259  1.27690562236224
 8  7.19329971137114 -1.41769931103110  1.81967218771877
 8  3.75120685348535 -3.19690881608161  0.14074693309331
 8  7.56776552855286 -0.68482986228623 -0.24383395269527
 8 -3.00570089888989  2.47966536403640 -0.08435333993399
 7 -0.27960234193419 -0.61135048484848 -0.53164180038004
 7  1.44424210691069  1.77635001380138 -0.39738140024002
 7 -3.52085902890289 -3.26896594339434  0.58027649894989
 7 -0.72219362226223  2.97159757795780 -0.00386541044104
 6  0.59955118751875 -2.49476491479148 -1.32447453055306
 6  0.88331726552655 -1.18818876997700 -0.85299785508551
 6 -0.79245357045705 -2.70860474987499 -1.29982018141814
 6 -1.32271437763776 -1.50418406030603 -0.70648211411141
 6  3.74407234853485  1.45877036233623 -0.36914313071307
 6  2.42775346834683  0.81321265306531 -0.61713327192719
 6  2.19744674897490 -0.55171131693169 -0.79353159815982
 6  3.57383122002200  2.69418742694269 -0.13336410931093
 6  1.66747790029003 -3.39600486628663 -1.89680988198820
 6 -5.67263659885989 -2.63936584618462  1.22521246124612
 6 -3.61765382828283 -1.86617167916792  0.12683646864686
 6  2.09598385858586  2.93037946614661 -0.00045752275228
 6 -5.08599479577958 -1.48426392959296  0.35090372927293
 6  5.12983146124613  0.68696836683668 -0.41331438783878
 6 -2.65433639583958 -1.05566233783378 -0.53231364576458
 6 -1.39492743044304 -3.97369187148715 -1.78528177187719
 6 -4.54854232103210 -3.75672417811781  1.27865698029803
 6  2.11512198819882 -4.49598181788179 -0.87809066486649
 6  5.44530440674067 -0.05752181608161  0.82401050715072
 6  4.51793757995800  3.82957418871887  0.27185936973697
 6  1.36038728012801  4.13681808930893  0.30773089258926
 6 -7.09740087068707 -3.20885826562656  1.03409287538754
 6 -5.75238384088409 -0.56871160106011 -0.24066554095410
 6 -0.03296828582858  4.12631730333033  0.27012563816382
 6 -0.89439040074007  5.24862595559556  0.50535516411641
 6 -2.09174450065007  4.82986910971097  0.34576597949795
 6  2.94370721202120 -4.08764538363836  0.26326772577258
 6 -5.35030969176918  0.49086431503150 -1.25292635963596
 6  6.87082964916492 -0.70489877397740  0.73656677927793
 6 -3.54159991929193  5.47610390859086  0.48198901400140
 6 -2.03217665396540  3.29104129542954  0.04668559335934
 6 -0.39290342784278  6.61126499449945  0.76660174997500
 6 -4.34224276117612  5.66172457735774 -0.85224600030003
 1 -0.30960852575258  0.26790249584959  0.12694214091409
 1  3.23498751335134 -1.28314031613161 -0.91135064366437
 1  2.58707995889589 -2.64485919281928 -1.88153058775878
 1  1.53278005730573 -3.80106202380238 -2.98422078857886
 1 -5.59439124532453 -2.46329471857186  2.20975313581358
 1  5.18760907110711  0.15728044454445 -1.38984213721372
 1  5.88719068466847  1.65974028332833 -0.65102640224022
 1 -2.87197529322932  0.13721821802180 -0.51098400400040
 1  0.30899723142314  1.68018920192019 -0.42393186528653
 1 -1.38671426262626 -4.88107021122112 -1.17548835453545
 1 -2.52522615231523 -3.83591129312931 -1.99561888208821
 1 -0.95694564566457 -4.29340751515152 -2.65353895689569
 1 -2.77648140594059 -3.87141328972897  0.49106635363536
 1  1.42751855855586 -5.08345082758276 -0.30105382288229
 1  2.55703488928893 -5.22364507300730 -1.47377189108911
 1  4.62374679567957 -0.90715676677668  1.01834242044204
 1  5.61845604520452  0.78119255585559  1.74358882958296
 1  4.30803832413241  4.91207167456746 -0.24726470917092
 1  5.69390601340134  3.76602932213221 -0.14183766056606
 1  4.59048846624662  3.96852236033603  1.52116342024202
 1  1.79363519551955  5.03499342894289  0.55823561046105
 1 -7.79522229382938 -2.37998399289929  0.99876457045705
 1 -7.27150279457946 -3.84838260416042  1.92475484338434
 1 -7.04219240324032 -4.02527029052905  0.03970555975598
 1 -6.75618295999600 -0.52830316161616 -0.05074314641464
 1 -4.89318416021602  1.32160635753575 -0.97516136423642
 1 -6.22391422112211  0.89139676797680 -1.83151983048305
 1 -4.61586008150815 -0.14177733153315 -1.98332954565457
 1 -3.35401528082808  6.43225588138814  0.87837554155415
 1 -4.19040671817182  4.79283841604160  1.19463160096010
 1  0.19719428472847  6.89978193809381  1.69558229072907
 1 -1.08545992929293  7.44181087658766  0.79755901230123
 1  0.42875206280628  7.02240074057406  0.10573690789079
 1 -3.63665396119612  6.28690457355736 -1.67753556965697
 1 -5.07290911401140  6.31304404540454 -0.85015015671567
 1 -4.52061658275828  4.45441693399340 -1.21161089948995
 1  3.37914322082208 -4.66596082628263  2.07285592259226
 1  8.08778602330233 -1.86586723902390  1.72102226482648

