%nproc=4
%Mem=4GB
# td=(NStates=1) B3LYP/SVP 

TD

0 1
 8 -4.42393251405141 -4.62748282948295  2.04527989158916
 8  3.09699029712971 -4.77614216341634  1.28106603840384
 8  6.98077845924592 -1.55986352745275  1.75215543604360
 8  3.87149888268827 -3.10845997119712 -0.11274841644164
 8  7.56981573357336 -0.84803618291829 -0.25987555685569
 8 -3.06582691149115  2.52098949644964 -0.33510841544154
 7 -0.25478986068607 -0.62194154395440 -0.56175481168117
 7  1.55097277997800  1.80769314811481 -0.24873653575358
 7 -3.46284322732273 -3.14198324512451  0.66541501280128
 7 -0.77265866876688  2.96732715091509 -0.04302932683268
 6  0.74205543794379 -2.47180261856186 -1.34874695779578
 6  0.91887082088209 -1.17931788288829 -0.85469802510251
 6 -0.71044536963696 -2.76687057645765 -1.23638383778378
 6 -1.28967107330733 -1.46863050495050 -0.69580104600460
 6  3.77714565586559  1.46708119341934 -0.32848906530653
 6  2.53664435743574  0.79947127892789 -0.45250680928093
 6  2.12109911421142 -0.48278442424242 -0.81389363436344
 6  3.49880371727173  2.74299230743074  0.10884011111111
 6  1.77973912641264 -3.38656392219222 -1.87909811081108
 6 -5.65432476767677 -2.56870878047805  1.35996593659366
 6 -3.64222628552855 -1.91342640464046  0.04051783678368
 6  2.09362362256226  2.95159158735874  0.04314683768377
 6 -5.16623281958196 -1.57875337853785  0.26542518141814
 6  5.03468194629463  0.69674934493449 -0.40077313371337
 6 -2.72519348154815 -1.12289906150615 -0.50610102450245
 6 -1.41681961966197 -3.98595309760976 -1.61516476017602
 6 -4.58324579137914 -3.59132763846385  1.41284039863986
 6  2.12489296529653 -4.53585580528053 -0.91449430523052
 6  5.43391326762676 -0.06858292219222  0.79127723382338
 6  4.50515630183018  3.71922315361536  0.56845902970297
 6  1.34159540094009  4.06926133363336  0.39680980048005
 6 -7.04799593019302 -3.12799017881788  1.27072653875388
 6 -5.79971857435744 -0.47246197609761 -0.31453292769277
 6 -0.07700268926893  4.02327699929993  0.23946257185719
 6 -0.95090605230523  5.17292838583858  0.53987861646165
 6 -2.26424175037504  4.75976209900990  0.29041044394439
 6  3.14307714901490 -4.08902552165217  0.00561196019602
 6 -5.44808946974697  0.45307053565357 -1.40136120312031
 6  6.80191275747575 -0.77143542764276  0.66199932253225
 6 -3.60129588888889  5.46461275947595  0.31680249534953
 6 -2.13869730603060  3.30430262156216 -0.11593066826683
 6 -0.48577271477148  6.55780964896490  0.89852494229423
 6 -4.22175071197120  5.76730513541354 -0.97146792249225
 1 -0.38194575947595  0.23761946754675 -0.16373692699270
 1  2.98455246984699 -1.11378338043804 -0.96119562816282
 1  2.62975422632263 -2.90599530643064 -2.17018945364537
 1  1.44361114041404 -3.85128704630463 -2.82735510201020
 1 -5.64974678087809 -2.12492088118812  2.44024618511851
 1  5.11229153935394  0.08481319781978 -1.35569872287229
 1  5.85883784938494  1.43901821112111 -0.62738403800380
 1 -2.94680277597760 -0.11087659145915 -0.82152505810581
 1  0.59937626932693  1.92702388538854 -0.46495596769677
 1 -1.40699629082908 -4.77740984518452 -0.97053785948595
 1 -2.54904853455346 -3.84517221922192 -2.00752007220722
 1 -0.96060601170117 -4.44207238163816 -2.43916751975198
 1 -2.65205896369637 -3.60862701110111  0.57278452545255
 1  1.28077388408841 -4.78215069756976 -0.31591530903090
 1  2.41895108090809 -5.47592030053005 -1.48845335923592
 1  4.67315173617362 -0.98263431453145  0.89911049724973
 1  5.48911311091109  0.43168760536054  1.63766823752375
 1  4.16637415771577  4.68921938933893 -0.06456643934393
 1  5.56305292809281  3.49476219541954  0.26342286548655
 1  4.54357377477748  3.92074758285829  1.55330663456346
 1  1.77447327932793  5.11696162576258  0.65855564246425
 1 -7.91875464706471 -2.34852084658466  1.26375106910691
 1 -7.18824446874688 -3.84750251615162  2.26947931583158
 1 -7.29658784278428 -3.86560432393239  0.27925951515152
 1 -6.94898223992399 -0.22359269056906  0.01764369226923
 1 -4.91006584838484  1.41033523042304 -1.17713156125613
 1 -6.24570640034003  0.63761138943894 -1.93787046554655
 1 -4.67268576407641 -0.03709686348635 -2.06826803950395
 1 -3.49753963326333  6.23996665246525  1.07227493149315
 1 -4.31808948644865  4.54817394959496  0.79820195799580
 1  0.14407897319732  6.48116007590759  1.97273000550055
 1 -1.24014539783978  7.32296899239924  1.21064032043204
 1  0.30604979257926  6.99941844234423  0.16587292149215
 1 -3.50640093589359  6.46064194729473 -1.51156897299730
 1 -5.06335815891589  6.21027376837684 -1.07846298799880
 1 -4.54706922802280  4.79347083938394 -1.56397613601360
 1  3.84570987748775 -4.73250748094809  1.86586522352235
 1  7.76135338003800 -2.00580123242324  1.56332649524952

