%nproc=4
%Mem=4GB
# td=(NStates=1) B3LYP/SVP 

TD

0 1
 8 -4.54824494529453 -4.74997507870787  1.96339170277028
 8  3.08613921202120 -4.76490103930393  1.23128105990599
 8  6.92790317171717 -1.31628917001700  2.11775199569957
 8  3.87471920472047 -3.17206633183318 -0.06786392799280
 8  7.50184893689369 -0.83138451775178 -0.10753032233223
 8 -2.96066639543954  2.41716911441144 -0.27415231983198
 7 -0.37543192489249 -0.59951930173017 -0.61223986018602
 7  1.56855453815382  1.82025440424042 -0.46353801590159
 7 -3.43808075107511 -3.09208825562556  0.67444591589159
 7 -0.67157856075608  2.92832325052505 -0.16334135803580
 6  0.55684691709171 -2.44362980128013 -1.27546963006301
 6  0.87844677847785 -1.09496944804480 -0.90046260156016
 6 -0.77693201830183 -2.63135702510251 -1.17469766916692
 6 -1.29861196739674 -1.54345798769877 -0.67094856075608
 6  3.76609455075508  1.46144062936294 -0.47453366976698
 6  2.54109480248025  0.81860319211921 -0.77791935053505
 6  2.20034703900390 -0.53236938273827 -0.84497674267427
 6  3.52543638053805  2.79643765196520 -0.07609838273827
 6  1.53538469096910 -3.46044130993099 -1.93437363836384
 6 -5.62986232143214 -2.59784169376938  1.33575351535154
 6 -3.64533659655966 -1.77523258525853  0.08999278427843
 6  2.13797805800580  2.95774220242024 -0.14820229722972
 6 -5.08501469776978 -1.52468797199720  0.35397403630363
 6  5.15682416051605  0.67919758975898 -0.49567262366237
 6 -2.66383734593459 -1.03581035263526 -0.52448286268627
 6 -1.40709864756476 -3.88772327462746 -1.64034727842784
 6 -4.56865433223322 -3.72373087878788  1.30721983658366
 6  2.01123159915992 -4.50398261796180 -0.91701455725573
 6  5.41426130243024 -0.08774483838384  0.79236734283428
 6  4.59681546774677  3.74355558685869  0.46015819961996
 6  1.37775901730173  4.09396380388039  0.16251637113711
 6 -7.05253638423842 -3.12312969276928  0.89914938103810
 6 -5.85909451195120 -0.52533726362636 -0.02946442084208
 6 -0.03341833083308  4.01723639523952  0.12227085268527
 6 -0.99680064176418  5.11593268626863  0.44730935953595
 6 -2.26167149334933  4.65157127992799  0.39196059895990
 6  3.09341218251825 -4.11597821692169  0.12999439843984
 6 -5.28264292509251  0.54745997459746 -1.07294836183618
 6  6.80775334153415 -0.70265854995500  0.88557167976798
 6 -3.53604936423642  5.36111240944094  0.54985580068007
 6 -2.08995243154315  3.18427061836184 -0.09704878007801
 6 -0.42929706720672  6.51762563056306  0.91076616641664
 6 -4.26949548644864  5.63972237713771 -0.78432920862086
 1 -0.29234679957996  0.23337904350435 -0.06113666696670
 1  3.01955597019702 -1.19472147424743 -1.40001951055105
 1  2.48351960286029 -2.81161586848685 -2.14642707740774
 1  1.18933571287129 -4.05768768636864 -2.92388475497550
 1 -5.50803260946095 -2.41917030613061  2.38338049854985
 1  5.12233254345434 -0.25040032353235 -1.34872802580258
 1  5.89714167976798  1.43178748804880 -0.77794909450945
 1 -2.63948204390439  0.01670616681668 -0.76053895949595
 1  0.51536786848685  1.92467365036504 -0.68186765886589
 1 -0.93982957415742 -4.91075317951795 -0.95575638133813
 1 -2.59787341704170 -3.84038174017402 -1.61507082728273
 1 -1.30149010011001 -4.14589276367637 -2.71095469846985
 1 -2.42761651945194 -3.40570671907191  0.43815106210621
 1  1.26957276397640 -4.98544102660266 -0.21532525002500
 1  2.53118230403040 -5.31477418591859 -1.28960347424742
 1  4.64399882088209 -0.84256030713071  0.70483106930693
 1  5.30898509810981  0.54827926452645  1.78277274797480
 1  4.41017853815382  4.79827029442944 -0.01264124682468
 1  5.69891651445145  3.67139985918592  0.35123164636464
 1  4.52584200160016  3.68710421852185  1.59400070397040
 1  1.81832766476648  5.03990391999200  0.69608939583958
 1 -7.90592336393639 -2.31591758625863  1.02277697169717
 1 -7.46121176547655 -4.07110487638764  1.43523589148915
 1 -7.09336752075207 -3.56188395189519 -0.09617802860286
 1 -6.91446878857886 -0.42916324762476  0.04352628052805
 1 -4.71309615141514  1.32728692559256 -0.44876872497250
 1 -6.29234106380638  0.83384101240124 -1.64408108660866
 1 -4.67246574207421  0.03118996519652 -1.78954016671667
 1 -3.37476735603560  6.25389804560456  1.19150685468547
 1 -3.97805548304830  4.53525265746575  1.19271140894089
 1  0.38020258555856  6.51972393229323  1.69097182968297
 1 -1.24806618991899  7.19047574307431  1.27192644904490
 1 -0.03321413381338  7.05951445194519 -0.00467413321332
 1 -3.81134142994299  6.62255813891389 -1.38404622072207
 1 -5.23762558565857  6.00023276427643 -0.56461160286028
 1 -4.18264278537854  4.73162465476548 -1.26911665006501
 1  3.75381068756876 -4.21981621182118  1.74893353035304
 1  7.79466671137114 -1.67827848014802  1.97710787338734

