%nproc=4
%Mem=4GB
# td=(NStates=1) B3LYP/SVP 

TD

0 1
 8 -4.58844896569657 -4.66178625982598  1.84017938153815
 8  3.10298089618962 -4.99161371057106  1.16568450025003
 8  7.13456383778378 -1.38410595169517  1.93415363586359
 8  3.74436616941694 -3.22549167436744 -0.02042918451845
 8  7.65158391039104 -0.48600998029803 -0.07270683998400
 8 -2.97022735153515  2.45658305580558 -0.20379528412841
 7 -0.31223560526053 -0.59292864266427 -0.78530716691669
 7  1.51927961066107  1.75387776657666 -0.38260992309231
 7 -3.48294523752375 -3.17404645144514  0.61746021732173
 7 -0.73371477437744  2.93495391359136 -0.10488551245125
 6  0.66029726212621 -2.48393383168317 -1.37687977107711
 6  0.94882381618162 -1.14643459455946 -1.00304285958596
 6 -0.73997832293229 -2.63874776417642 -1.30672087148715
 6 -1.35203730993099 -1.51221486338634 -0.81915338123812
 6  3.80293823512351  1.43502798809881 -0.30489670607061
 6  2.50523121612161  0.78860019181918 -0.60370192879288
 6  2.19241624592459 -0.52375852165217 -0.91750399539954
 6  3.55001883878388  2.72970097829783  0.07689691679168
 6  1.62004315681568 -3.49677494329433 -1.93845404640464
 6 -5.58483781898190 -2.50904281388139  1.48647858785879
 6 -3.66647871077108 -1.86251131313131  0.18060184518452
 6  2.05104936513651  3.02819924812481 -0.02390986798680
 6 -5.09687588388839 -1.45125062826283  0.44556319521952
 6  5.01549002710271  0.60920059005901 -0.34777783418342
 6 -2.66184714691469 -1.08124489608961 -0.49697011141114
 6 -1.63357129482948 -3.85336983928393 -1.77969121282128
 6 -4.63593105990599 -3.66231473717372  1.34590370497050
 6  2.10290076607661 -4.54116633633363 -0.91589444524452
 6  5.39134901120112 -0.07710377427743  0.88430653675368
 6  4.35453123932393  3.80328155945595  0.59973215701570
 6  1.34219546094609  4.13222763026303  0.25869598909891
 6 -6.91208233883388 -3.06774415421542  1.30078954505451
 6 -5.81680028252825 -0.57256198609861 -0.11376285068507
 6 -0.00425541454145  4.07752242384238  0.14975360096010
 6 -0.94992595429543  5.19562065506551  0.45323995259526
 6 -2.16900222642264  4.72546866966697  0.32577398029803
 6  3.05678852015202 -4.18388500760076  0.13673507250725
 6 -5.44964962576258  0.39064429302930 -1.23693476047605
 6  6.83521608780878 -0.63851213531353  0.82609573217322
 6 -3.51555731503150  5.35795209340934  0.44352516761676
 6 -2.03734717101710  3.22723491479148 -0.06146522172217
 6 -0.44725886338634  6.55171903990399  0.74572966276628
 6 -4.15451398829883  5.69502790769077 -0.98124890059006
 1 -0.43425098999900  0.37199290489049 -0.40274082738274
 1  3.04074808940894 -1.22599460156016 -1.18509801840184
 1  2.63016426732673 -3.24449915681568 -2.21515395009501
 1  1.36287306660666 -4.01708362596260 -2.81036340284028
 1 -5.52835464166417 -2.24986337543754  2.53127528802880
 1  4.88923923412341  0.08065278177818 -1.27001015401540
 1  5.85147711331133  1.35257956725673 -0.53653495309531
 1 -2.76428452415242 -0.06010151395140 -0.51602450805080
 1  0.56749308100810  1.87104828782878 -0.58990846294629
 1 -1.92636822802280 -4.76173827802780 -1.16785759145915
 1 -2.46980060976098 -3.31350905290529 -2.53908322852285
 1 -1.18089804090409 -4.28318649304931 -2.64383798679868
 1 -2.75160891869187 -3.66639278767877  0.68549579657966
 1  1.20836664336434 -5.39775225772577 -0.67899161666167
 1  2.71401058685869 -5.38729143764376 -1.22832734663466
 1  4.77059148014802 -0.98530458155816  0.95176576277628
 1  5.20609480908091  0.52090652725273  1.75565003570357
 1  4.27614513481348  4.74202466986699 -0.04394437713771
 1  5.54150077287729  3.51592431163116  0.23487001020102
 1  4.36712613001300  4.08484399249925  1.69562086598660
 1  1.79988582058206  5.15926585618562  0.64628441534153
 1 -7.74267703930393 -2.47358335283528  1.72025671967197
 1 -7.18020366466647 -3.81820958685869  2.08565093299330
 1 -7.14888307230723 -3.47915567906791  0.28140973017302
 1 -6.79787712941294 -0.62909324062406  0.19702163006301
 1 -4.81106594839484  1.24522871977198 -0.82101594969497
 1 -6.27493932363236  0.77958558685869 -1.66451312981298
 1 -4.76561505700570 -0.04877803160316 -1.88422963566357
 1 -3.60036991629163  6.22123477927793  0.97325502950295
 1 -3.96154383188319  4.63330246244625  1.04011614941494
 1  0.25743030833083  6.64755671557156  1.53314604710471
 1 -1.34768615191519  7.01827852335233  1.37289654605461
 1 -0.06435724812481  7.09758825932593 -0.08192185798580
 1 -3.66221651745175  6.54867075017502 -1.22864068016802
 1 -5.16027785088509  5.90416315731573 -0.95688082978298
 1 -3.94092861396139  4.80030152245225 -1.54932467086709
 1  3.78511381788179 -4.80464469466947  1.74892352935294
 1  8.05404264896490 -1.98243889618962  1.73660382298230

