%nproc=4
%Mem=4GB
# td=(NStates=1) B3LYP/SVP 

TD

0 1
 8 -4.47729785058506 -4.72033211441144  1.99183454705471
 8  3.19443004110411 -4.99324387358736  1.14714264606461
 8  6.97410779217922 -1.44671221232123  2.02121234173417
 8  3.72682441524152 -3.07555668086809  0.12142500090009
 8  7.41950070207021 -0.86101748104810 -0.11229079837984
 8 -2.93036336513651  2.44943234073407 -0.18768367296730
 7 -0.32995737743774 -0.55595494529453 -0.57729636583658
 7  1.48989667236724  1.90686306510651 -0.51512317441744
 7 -3.41643858685869 -3.13590263706371  0.61271974327433
 7 -0.70451185408541  2.86122654085409 -0.15825084898490
 6  0.55827706010601 -2.46158159645965 -1.40026210931093
 6  0.89437837163716 -1.16880683178318 -0.91626418171817
 6 -0.78539286438644 -2.63855774517452 -1.20673087248725
 6 -1.37186929312931 -1.45733937583758 -0.69552101800180
 6  3.84075201650165  1.44279876517652 -0.39321553795380
 6  2.48006869986999  0.83783511531153 -0.66478803740374
 6  2.17662466676668 -0.50081622742274 -0.81267351235124
 6  3.65209904680468  2.78134614281428 -0.08787956085609
 6  1.60748190069007 -3.47937320312031 -1.93293349434943
 6 -5.59246858205821 -2.57023893349335  1.41445138513851
 6 -3.65067713061306 -1.79458452045205  0.22169595459546
 6  2.15554981518152  3.02261869006901 -0.11106858385839
 6 -5.08987518381838 -1.53769927312731  0.39848848774877
 6  5.16911538963896  0.73961363136314 -0.31695475187519
 6 -2.76055701790179 -0.96200297189719 -0.39215963036304
 6 -1.58118605630563 -3.67713221552155 -1.81361460516052
 6 -4.45527299409941 -3.61788029372937  1.42750186478648
 6  1.96688716471647 -4.57239945964596 -0.96399925572557
 6  5.39744962126213  0.01516545264526  1.01213932003200
 6  4.60907669386939  3.79952118341834  0.30557274107411
 6  1.39474071547155  4.19216362386239  0.10087020652065
 6 -6.85055618621862 -3.31852923272327  0.89261872797280
 6 -5.82179078157816 -0.63720845074507 -0.16421789618962
 6 -0.05453044204420  4.00202487408741  0.13804242984298
 6 -0.92050301200120  5.12498359135914  0.54096872547255
 6 -2.16643196939694  4.66893301610161  0.32224362726273
 6  3.05757859915992 -4.09512613171317  0.09365076407641
 6 -5.42326698749875  0.36402163076308 -1.20329139613961
 6  6.71747431363136 -0.82513079717972  0.84722784538454
 6 -3.52411817111711  5.40816711491149  0.48815963106311
 6 -2.04735817211721  3.21146333763376  0.02110303510351
 6 -0.51004514201420  6.58359222722272  0.84886997679768
 6 -4.21778031493149  5.69186759165917 -0.83116389208921
 1 -0.32386995189519  0.32697840344034 -0.02007256055606
 1  2.93791780638064 -1.28359036113611 -0.94081358995900
 1  2.40967221812181 -2.83418812571257 -2.10843327802780
 1  1.00147692699270 -4.04778669626963 -2.75983835033503
 1 -5.56418822502250 -2.16317470657066  2.42068422892289
 1  5.02973328352835  0.08531324782478 -1.15437859085909
 1  5.94600656625663  1.46958126742674 -0.70382168176818
 1 -2.87500559625963  0.11029552575257 -0.50128303390339
 1  0.49975630733073  1.84593577657766 -0.54758423052305
 1 -1.65357094829483 -4.51655375957596 -1.20285109080908
 1 -2.55936956665667 -3.32420012201220 -2.17162648284829
 1 -1.06348629972997 -3.87436561096110 -2.67603120612061
 1 -2.63173693149315 -3.64207035543554  0.24691193819382
 1  1.17802360906091 -4.91529401190119 -0.57703142064206
 1  2.39051823762376 -5.35565827432743 -1.58434294819482
 1  4.61605602660266 -0.73771982308231  1.13038362456246
 1  5.53543774337434  0.63640807740774  1.85848031873187
 1  4.75647316761676  4.58086855425543 -0.59993997669767
 1  5.54883150595060  3.29547226642664  0.42254877807781
 1  4.17853727112711  4.49544505260526  1.11555285918592
 1  1.99089492149215  5.17771770137014  0.45889567646765
 1 -7.98425119671967 -2.60116611111111  0.83694838883888
 1 -7.19312495679568 -4.03945171107111  1.55797816571657
 1 -6.77962614661466 -3.75278304180418 -0.18302671347135
 1 -6.95581292299230 -0.74550488178818 -0.01440951305131
 1 -5.16950179197920  1.37312150905090 -0.74197804590459
 1 -6.24714654435444  0.54913254155416 -1.79451613011301
 1 -4.71154965046505 -0.05643879767977 -1.70271148384838
 1 -3.46859673897390  6.15145780158016  1.18791649564956
 1 -4.24667234473447  4.69521865406541  1.07724986278628
 1 -0.12944837953795  6.43993595349535  1.97873060556056
 1 -1.29276065936594  7.53601029652965  0.52523177957796
 1  0.32154134173417  6.67718621912191  0.25126146034603
 1 -3.61580187598760  6.45384126722672 -1.27785560166017
 1 -5.32983480658066  5.92289503050305 -0.75056019771977
 1 -4.23532805390539  4.52554404670467 -1.51409114751475
 1  3.66081138763876 -4.58929315951595  1.76926556355636
 1  7.74396164086409 -1.87140779307931  2.11643180578058

