%nproc=4
%Mem=4GB
# td=(NStates=1) B3LYP/SVP 

TD

0 1
 8 -4.58734885568557 -4.74060414161416  1.78478384198420
 8  2.83430402850285 -4.98635318451845  1.16564449624963
 8  7.13520390179018 -1.48240578167817  1.82474269476948
 8  3.67595932873287 -3.13442256745675  0.29833269166917
 8  7.58575732773277 -0.63811519081908 -0.19735930523052
 8 -2.98226855565557  2.43447084458446 -0.50219512411241
 7 -0.21261564326433 -0.57142649244924 -0.62484112031203
 7  1.46349403210321  1.83248562736274 -0.51769343144314
 7 -3.55478242124212 -3.18631767856786  0.54060253155316
 7 -0.70019142204220  2.82284270247025 -0.20047507140714
 6  0.73870510291029 -2.51002644094409 -1.32319440254025
 6  0.98937787158716 -1.12335228632863 -0.94325688098810
 6 -0.63838816391639 -2.67532142154215 -1.17080728012801
 6 -1.26044815101510 -1.51376501840184 -0.69456092199220
 6  3.72079002030203  1.46315080038004 -0.25979219561956
 6  2.52913360636064  0.88821015281528 -0.60442200080008
 6  2.28152515681568 -0.58336448224822 -0.83129537453745
 6  3.54419825672567  2.75364337253725 -0.08999977287729
 6  1.76434758725873 -3.44385965176518 -1.94523472447245
 6 -5.54123345854585 -2.41136304590459  1.33645358535854
 6 -3.62229429232923 -1.72901796379638  0.18521230623062
 6  2.08356261646165  3.07142357055706 -0.14174165116512
 6 -5.09823601990199 -1.43706921012101  0.34628326722672
 6  5.10065854395440  0.74954462446245 -0.30083313971397
 6 -2.61191215341534 -1.04538130973097 -0.34960537493749
 6 -1.42135007270727 -3.85367987028703 -1.57794103780378
 6 -4.52516998379838 -3.67137564326433  1.29090820542054
 6  2.18340881688169 -4.62214443414341 -0.95655851165117
 6  5.42436231253125 -0.15455151905191  0.79887799389939
 6  4.38553433963396  3.85108633993399  0.33134531833183
 6  1.32270351175117  4.12532694019402  0.15303542304230
 6 -7.00709183978398 -2.89471685148515  1.36681614771477
 6 -5.84048265076508 -0.52704743464346 -0.26382785718572
 6 -0.06925191419142  3.98874354595460  0.10624925052505
 6 -0.97918888058806  5.18258935193519  0.63327795639564
 6 -2.22911823802380  4.68866498929893  0.42974437733773
 6  2.96241908320832 -4.19016563566357  0.16942834183418
 6 -5.30520518131813  0.43485871447145 -1.28621968896890
 6  6.82036460266027 -0.74861314541454  0.73300642324232
 6 -3.61996775607561  5.29668596679668  0.57929874497450
 6 -2.10288372467247  3.18713090439044 -0.13449252445245
 6 -0.63087722522252  6.46909077707771  1.06903199299930
 6 -4.20854939183918  5.63739214411441 -0.77869864556456
 1 -0.39531709660966  0.26424212981298 -0.01450200350035
 1  3.14190820542054 -1.21213321542154 -0.65383489208921
 1  2.70183143404340 -2.76558126502650 -2.18725115981598
 1  1.37956473577358 -4.07049896749675 -2.88276064256426
 1 -5.40815262146215 -2.06074446354635  2.43110527102710
 1  5.07634794499450  0.20091480798080 -1.10485363836384
 1  6.05809777537754  1.47383169246925 -0.45748704830483
 1 -2.85015311101110 -0.02847835163516 -0.61862476807681
 1  0.40844717641764  1.83385456845685 -0.75193466556656
 1 -1.28274386558656 -4.70174227842784 -1.12279308500850
 1 -2.72029565926593 -3.83543124512451 -1.69612893309331
 1 -1.10099005010501 -4.32893106750675 -2.62220582358236
 1 -2.55979973777378 -3.47495364376438  0.73076032303230
 1  1.26907271397140 -5.16724920742074 -0.48161187868787
 1  2.71411059685969 -5.42768547704770 -1.56579109300930
 1  4.64429885088509 -0.96203225432543  1.01073165936594
 1  5.43188738833884  0.34737917451745  1.82455692639264
 1  4.15686320662066  4.60919138653865 -0.51159114181418
 1  5.42229885268527  3.62986570577058  0.22737926112611
 1  4.15234465186519  4.16865237333733  1.32813411731173
 1  1.81626745874588  5.12042197179718  0.68082786968697
 1 -7.93393616521652 -2.25629162366237  1.76611130513051
 1 -7.33842948724872 -3.77232499839984  2.07478984688469
 1 -7.05687387138714 -3.20083784728473  0.25193678287829
 1 -6.89576691839184 -0.45085541684168 -0.19159723182318
 1 -4.87644248604860  1.36872106900690 -0.85337918601860
 1 -6.27649947964796  0.67885551385138 -1.79058573707371
 1 -4.63327182268227  0.19139598579858 -2.00858207090709
 1 -3.40884076337634  6.14667732353235  1.12817052105211
 1 -4.35680335783578  4.75890502270227  1.00237237503750
 1  0.29998456375638  6.47938989888989  1.69790252275228
 1 -1.49117050035004  6.96417311281128  1.38658791519152
 1  0.08196738433843  7.13696219671967  0.42959929412941
 1 -3.52150244604460  6.13413929702970 -1.29147696379638
 1 -5.20574239733973  6.27697043804380 -0.67891303300330
 1 -4.54716923802380  4.64081557385739 -1.32026176457646
 1  3.51607691419142 -4.57183141334133  1.92209084608461
 1  8.08711595629563 -1.89283993629363  1.65884604720472

