%nproc=4
%Mem=4GB
# td=(NStates=1) B3LYP/SVP 

TD

0 1
 8 -4.67450757155716 -4.69484956615662  1.97237260086009
 8  2.75835643374337 -4.52647719691969  1.48307623942394
 8  7.27086746814681 -1.62558009910991  1.59108932943294
 8  4.00271200400040 -3.28206733193319 -0.06858400000000
 8  7.71855060706071 -0.48786016531653 -0.24156372567257
 8 -3.10063039183918  2.47659505700570 -0.14239914451445
 7 -0.29724410611061 -0.63211256105611 -0.53606224242424
 7  1.57259494219422  1.66740911971197 -0.30681234333433
 7 -3.55299224222422 -3.21324037083708  0.50489896119612
 7 -0.78469987288729  2.97215763396340 -0.08069309320932
 6  0.69646087848785 -2.47978341664166 -1.38429051215122
 6  0.95122405620562 -1.17306725782578 -0.93871642694269
 6 -0.80494481958196 -2.72668655805581 -1.30139033843384
 6 -1.32568467466747 -1.50543418531853 -0.70260172607261
 6  3.82658059935994  1.43560804610461 -0.30863708010801
 6  2.50617131013101  0.74197552935293 -0.44927648624862
 6  2.11649865416542 -0.53177932373237 -0.81306355135514
 6  3.56034987188719  2.70942895109511  0.00190941804180
 6  1.66715786828683 -3.50254552035204 -1.81691189218922
 6 -5.62307164236424 -2.52901481108111  1.30681062106211
 6 -3.67100916381638 -1.83739880188019  0.17588137313731
 6  2.04423868406841  2.91200762896290  0.01972449544955
 6 -5.10722691899190 -1.44246975017502  0.31068970787079
 6  5.17542602070207  0.77567723772377 -0.30893394979498
 6 -2.66536749894989 -1.08954572617262 -0.34404481888189
 6 -1.45202314001400 -3.91700620292029 -1.81557480118012
 6 -4.53721118791879 -3.70085859155916  1.24031314591459
 6  2.01040151615162 -4.59649186888689 -0.77053990979098
 6  5.56625650195019 -0.10262632653265  0.79047715381538
 6  4.59223500970097  3.77939917121712  0.32589477327733
 6  1.34058529992999  4.03937834533453  0.20285040454045
 6 -7.05462659325933 -3.03190056985699  1.06980644674467
 6 -5.79426802930293 -0.54459918981898 -0.35164663906391
 6 -0.03301829082908  3.95779045064506  0.18570719631963
 6 -0.94686564826483  5.18985007800780  0.46878150675068
 6 -2.21883720992099  4.71594771757176  0.35045644854485
 6  2.99786262756276 -4.05755237433743  0.23417481648165
 6 -5.42545720652065  0.39209443804380 -1.40935200220022
 6  6.97282984918492 -0.65696398049805  0.75100822342234
 6 -3.59938569786979  5.39158545674567  0.59179999509951
 6 -2.14325776207621  3.30731292259226  0.00513143794379
 6 -0.55033917141714  6.59316318431843  0.79083417321732
 6 -4.26824536143614  5.64655306020602 -0.75745652135214
 1 -0.26390395529553  0.33093879947995  0.05229467616762
 1  2.96334034863486 -1.25934793689369 -0.93215272387239
 1  2.54128537943794 -2.84847955485549 -2.02336477117712
 1  1.34872165146515 -3.95773769136914 -2.66609897639764
 1 -5.31071287748775 -2.19339772887289  2.40083224372437
 1  5.44957526772677  0.27587230373037 -1.56342949594960
 1  5.91403336893689  1.68616292559256 -0.19243054265427
 1 -2.80346844254425  0.10593508970897 -0.39219212481248
 1  0.53172950465047  1.83060424342434 -0.81656112821282
 1 -1.27567315851585 -4.80882298649865 -1.26188699439944
 1 -2.55429905960596 -3.60755845784579 -1.96994631483148
 1 -1.04346429752975 -3.95906408080808 -2.89992359535954
 1 -2.52480623842384 -3.52699884828483  0.49467671467147
 1  1.16160196689669 -4.97703018551855 -0.34285800330033
 1  2.58240742654265 -5.27177988648865 -1.37162167606761
 1  4.78536295729573 -0.93530958205821  0.93799438563856
 1  5.26295049464947  0.47220165676568  1.88226269696970
 1  4.37819533983398  4.86012648004800 -0.35072505520552
 1  5.64705132793279  3.44482720192019  0.13172969616962
 1  4.58856827422742  4.12949845794579  1.39351065496550
 1  1.68506433843384  5.04669459905991  0.48911869876988
 1 -7.76848962056206 -2.31473746824682  1.22070676467647
 1 -7.30740638493849 -3.96516428232823  1.71151351925193
 1 -7.07468565256526 -3.36934469796980 -0.04288269906991
 1 -6.95177251895189 -0.52987331863186  0.23412534043404
 1 -4.76077091889189  1.15040923782378 -1.04580842894289
 1 -6.23741557125712  0.99017664596460 -1.90421710021002
 1 -5.02331082658266  0.02705955215522 -2.26664787748775
 1 -3.33283316261626  6.22024468026803  1.26425412941294
 1 -4.22867054455446  4.52910204240424  1.28310044784478
 1  0.22853741904190  6.79882184208421  1.54132686518652
 1 -1.30754213751375  7.32956965246525  1.02573182958296
 1 -0.02381319371937  7.13539203970397 -0.03639730553055
 1 -3.67513780958096  6.29118500160016 -1.43605142124212
 1 -5.36396821992199  6.22338507950795 -0.74483962566257
 1 -4.58508302940294  4.78751024332433 -1.41859159755976
 1  3.47064237073707 -4.02264649484948  1.94708334533453
 1  8.13053029772977 -2.04667531983198  1.49088925152515

