%nproc=4
%Mem=4GB
# td=(NStates=1) B3LYP/SVP 

TD

0 1
 8 -4.38143826462646 -4.68872895409541  1.88418378197820
 8  2.78389898799880 -4.94546909610961  1.12589052085209
 8  7.06227660906091 -1.67972551365137  1.87171739223922
 8  3.72640437323732 -3.28548767396740 -0.06921406300630
 8  7.54555330733073 -0.61155253455346 -0.08193776307631
 8 -2.97994832363236  2.50514791229123 -0.36482138673867
 7 -0.32387676937694 -0.51844119391939 -0.68137677387739
 7  1.43466114881488  1.71152353115312 -0.32454411651165
 7 -3.33555049804980 -3.15336438323832  0.62735120642064
 7 -0.73924532743274  3.00780119831983 -0.22986801070107
 6  0.71421265366537 -2.45553099139914 -1.36952903600360
 6  0.98508744254425 -1.08354830593059 -0.96681923722372
 6 -0.70559488458846 -2.60141403080308 -1.36485668506851
 6 -1.29748185438544 -1.48573221512151 -0.80569203510351
 6  3.83603154445445  1.47014149944995 -0.23934015041504
 6  2.57264795779578  0.79744107590759 -0.53038459705971
 6  2.23038004230423 -0.48187433323332 -0.76053829882988
 6  3.47207104400440  2.79301730993099  0.08145737283728
 6  1.63225437793779 -3.40209547534753 -2.09080928192819
 6 -5.38973830903090 -2.49772168176818  1.58712865286529
 6 -3.55918798169817 -1.78836389838984  0.19837362236224
 6  2.06120038023802  2.91623805200520 -0.00695817281728
 6 -4.98225442174217 -1.49862536573657  0.38551719061906
 6  5.18050652875288  0.73188285828583 -0.16804986138614
 6 -2.59451041324132 -1.05747251885189 -0.42799321372137
 6 -1.44800273797380 -3.80399490179018 -1.85313855755576
 6 -4.36557402420242 -3.63188169386939  1.40140925552555
 6  1.98163863986399 -4.69127134683468 -1.11029388518852
 6  5.41133100940094 -0.07861392529253  1.04574268036804
 6  4.39230501670167  3.84664589588959  0.61501368516852
 6  1.33414465586559  4.06072047954796  0.34945506500650
 6 -6.87211834243424 -2.94919229902990  1.49095856195620
 6 -5.75314391689169 -0.56579130903090 -0.03844531893189
 6 -0.02815780478048  4.11427609920992  0.16982560816082
 6 -0.97019798149815  5.21903299629963  0.44982961156116
 6 -2.30372569876988  4.74004012681268  0.25349675257526
 6  2.94927776907691 -4.23531015011501  0.01146254525453
 6 -5.52596725752575  0.36552178077808 -1.27158822582258
 6  6.72492505870587 -0.79712799689969  0.78225134773477
 6 -3.63713947324732  5.34133043124312  0.25593640874087
 6 -2.11981541784178  3.24087627892789 -0.17078615381538
 6 -0.47091122862286  6.58407227522752  0.90875596539654
 6 -4.39147768466847  5.55037344224422 -1.09055983168317
 1 -0.42508007290729  0.42949865546555 -0.15204575787579
 1  3.05876989158916 -1.14891689378938 -1.17163667226723
 1  2.64256550745074 -2.87066177307731 -2.17979041374137
 1  1.10643742304230 -3.71810372797280 -3.10950331683168
 1 -5.26309811601160 -1.92550093919392  2.55607776827683
 1  5.15065537573757  0.06981169766977 -1.09435258825883
 1  5.94793675927593  1.43058736803680 -0.29124042364236
 1 -2.82487058275828  0.06393088928893 -0.41374428002800
 1  0.21488782048205  1.86110729372937 -0.41609108120812
 1 -1.53818941014101 -4.50264236843684 -1.14121492719272
 1 -2.54259788948895 -3.68880658265827 -2.07011633183318
 1 -0.97644759585959 -4.37788596299630 -2.56742034503450
 1 -2.47098085588559 -3.61943809220922  0.69955720272027
 1  1.18213402010201 -5.10384286678668 -0.56949066656666
 1  2.39977916371637 -5.37954066256626 -1.48250276417642
 1  4.75671009200920 -0.98798484958496  0.87563815001500
 1  5.19698389798980  0.32324676127613  2.00685515621562
 1  4.57523504380438  4.82266273367337 -0.09231921462146
 1  5.49950657345735  3.33496621582158  0.81395791899190
 1  4.04812422982298  4.19087459555956  1.55336664056406
 1  1.96092192419242  5.05406533613361  0.55273506040604
 1 -7.46083885548555 -2.01974796929693  1.81600629462946
 1 -6.99407505180518 -3.84549231513151  2.36800916881688
 1 -7.09875805980598 -3.47287505100510  0.69377096629663
 1 -6.75683302500250 -0.40731106240624  0.25440736863686
 1 -5.02779762156216  1.30192438933893 -0.81160500860086
 1 -6.48136996669667  0.57385501380138 -1.73043972247225
 1 -4.59864836033603  0.09271611781178 -1.94001521422142
 1 -3.25083496279628  6.38745140094009  0.69514721872187
 1 -4.15026270377038  4.67925705790579  0.94382652045204
 1  0.27414197949795  6.60533249314931  1.78356108860886
 1 -1.29230061336134  7.22690938643864  1.14295355175518
 1  0.02553174077408  7.12489098959896  0.11551788598860
 1 -3.89768006380638  6.19649553265327 -1.89719753585359
 1 -5.52809463256326  5.86234897589759 -1.11851699339934
 1 -4.15519004010401  4.43397488978898 -1.56221595999600
 1  3.47332263876388 -4.67167139733973  1.80345898289829
 1  7.88991623632363 -1.79499015131513  1.59543970657066

