%nproc=4
%Mem=4GB
# td=(NStates=1) B3LYP/SVP 

TD

0 1
 8 -4.57360748154816 -4.73603368456846  1.78451381498150
 8  2.79917051515151 -4.82463701290129  1.27961589338934
 8  7.07861824322432 -1.56848438953895  1.75742596309631
 8  3.81923365616562 -3.19865899109911  0.00123298169817
 8  7.62806155815582 -0.48264964426443 -0.12835240454045
 8 -3.09720004880488  2.48475587308731 -0.19572447704770
 7 -0.29197357905791 -0.60196954675468 -0.65406404260426
 7  1.58178586128613  1.88643102190219 -0.49638130023002
 7 -3.45807275027503 -3.18482752955296  0.57044551585159
 7 -0.72940434333433  2.94914533273327 -0.03113813771377
 6  0.57861909430943 -2.56728216651665 -1.37206929002900
 6  0.89237817161716 -1.12633258435844 -1.01632418771877
 6 -0.70373469856986 -2.66248013741374 -1.15842604200420
 6 -1.37230933713371 -1.48291193309331 -0.70772223812381
 6  3.82314025532553  1.46348083338334 -0.30548676507651
 6  2.51423211621162  0.87048838063806 -0.60436199479948
 6  2.13033003730373 -0.54916106190619 -0.85498774377438
 6  3.53404724162416  2.75880388858886  0.00355958305831
 6  1.62989414191419 -3.47940320612061 -1.86334653565357
 6 -5.58301763696370 -2.52143405300530  1.39523946394639
 6 -3.60776283918392 -1.86558162016202  0.13379716471647
 6  2.17685194539454  3.04574100230023 -0.08505598259826
 6 -4.99128532483248 -1.54756025922592  0.30287892679268
 6  5.01649012711271  0.68395806580658 -0.42203525992599
 6 -2.66531749394940 -1.06987375897590 -0.47405782018202
 6 -1.39241717941794 -3.97829233153315 -1.47997124082408
 6 -4.48529599639964 -3.58521702740274  1.29222833743374
 6  2.03671414741474 -4.54004622432243 -0.87265012081208
 6  5.43536341264126 -0.05856192009201  0.84702280838084
 6  4.64740052625262  3.76635786708671  0.32993517731773
 6  1.34283552495250  4.10230463796380  0.31521164066407
 6 -7.02442357295730 -3.09985736553655  1.11291075717572
 6 -5.74473307580758 -0.51744647454745 -0.17617909230923
 6 -0.00803579257926  4.06384105570557  0.33290191579158
 6 -1.02799376107611  5.18792988598860  0.48170279887989
 6 -2.23610893709371  4.71029715251525  0.31747315021502
 6  2.99401224252425 -4.05057167626763  0.17245864486449
 6 -5.30312497329733  0.46116134473447 -1.26632769976998
 6  6.77708027422742 -0.74372265636564  0.73809693229323
 6 -3.56333209250925  5.32371867006701  0.40527134223422
 6 -2.08048148444845  3.22959515081508 -0.07493656885689
 6 -0.48309244674467  6.44867873587359  0.97892298209821
 6 -4.24313285018502  5.61029943484349 -0.93262403810381
 1 -0.53618118301830  0.39398510411041 -0.42159271257126
 1  2.91188520312031 -1.11595359745975 -0.87262677127713
 1  2.43077432833283 -2.92873758065807 -1.95767820252025
 1  1.15944272357236 -4.03000491809181 -2.80803316981698
 1 -5.58690049624962 -1.99807819691969  2.34817697819782
 1  4.81209151935193 -0.15922120562056 -1.36442959595960
 1  6.00408237383738  1.16023033233323 -0.81180247984798
 1 -2.97693578927893 -0.03790929472947 -0.62782568816882
 1  0.34597092879288  1.98156933993399 -0.49422889498950
 1 -1.29030462166217 -4.98404050825082 -0.87499830553055
 1 -2.46226985668567 -3.86456415841584 -1.76923624382438
 1 -1.01579153025303 -4.41269944434443 -2.66653025602560
 1 -2.35032879067907 -3.57629377777778  1.01763901090109
 1  1.20151595829583 -5.11990447294729 -0.44029774727473
 1  2.55466465226523 -5.28959166766677 -1.25561007490749
 1  4.64259868086809 -0.71443749484949  0.88154874107411
 1  5.21481568116812  0.35834027062706  1.77707217791779
 1  4.25406292659266  4.66622709010901 -0.01963194589459
 1  5.73348997179718  3.52760547974798 -0.09499297609761
 1  4.75052446984698  4.01319682778278  1.39157046094609
 1  1.93196902890289  5.00800072967297  0.40068985588559
 1 -7.90734350595060 -2.57315330983098  1.30472516651665
 1 -7.05337098139814 -4.15005277117712  1.59150151805181
 1 -7.34687287128713 -3.53636139963996  0.12779436863686
 1 -6.68337567926793 -0.43911424272427  0.17986991489149
 1 -4.65120996279628  1.09137333423342 -0.58174202230223
 1 -6.07040887058706  0.95358298659866 -1.65121179967997
 1 -4.66322481798180  0.05910275647565 -1.90518173087309
 1 -3.44077395669567  6.22207486328633  1.00882858685869
 1 -4.43464114161416  4.85078421062106  0.88756089388939
 1 -0.16119155385539  6.26470843074307  2.06665939843984
 1 -1.18927031033103  7.27886458195820  0.94988424482448
 1  0.51001018861886  6.80479898039804  0.29357569176918
 1 -3.62629292509251  6.41775765886589 -1.51277909400940
 1 -5.11279310241024  5.97642038303830 -0.72638778047805
 1 -4.25782030313031  4.71380287258726 -1.52300203860386
 1  3.23578888538854 -4.33537776797680  2.14791342834283
 1  8.05950319501950 -1.81951260356036  1.67924808740874

