%nproc=4
%Mem=4GB
# td=(NStates=1) B3LYP/SVP 

TD

0 1
 8 -4.53232335313531 -4.64914499569957  2.02495785938594
 8  2.97507810591059 -4.69641419061906  1.32951088288829
 8  7.14765514691469 -1.40324786588659  1.82735295579558
 8  3.75724745754575 -3.09483860906091 -0.07546468806881
 8  7.48976772877288 -0.61175255455546 -0.27023659295930
 8 -3.08352868166817  2.49955735323532 -0.23060796539654
 7 -0.29203358505851 -0.59484883468347 -0.56255489168917
 7  1.54702238493849  1.72916529532953 -0.34213587568757
 7 -3.43211015401540 -3.13181222802280  0.70916938823882
 7 -0.80500190309031  2.90578099629963 -0.11673669756976
 6  0.59967119951995 -2.54899033733373 -1.33332541564156
 6  0.94412334613461 -1.14499445054506 -0.86543909920992
 6 -0.77975230033003 -2.71000488988899 -1.27016721612161
 6 -1.34299640584058 -1.53092673457346 -0.74065553145315
 6  3.80253819511951  1.40231471677168 -0.28330454685469
 6  2.46651734473447  0.83550488228823 -0.57716927552755
 6  2.18962596689669 -0.47567371317132 -0.85628787378738
 6  3.50156399329933  2.76263427162716  0.12631185828583
 6  1.63151430393039 -3.44432969876988 -1.90834103510351
 6 -5.60040937613761 -2.64020593019302  1.33712365236524
 6 -3.68205026792679 -1.88360342234223  0.12476626162616
 6  2.18474273447345  2.89610603880388  0.01616413941394
 6 -5.00684688098810 -1.50110561376138  0.41991062996300
 6  5.02389086718672  0.66939660966097 -0.42126518291829
 6 -2.61948291049105 -1.03040981258126 -0.34089450385038
 6 -1.49651758945895 -3.91657615991599 -1.82707595129513
 6 -4.48577604440444 -3.59603810951095  1.40698981358136
 6  2.02363283928393 -4.60824304400440 -0.89829268506851
 6  5.43323319961996 -0.23382944684468  0.82892099819982
 6  4.55033081928193  3.80656188748875  0.50739292309231
 6  1.33730497189719  4.12221662916292  0.26761688118812
 6 -6.99338046864686 -3.17076445624562  0.91356082218222
 6 -5.72687128962896 -0.54958968886889 -0.24442591699170
 6 -0.02839782878288  4.06260093169317  0.17701632723272
 6 -0.94501546324632  5.19760085308531  0.48338296689669
 6 -2.18408373457346  4.72044816761676  0.35626702960296
 6  2.98245108640864 -4.09881650075007  0.15188658765877
 6 -5.35106976777678  0.41279650825083 -1.27164823182318
 6  6.76372893909391 -0.77531581568157  0.68279140174017
 6 -3.52385814511451  5.41052735093509  0.41675249034903
 6 -2.08355179147915  3.23435562686269 -0.13492256745675
 6 -0.44498863636364  6.57198106610661  0.99386447624762
 6 -4.20159869676968  5.61786019091909 -0.90689146484648
 1 -0.35379294419442  0.36167187278728  0.07384683138314
 1  3.00560457505751 -0.96363836593659 -1.23121262986299
 1  2.51605285618562 -3.20240494739474 -2.54204663936394
 1  1.29914669396940 -4.17750966856686 -2.69197156365637
 1 -5.81627343354335 -2.27985637473747  2.29120128062806
 1  5.20681099129913  0.10831554805481 -1.43241639463946
 1  5.98727069266927  1.44991930123012 -0.60719201880188
 1 -2.86154425012501 -0.05849135293529 -0.68280118571857
 1  0.34922125382538  1.84868605160516 -0.35086455855586
 1 -1.51719731093109 -4.74107621182118 -1.15873667936794
 1 -2.58996262596260 -3.48744644664466 -2.07137645784578
 1 -1.02945289638964 -4.34659283368337 -2.88085168816882
 1 -2.39227298509851 -3.37204335273527  0.89155640264026
 1  1.15216102280228 -4.94583706620662 -0.33667738523852
 1  2.73790297609761 -5.34251696019602 -1.40241475537554
 1  4.63810823182318 -0.90066611771177  1.05214580078008
 1  5.37639183878388  0.46334077067707  1.60043451415142
 1  4.65466298659866  4.50460092749275 -0.32541252395239
 1  5.48343496629663  3.34517723692369  0.46902342554255
 1  4.42199161656166  4.32611811991199  1.38318962286229
 1  1.79315514751475  5.10542047164716  0.56504629152915
 1 -7.74477724932493 -2.29562555705571  0.98976367036704
 1 -7.07310295459546 -4.00463822972297  1.66921928982898
 1 -7.07453563756376 -3.44089185268527 -0.08980739153915
 1 -6.99088643034303 -0.50291062236224 -0.12454052615262
 1 -5.09503434523452  1.48842303920392 -0.81168501660166
 1 -6.41731356105610  0.44516214451445 -2.06026270477048
 1 -4.43012150765076  0.04195104130413 -1.88955016771677
 1 -3.35435531483148  6.35217787358736  0.80371807580758
 1 -4.18406608410841  4.76168530073007  0.90133227102710
 1  0.23919848514852  6.65494745464546  1.68353108560856
 1 -1.27134851815182  7.17691438693869  1.10274953135313
 1  0.12334152175218  6.97794629512951  0.26990332453245
 1 -3.55458575437544  6.42078796189619 -1.57217503360336
 1 -5.12507433053305  5.99642238323832 -0.86710185188519
 1 -4.17305182628263  4.76490798309831 -1.51335107350735
 1  3.55329063556356 -4.40791502170217  1.98121675867587
 1  8.02277952265226 -1.74805545784578  1.80130029262926

