%nproc=4
%Mem=4GB
# td=(NStates=1) B3LYP/SVP 

TD

0 1
 8 -4.56059618041804 -4.70543062426243  1.96555191879188
 8  2.86027662576258 -4.64048859805981  1.48306623842384
 8  7.15523590499050 -1.69626716781678  1.72513273377338
 8  3.76795852865287 -2.96639576477648  0.17739059745975
 8  7.48286703870387 -1.03170454975498 -0.46334590389039
 8 -2.99385971477148  2.54892228972897 -0.40484538913891
 7 -0.36526090779078 -0.62928227802780 -0.56276491269127
 7  1.59785746844684  1.85374775357536 -0.34522618471847
 7 -3.52820976397640 -3.23475252205221  0.60155862716272
 7 -0.77287869076908  2.91223164136414 -0.10866589048905
 6  0.62285351775177 -2.42747818611861 -1.32801488458846
 6  0.89444837863786 -1.10149010011001 -0.94469702500250
 6 -0.71843616871687 -2.74233812321232 -1.23320351975198
 6 -1.30879298549855 -1.53841748364836 -0.77298876477648
 6  3.92107004830483  1.49557404270427 -0.24287050345034
 6  2.55952664566457  0.83802513431343 -0.55066662526253
 6  2.17389439373937 -0.46142228802880 -0.80584282928293
 6  3.54221805870587  2.84584259245925  0.00313954105411
 6  1.75825697819782 -3.38434370017002 -1.87971817281728
 6 -5.59547888308831 -2.47696960656066  1.32552249224922
 6 -3.66164822772277 -1.92029709170917  0.12520630563056
 6  2.15927018721872  3.05701212941294  0.08486100910091
 6 -5.01072726902690 -1.50473597679768  0.29023766266627
 6  5.19324780288029  0.80496016601660 -0.40954401080108
 6 -2.70034099629963 -1.08675544714471 -0.49725013941394
 6 -1.35993393109311 -4.02989749204920 -1.81494473817382
 6 -4.57222468926893 -3.69600810651065  1.40967008160816
 6  2.17759823582358 -4.47846006570657 -0.86107896369637
 6  5.55891576787679 -0.11527759165917  0.82374048014801
 6  4.62869865606561  3.81721295259526  0.41794397819782
 6  1.32341358275828  4.13475788328833  0.32203232273227
 6 -7.03091422202220 -3.14610198999900  1.11772123822382
 6 -5.81263986648665 -0.59661439133913 -0.25635711011101
 6 -0.13036802580258  4.07058172977298  0.21249987558756
 6 -1.01713267496750  5.15906699969997  0.50241487008701
 6 -2.29896522272227  4.74594071687169  0.30242164506451
 6  3.02947578887889 -3.97961458055806  0.34290568956896
 6 -5.43538819961996  0.37220244884488 -1.44164523152315
 6  6.86496906310631 -0.98570685478548  0.57047016961696
 6 -3.50145590489049  5.33778007620762  0.48488930403040
 6 -2.12781621792179  3.37005919721972 -0.13547262246225
 6 -0.63743788128813  6.56940080808081  1.02355744554455
 6 -4.36645518241824  5.66426483138314 -0.76653742944294
 1 -0.57886545144514  0.25245095069507 -0.28925947924792
 1  2.98002201680168 -1.23203520562056 -0.98001751035103
 1  2.66119737063706 -2.85851055795580 -1.99826226092609
 1  1.31260804010401 -3.66200811841184 -2.94090645714572
 1 -5.47346915311531 -1.92882127122712  2.41964412491249
 1  4.98658896909691  0.18128284478448 -1.34842799579958
 1  6.01016298189819  1.53450776007601 -0.37133843344334
 1 -2.84813290899090 -0.02212771657166 -0.53252615821582
 1  0.59093542524252  1.85754693769377 -0.45999547164717
 1 -1.79492508370837 -4.56673877807781 -0.88427923362336
 1 -2.30286391609161 -3.76809451145115 -1.88823814401440
 1 -0.89062901400140 -4.45215338973897 -2.63965756875688
 1 -2.66759051685168 -3.91545769416942  0.40478772577258
 1  1.17931373807381 -4.90289277177718 -0.41038475597560
 1  2.82362154795480 -5.07190989948995 -1.51242575647565
 1  4.76379080008001 -0.96028207930793  1.11282186838684
 1  5.77628182778278  0.47537197379738  1.86308077877788
 1  4.45018253855386  4.83505397279728  0.11604162146215
 1  5.70078670147015  3.49707242644264 -0.25195867266727
 1  5.08072749014901  3.91401690979098  1.53951525542554
 1  1.94733056505651  5.07003693329333  0.56583637053705
 1 -7.88649142074207 -2.39851584608461  1.13385807980798
 1 -7.13652929722972 -3.94685245114511  1.73129549744974
 1 -7.02778096209621 -3.73966172967297  0.34202579177918
 1 -6.79169651135113 -0.56201653295329  0.21012294019402
 1 -4.77720256205621  1.25997019391939 -1.05468931703170
 1 -6.37690952065206  0.62658028632863 -1.95428210671067
 1 -4.76425492099210  0.01099794599460 -2.09767097979798
 1 -3.55526540584058  6.50081273707371  0.82968067206721
 1 -4.28505618311831  4.76447557975798  1.12329446724672
 1 -0.14951038573857  6.33882584248425  1.91706443894389
 1 -1.60556193949395  7.14238093359336  1.21887114351435
 1  0.13566275387539  6.97792629312931  0.26564289848985
 1 -3.81262155795580  6.50655653875388 -1.30176799289929
 1 -5.46091791489149  6.14251699269927 -0.62171731343134
 1 -4.56720124122412  4.81614310661066 -1.35367510591059
 1  3.33778908540854 -4.32128635883588  2.23822245924592
 1  7.93874111881188 -2.28384903720372  1.50475063766377

