%nproc=4
%Mem=4GB
# td=(NStates=1) B3LYP/SVP 

TD

0 1
 8 -4.34541466226623 -4.75075515671567  2.06608197179718
 8  2.84597519561956 -4.97942249144914  1.16933486528653
 8  7.07693807520752 -1.35005254635464  2.00253047354735
 8  3.63023475627563 -3.13618274347435  0.15137799619962
 8  7.65134388638864 -0.66763814311431 -0.01326089538954
 8 -3.03873420222022  2.57571496899690 -0.17503240784078
 7 -0.21676605830583 -0.59646899669967 -0.55179381558156
 7  1.56371405410541  1.83389576837684 -0.45243690579058
 7 -3.48742568556856 -3.22976202300230  0.70719919121912
 7 -0.78003940684068  2.96581699989999 -0.02038706260626
 6  0.61145237763776 -2.53651909020902 -1.41844392749275
 6  0.94913384718472 -1.16820677177718 -1.03080563586359
 6 -0.77778210331033 -2.67572146154615 -1.38976917631763
 6 -1.29038114431443 -1.44842848474847 -0.74180564646465
 6  3.86710465176518  1.41367585288529 -0.45081129752975
 6  2.50548124112411  0.85664699649965 -0.61712327092709
 6  2.12978998329833 -0.51314746054605 -0.88253049804981
 6  3.68166200310031  2.75954396259626 -0.00730150305031
 6  1.59781093359336 -3.57421268706871 -2.00111031203120
 6 -5.68551788698870 -2.62698460806081  1.40395033503350
 6 -3.60790285318532 -1.90300536253625  0.16133991899190
 6  2.22258651885189  2.96640306850685 -0.06049352635264
 6 -4.98712490879088 -1.62353785698570  0.37062570147015
 6  5.07913639173917  0.72490216021602 -0.43073613001300
 6 -2.64487544974497 -1.14638140974097 -0.49778019241924
 6 -1.61486942464246 -3.80135463776378 -1.92484572827283
 6 -4.49895736253625 -3.69210771647165  1.34299341394139
 6  2.05677615361536 -4.67954017371737 -0.97903075887589
 6  5.42488236453645 -0.07511357525753  0.86571467756776
 6  4.57286307250725  3.78087931923192  0.44287647144714
 6  1.34991623302330  4.12082649014901  0.13319343884388
 6 -7.03049418001800 -3.23002038183818  1.17207667376738
 6 -5.82246084858486 -0.68016274617462 -0.18114958935894
 6 -0.02008699769977  4.10782545414541  0.14068269386939
 6 -0.94456541824182  5.20775186818682  0.38049267786779
 6 -2.19117444364436  4.75505162796280  0.36837824072407
 6  2.87720056135614 -4.04508112721272  0.07191859085909
 6 -5.37882254305431  0.29921515011501 -1.26323739073907
 6  6.79572213841384 -0.62320060416042  0.91036415901590
 6 -3.52004776407641  5.51974827302730  0.51372218731873
 6 -2.13118655495550  3.36458865016502  0.00796172097210
 6 -0.46789092659266  6.58095196319632  0.79830492029203
 6 -4.24335287218722  5.91651005590559 -0.80985176087609
 1 -0.30751831673167  0.33684939053905 -0.02849340264026
 1  3.06904091869187 -1.11019302140214 -0.74638414701470
 1  2.52674392529253 -3.07166187308731 -2.32458489318932
 1  0.98774555385539 -3.98101001860186 -2.84070643714371
 1 -5.80080188638864 -2.05129351845184  2.34192635313531
 1  5.14474478467847  0.05288000450045 -1.33244639763976
 1  5.89498146374638  1.48040234953495 -0.62985428502850
 1 -2.96530462616262 -0.21822732653265 -0.68251115671567
 1  0.64239057075708  1.90607179017902 -0.65675514761476
 1 -1.41840743194319 -4.67655976017602 -1.43012381808181
 1 -2.65539916961696 -3.55712341434143 -2.10280960116012
 1 -1.25968591969197 -4.13182135653565 -2.81878548154816
 1 -2.66234999279928 -3.67713386178618  0.71900914791479
 1  1.26601240794079 -5.45258774127413 -0.61601531903190
 1  2.82587177297730 -5.27889059755976 -1.66438095199520
 1  4.64979940094009 -0.96516256735674  1.13103368956896
 1  5.42923712331233  0.60858529512951  1.66015048574857
 1  4.77993551385139  4.62948341574157 -0.16623660636064
 1  5.69519614241424  3.14791751095110  0.57053357655766
 1  4.19839925732573  4.08355386348635  1.58065936983698
 1  1.98691452345235  4.96832676227623  0.13680346724672
 1 -7.93234600620062 -2.82702869736974  1.54149884388439
 1 -7.09921556585659 -4.06185395129513  1.84140650855086
 1 -7.17023520752075 -3.66590435393539  0.06493808300830
 1 -6.95274261596160 -0.81609194049405 -0.06657472957296
 1 -4.70666550835084  1.07707190409041 -0.85282913101310
 1 -6.17738956865687  0.85509313761376 -1.81716839533953
 1 -4.85713420892089 -0.24135728952895 -2.04434564726473
 1 -3.39239911921192  6.38926158195820  1.16403410741074
 1 -4.42558023552355  4.89580871307131  1.16913905170517
 1  0.11880644594459  6.54923688358836  1.69897262976298
 1 -1.25127651095110  7.25577227272727  1.13478273467347
 1  0.05448463606361  7.07692619311931 -0.15163882968297
 1 -3.50080037583758  6.63833971707171 -1.42311012711271
 1 -5.01527335043504  6.64224696569657 -0.66458159985999
 1 -4.57597211831183  4.95533702600260 -1.39418915731573
 1  3.48723402990299 -4.71653588378838  1.87823646064606
 1  7.98770601530153 -1.64344499679968  1.89059922252225

