%nproc=4
%Mem=4GB
# td=(NStates=1) B3LYP/SVP 

TD

0 1
 8 -4.42590271107111 -4.86110619181918  1.77786314991499
 8  2.95649624772477 -4.76467101630163  1.32273020482048
 8  7.12849323072307 -1.61481902300230  1.78821904240424
 8  3.76144787758776 -3.20897002220222  0.03388624702470
 8  7.58806755875588 -0.44242562186219 -0.02893246254625
 8 -2.90784111291129  2.48434583208321 -0.13058796339634
 7 -0.27965234693469 -0.52885223502350 -0.54734337053705
 7  1.62549023172317  1.78618099689969 -0.30773243534353
 7 -3.45302224522452 -3.17103615041504  0.37220569186919
 7 -0.64303570647065  2.92252267046705 -0.24469949384938
 6  0.57127836023602 -2.42119755805581 -1.43604568766877
 6  0.88202713651365 -1.14073402450245 -0.94329688498850
 6 -0.80479480458046 -2.58201209060906 -1.34217441684168
 6 -1.32829493569357 -1.35516915881588 -0.80558202410241
 6  3.81726966826683  1.42703718901890 -0.27596381278128
 6  2.48065875887589  0.75177650945095 -0.45440699929993
 6  2.10620762506251 -0.57565371117112 -0.80291253625363
 6  3.56555039193919  2.80088809700970  0.06764599169917
 6  1.56887804030403 -3.50440570637064 -1.86001620262026
 6 -5.52062139733973 -2.58543045264526  1.42545248524853
 6 -3.70447251015102 -1.82184724672467  0.12101588658866
 6  2.16241050125013  2.98079450765076  0.04714723772377
 6 -5.06669286558656 -1.57010251345134  0.48189682858286
 6  5.15300377847785  0.69303897389739 -0.38267132353235
 6 -2.74404536673667 -0.92524929652965 -0.41378179257926
 6 -1.57586552425243 -3.78097259955996 -1.94179742344234
 6 -4.47808527532753 -3.78633713941394  1.22970208480848
 6  1.87712818881888 -4.56571879157916 -0.79979283508351
 6  5.41076095239524 -0.13057912181218  0.83273137923792
 6  4.61668745494549  3.81911314261426  0.37245942974297
 6  1.38514975637564  4.12981738923892  0.16676679617962
 6 -6.87544867546755 -3.19985736553655  1.23058252435244
 6 -5.99170777327733 -0.56987171707171 -0.03343481788179
 6 -0.01596658565857  4.10952562416242  0.10353897949795
 6 -0.94129509120912  5.19369046204620  0.47877250585059
 6 -2.20042536873687  4.76568269106911  0.26325772867287
 6  3.00542338363836 -4.11421804090409  0.18714011301130
 6 -5.55666032683268  0.40821605020502 -1.07427849484949
 6  6.85098766496650 -0.71481976607661  0.88730185278528
 6 -3.50168592789279  5.43593989218922  0.41373218831883
 6 -2.10238367466747  3.26075826712671 -0.09290836603660
 6 -0.46178031553155  6.50188405640564  0.68033312311231
 6 -4.22776131303130  5.49371777667767 -0.91434220992099
 1 -0.18289585448545  0.48474418001800 -0.11131168446845
 1  3.04038805340534 -1.25313731583158 -1.06761627022702
 1  2.53469472037204 -2.99440414731473 -2.14068650335034
 1  1.08222500180018 -4.16237815541554 -2.77594996149615
 1 -5.32287409360936 -2.26015440454045  2.42605476597660
 1  5.24963527372737  0.14618933543354 -1.24760791379138
 1  5.99401136673667  1.61994630393039 -0.43657495709571
 1 -3.14143223892389  0.21901639783978 -0.10724362996300
 1  0.63658999069907  1.73026420942094 -0.45029450155016
 1 -1.49898548974898 -4.50929303350335 -1.24055486118612
 1 -2.70050368006801 -3.47258496049605 -2.35960528072807
 1 -0.96366631773177 -4.23256143054305 -2.79409301230123
 1 -2.77475123292329 -3.92069821822182  0.24027127412741
 1  1.03522932963296 -5.05218770127013 -0.32461617911791
 1  2.52177136293629 -5.26739944844484 -1.36254076797680
 1  4.84755917691769 -1.14466051715172  0.94495508170817
 1  5.20042424202420  0.28140257685769  1.77627209790979
 1  4.22942046234624  4.66367683508351 -0.01891187388739
 1  5.68301492429243  3.57815053425342  0.26589311251125
 1  4.70491990939094  3.98006351445145  1.59331063496350
 1  1.89788562056206  5.07736766636664  0.48472825972597
 1 -7.84040681228123 -2.69881587608761  1.55830052405241
 1 -7.06092173647365 -4.07646541244124  1.81580394829483
 1 -7.43364154815481 -3.53144090759076  0.22525411461146
 1 -7.09323666536654 -0.64558488978898  0.42985491339134
 1 -4.81652649444944  1.30525472237224 -0.73895774387439
 1 -6.53887571727173  0.74218184648465 -1.55903258175818
 1 -4.98744724022402 -0.18905205900590 -1.86839805250525
 1 -3.16737661696170  6.42916557235724  0.69240694469447
 1 -4.13670134763476  4.87972710491049  1.17396953475347
 1  0.38132269756976  6.69320128002800  1.34704743724372
 1 -1.22947433073307  7.16870356585658  1.01302055845585
 1 -0.09701051345134  7.12117061756176 -0.33202686848685
 1 -3.83174347014701  6.54743062616262 -1.60966878297830
 1 -5.27385920902090  6.01552429342934 -0.75740088178818
 1 -4.41119564066407  4.53808530083008 -1.32995273367337
 1  3.78422372887289 -4.54185841604161  1.74831346834683
 1  8.16850409510951 -1.60614126642664  1.85838600120012

