%nproc=4
%Mem=4GB
# td=(NStates=1) B3LYP/SVP 

TD

0 1
 8 -4.57630775157516 -4.80444052525253  1.78957432103210
 8  2.91173177127713 -4.89596414561456  1.37183511531153
 8  7.05131551295130 -1.51366890799080  1.82512273277328
 8  3.66621835463546 -3.10259938513851  0.17496035443544
 8  7.54625337733773 -0.71658303760376 -0.25530509980998
 8 -3.00429075787579  2.48413581108111 -0.16190109470947
 7 -0.25623000470047 -0.58641799159916 -0.51972060826083
 7  1.62772045474547  1.80088246704670 -0.41420308240824
 7 -3.45911285428543 -3.18015706250625  0.60466893819382
 7 -0.75278668156816  2.91580199839984 -0.08272329622962
 6  0.73742497489749 -2.47033247154715 -1.36212829592959
 6  0.99599853365337 -1.10182013311331 -0.84629718501850
 6 -0.67855218031803 -2.66132002140214 -1.21650184958496
 6 -1.26434854105411 -1.45134877677768 -0.64844631053105
 6  3.85503344464446  1.43573805910591 -0.33263948034803
 6  2.50534122712271  0.86337766956696 -0.67425898449845
 6  2.26637364166417 -0.43816996279628 -0.85487773277328
 6  3.56288012491249  2.75041304950495  0.08141736883688
 6  1.67441859435944 -3.49255452125213 -1.88399860086009
 6 -5.64840417561756 -2.60243215281528  1.30703064306431
 6 -3.56508857175718 -1.78144320632063  0.19331311631163
 6  2.13671793199320  2.95692212041204  0.02091461446145
 6 -5.03825002130213 -1.49370487368737  0.38729736863686
 6  5.17753623172317  0.71842151215122 -0.41037409380938
 6 -2.66387734993499 -1.02188896049605 -0.39049946434644
 6 -1.44862279998000 -3.90852535483548 -1.70261350505050
 6 -4.55878334513451 -3.72947145284528  1.22941205580558
 6  2.00226070207021 -4.49972219191919 -0.86865972177218
 6  5.43049292559256 -0.22119818371837  0.75384349044904
 6  4.55595138133813  3.82085331663166  0.20428261206121
 6  1.34841608300830  4.13614802230223  0.25523564306431
 6 -6.96660779137914 -3.16649402920292  0.95622508860886
 6 -5.79886848934894 -0.52527725762576 -0.19512098649865
 6 -0.07353234223422  4.06829150075007  0.16309493509351
 6 -0.94161512321232  5.22801389438944  0.43071770037004
 6 -2.24874020022002  4.71238736153615  0.24665606850685
 6  2.91807464876488 -4.08332495159516  0.22596399539954
 6 -5.45678033883388  0.39796502510251 -1.24302536953695
 6  6.78037060326033 -0.76102438653865  0.73399652225222
 6 -3.54619037833783  5.37167346554655  0.60877169226923
 6 -2.02595603190319  3.26806899819982 -0.04386346154615
 6 -0.46575071257126  6.60854472247225  0.80176526632663
 6 -4.40641917881788  5.58989739463946 -0.75918669436944
 1 -0.34180174507451  0.33423912951295  0.21402084878488
 1  3.14995901050105 -1.08355035713571 -1.06975648424842
 1  2.47590884178418 -2.92953766066607 -2.21960439513951
 1  1.08517529682968 -3.96917883548355 -2.81877424392439
 1 -5.59578138433843 -2.24636302540254  2.37753991449145
 1  5.42246255645565  0.12084680118012 -1.34930808380838
 1  5.86809877547755  1.61634594389439 -0.38514981458146
 1 -2.80103819951995 -0.04420992479248 -0.69521242684268
 1  0.64556088778878  1.70955213821382 -0.47142661476148
 1 -1.36759235043504 -4.68264036823682 -0.92064286998700
 1 -2.41271490119012 -3.52673037503750 -1.91290061026103
 1 -1.03325327642764 -4.16850502490249 -2.65638924192419
 1 -2.47729148694869 -3.69870601900190  0.49135638263826
 1  0.91511731843184 -4.93461594409441 -0.48297201470147
 1  2.58987817361736 -5.40981368986899 -1.22949746364636
 1  4.78762318331833 -1.17088313941394  0.73548413461346
 1  5.26864106370637  0.26054049064906  1.75814028472847
 1  4.53694121442144  4.45707617501750 -0.97646762946295
 1  5.60900752355236  3.28926164536454  0.79860638383838
 1  4.06471588898890  4.96128163626363  0.91691299519952
 1  1.95852168416842  5.01123105270527  0.41165095199520
 1 -7.84859763136314 -2.39381537603760  1.07715240924093
 1 -7.48938458275828 -3.85618338423842  1.67828019591959
 1 -7.04705288928893 -3.75559332283228 -0.10284869566957
 1 -6.81883922562256 -0.24701503280328  0.19204113201320
 1 -5.39578442024202  1.51249544644464 -0.59701354945495
 1 -6.47122895259526  0.71114874317432 -1.67069374787479
 1 -4.71117961346135  0.22086893309331 -2.14564577727773
 1 -3.34966484578458  6.38406106190619  1.19878758275828
 1 -4.01177885538554  4.97119625182518  1.34098623642364
 1 -0.03180861556156  6.68494045394540  1.69917264976498
 1 -1.29508089138914  7.25146184168417  0.89210846724672
 1 -0.03812462486249  7.16505500600060  0.01291762596260
 1 -3.91228152395240  6.12064794789479 -1.57936575267527
 1 -5.37555937903790  6.01467420842084 -0.69235437713771
 1 -4.54794931603160  4.69216070837084 -1.28259799819982
 1  3.72369767626763 -4.40607483768377  1.83528216521652
 1  7.82888013271327 -1.85932658495850  1.44915507810781

