%nproc=4
%Mem=4GB
# td=(NStates=1) B3LYP/SVP 

TD

0 1
 8 -4.31844196499650 -4.72811289248925  1.81576694029403
 8  3.03734433253325 -4.87984253345334  1.22134006580658
 8  7.00111049244925 -1.46782432353235  1.93670389088909
 8  3.64616634943494 -3.03232235743574  0.17554041244124
 8  7.47789654165417 -0.94780615991599 -0.23120268956896
 8 -3.04542487128713  2.55079247674767 -0.27268217281728
 7 -0.28262264396440 -0.50872022182218 -0.56693532973297
 7  1.43658134083408  1.70077245604560 -0.29857151925193
 7 -3.35632257525753 -3.14492353915392  0.49422789408941
 7 -0.74491589448945  2.91293171137114 -0.04319934383438
 6  0.66586781918192 -2.42967840614061 -1.43963604670467
 6  0.94973390719072 -1.09835978707871 -0.91634418971897
 6 -0.78667299239924 -2.56463035243524 -1.28708890829083
 6 -1.33743584978498 -1.36942058395840 -0.74040550645065
 6  3.77600554185419  1.41553603890389 -0.21879809620962
 6  2.43051374437444  0.78276960876088 -0.55355691429143
 6  2.23622062636264 -0.44857100290029 -0.98770101510151
 6  3.51546538343834  2.79186719491949  0.08755798289829
 6  1.60550170267027 -3.48515378117812 -2.02478267926793
 6 -5.39406874207421 -2.55830774037404  1.46026596659666
 6 -3.53416547944795 -1.83848891089109  0.18527231223122
 6  2.02118637883788  2.88181460966097  0.03120564356436
 6 -5.02156835313531 -1.54401990519052  0.50663930283028
 6  5.06676515461546  0.74178384838484 -0.31803485988599
 6 -2.67060802300230 -0.99128590019002 -0.37418783318332
 6 -1.56498443614361 -3.76404090639064 -1.75760900460046
 6 -4.36778424522452 -3.67497600330033  1.34124323892389
 6  2.14232470847085 -4.59288150785078 -1.03441629742974
 6  5.43128300460046 -0.13344940884088  0.92235034113411
 6  4.53683947014701  3.80990222152215  0.36216840064006
 6  1.24492573397340  4.06103051055106  0.39970008950895
 6 -6.82392352295230 -3.16364374417442  1.19450891699170
 6 -5.86021462396240 -0.61462619251925 -0.10538201260126
 6 -0.12582757175718  4.07194186578658  0.25676430203020
 6 -1.00090105180518  5.17595868886889  0.63903853245325
 6 -2.30352567876788  4.72770889368937  0.26930833373337
 6  3.01404424572457 -3.99335595469547  0.14298569756976
 6 -5.46956161696170  0.50441567016702 -1.17717878487849
 6  6.65729829602960 -0.94243252735274  0.65631875447545
 6 -3.65958171747175  5.41803810201020  0.24228504360436
 6 -2.03420685698570  3.19105129642964 -0.05575465066507
 6 -0.43657779527953  6.53439730773077  0.78645373517352
 6 -4.12266080298030  5.61767017191719 -1.22431320702070
 1 -0.26417398229823  0.20772647824783  0.30281972867287
 1  3.18857287188719 -0.96479848194819 -1.07128663726373
 1  2.33689494039404 -2.85022972987299 -2.29028146284628
 1  1.07555433473347 -4.09221113871387 -2.88125049154916
 1 -5.50066187238724 -2.29377776687669  2.51179333983398
 1  5.17764807500750  0.20020473697370 -1.29850300330033
 1  5.84309627522752  1.45693000230023 -0.56152745234523
 1 -2.93399149484948  0.18579307550755 -0.45088799439944
 1  0.48408474017402  1.70473165616562 -0.50837030913091
 1 -1.64857044824482 -4.70469257345735 -0.94827563326333
 1 -2.46910053975397 -3.54051175317532 -2.23285260546055
 1 -0.98485843694369 -4.23316149054905 -2.55379898289829
 1 -2.42988674647465 -3.62416856525653  0.53375062206221
 1  1.38661446814681 -5.06758924142414 -0.59078279577958
 1  2.80317950375038 -5.25854856335634 -1.72683719761976
 1  4.62458687968797 -1.01366741784178  1.24390497669767
 1  5.38386258585859  0.59900433703370  1.89032350305031
 1  4.37404492479248  4.81463193059306 -0.40144012671267
 1  5.63046966976698  3.39705242444244  0.28675519871987
 1  4.46841625902590  4.33993950205021  1.41015231913191
 1  2.00394622662266  4.85203513311331  0.84389417631763
 1 -7.60439321092109 -2.31556755125513  1.27854254825483
 1 -7.08418406270627 -3.96536430233023  1.85854822272227
 1 -7.04809299329933 -3.33211097459746  0.09801139033903
 1 -6.84214155585559 -0.55332566386639  0.32558448634863
 1 -4.66562140394039  1.20532472937294 -0.63584743284328
 1 -6.37609943964396  1.08995662396240 -1.58755543404340
 1 -4.91597009250925 -0.10855400920092 -1.81696290899090
 1 -3.53134301360136  6.50915357115712  0.59956766076608
 1 -4.40621829932993  4.85327445964596  0.94191632943294
 1  0.38472303760376  6.63873583348335  1.61708444094409
 1 -1.17874925822582  7.42292898839884  0.84231348774877
 1  0.19184837243724  6.79754825532553 -0.13512717851785
 1 -3.37226752255225  6.14893077617762 -1.78296611271127
 1 -5.21221304440444  6.14529727072707 -1.35365050675068
 1 -4.15110963206321  4.59483097539754 -1.66928666706671
 1  3.81920722722272 -4.64514874507451  1.78842747974798
 1  7.79501674637464 -2.25251590389039  1.80587074967497

