%nproc=4
%Mem=4GB
# td=(NStates=1) B3LYP/SVP 

TD

0 1
 8 -4.50679079987999 -4.77758783998400  1.81509687328733
 8  3.12480307840784 -4.86409095829583  1.16438437023702
 8  6.93946432783278 -1.51430897199720  2.06328654915492
 8  3.56087782058206 -3.03203232843284 -0.00214735633563
 8  7.48212696469647 -0.75896727602760 -0.03578314761476
 8 -3.03886421522152  2.45680307780778 -0.17896280088009
 7 -0.22869725142514 -0.60769011881188 -0.63333196939694
 7  1.53454113681368  1.71518389718972 -0.42137379947995
 7 -3.36489343234323 -3.05806485328533  0.69313778507851
 7 -0.75942734563456  2.97678809700970 -0.14929995389539
 6  0.70714194659466 -2.45422086038604 -1.46164824792479
 6  0.94062299609961 -1.20929088018802 -0.97026958225823
 6 -0.70465479057906 -2.69474336373637 -1.27994819421942
 6 -1.28827093329333 -1.50110375227523 -0.70908237413741
 6  3.79361730303030  1.38498298359836 -0.35658187458746
 6  2.45996668966897  0.85073640544054 -0.63809536813681
 6  2.14383138743874 -0.49911605740574 -0.95990823582358
 6  3.49783362026203  2.74743275147515 -0.04623539643964
 6  1.75525667816782 -3.41515678147815 -1.90873107410741
 6 -5.45855519071907 -2.51827373697370  1.45756569656966
 6 -3.53360542344234 -1.78406346834683  0.20988477347735
 6  2.10293455365537  2.89397582578258 -0.07437491449145
 6 -5.03591978827883 -1.49335483868387  0.48776741564156
 6  5.08674715281528  0.71240091009101 -0.37780083648365
 6 -2.57031799399940 -1.06071284288429 -0.47109752415242
 6 -1.52513045074507 -3.88380288258826 -1.80315355905591
 6 -4.52291975877588 -3.67991649734974  1.30504961956196
 6  2.03009348534854 -4.47013923362336 -0.96301915771577
 6  5.37096697299730 -0.15204126802680  0.87381548764876
 6  4.51153693989399  3.81677290859086  0.25226741054105
 6  1.36777801920192  4.01132554005401  0.28744886438644
 6 -6.89982111271127 -2.98450583038304  1.34062352845285
 6 -5.76145474797480 -0.61060579047905 -0.17648912331233
 6 -0.06953194219422  4.07115178677868  0.10918954455446
 6 -0.98196915861586  5.25762685568557  0.38951357995800
 6 -2.23481880808081  4.71492761556156  0.34395579847985
 6  2.99541238253825 -4.09966658575858  0.04811621062106
 6 -5.39121378217822  0.41988721732173 -1.36913798079808
 6  6.69825239143914 -0.78490677477748  0.98588171077108
 6 -3.52155791509151  5.47072337053705  0.47268808390839
 6 -2.13916735303530  3.24387657895790 -0.00006908210821
 6 -0.45109924742474  6.49495336333633  0.90812590239024
 6 -4.33071160806081  5.60234863976398 -0.80008078377838
 1 -0.58561612651265  0.17097280288029 -0.20020057335734
 1  2.92967698229823 -1.12224422652265 -1.16010551915192
 1  2.65599685058506 -2.83797850475048 -2.21064349904991
 1  1.39403618291829 -3.93288520612061 -2.73396576307631
 1 -5.44783658985899 -2.28184657375738  2.62473463396340
 1  5.28502881308131  0.14527924442444 -1.30579373237324
 1  5.86322828842884  1.44113842314231 -0.43633493309331
 1 -2.75099319501950 -0.03706921072107 -0.60550345594559
 1  0.44966129782978  1.71391257425743 -0.64499397149715
 1 -1.78422401360136 -4.72284438863886 -1.14356516221622
 1 -2.48507213691369 -3.70353805580558 -2.22868218841884
 1 -0.88718866996700 -4.42818099249925 -2.66904050705071
 1 -2.54690844864486 -3.49955610401040  0.61859910691069
 1  1.19340514721472 -4.87158964146415 -0.46604032153215
 1  2.42799198499850 -5.38333104160416 -1.41033554745474
 1  4.61920634163416 -0.96031208230823  0.89320990719072
 1  5.20063426302630  0.60328476507651  1.78780325102510
 1  4.61376889718972  4.70429089648965 -0.26876685938594
 1  5.59269589238924  3.34848756795680  0.31843836703670
 1  4.42132154955496  4.30298580668067  1.32268357225723
 1  1.95910174217422  4.97194712431243  0.53823361026103
 1 -7.75125789738974 -2.13629962446245  1.26811150515052
 1 -7.25656130043004 -3.66760452635263  1.97513988188819
 1 -6.90157834183418 -3.62686044954495  0.36265785498550
 1 -6.99804714641464 -0.63555388668867 -0.17597566966697
 1 -4.67930277207721  1.23173737063706 -0.95361921002100
 1 -6.10473230293029  0.73998162646265 -1.99809648814882
 1 -4.72027052255226 -0.15776893069307 -2.12309352205221
 1 -3.35198507780778  6.55177783358336  1.01471917591759
 1 -4.10623830133013  4.78438757095710  1.14217635543554
 1  0.05246981228123  6.53936589648965  2.03657639013901
 1 -1.24594597789779  7.27181387688769  1.01712096849685
 1  0.32504169176918  7.05338383888389  0.13313964816482
 1 -3.84493478927893  6.20774665776578 -1.64724254035404
 1 -5.29213103620362  6.22508524952495 -0.56582172387239
 1 -4.62114663576358  4.55342683498350 -1.32453219161916
 1  3.54814012051205 -4.19857408760876  1.86413505050505
 1  7.86645389008901 -1.83714436673667  1.83146330893089

