%nproc=4
%Mem=4GB
# td=(NStates=1) B3LYP/SVP 

TD

0 1
 8 -4.52900302110211 -4.81463154435443  1.77236259985999
 8  2.74839543764376 -4.72875742494249  1.38318625042504
 8  7.22132251365137 -1.36584412551255  1.82220244074407
 8  3.75603733653365 -3.08162728792879  0.21764462286229
 8  7.60678943094309 -0.53386476577658 -0.19143871317132
 8 -2.93460378917892  2.35530292779278 -0.24068897349735
 7 -0.34633901560156 -0.49301865166517 -0.68911754795480
 7  1.52468015071507  1.75268764756476 -0.31412307440744
 7 -3.46477342034203 -3.18624767156716  0.51647011831183
 7 -0.69234063696370  2.89113953215322 -0.08637366126613
 6  0.60883211561156 -2.45689112741274 -1.34101618471847
 6  0.93328226202620 -1.06485643674367 -0.97043959925993
 6 -0.86205053015302 -2.63018690809081 -1.24537473687369
 6 -1.33540564676468 -1.43868751065107 -0.73736520242024
 6  3.78578651995200  1.46567105240524 -0.32580879727973
 6  2.56206689968997  0.76766809860986 -0.54268582718272
 6  2.23952095639564 -0.47698384418442 -0.85889813481348
 6  3.52133597049705  2.77914592279228  0.04116334343434
 6  1.52955410791079 -3.50478574437444 -1.80446064706471
 6 -5.66639597479748 -2.68204011361136  1.36564650465047
 6 -3.69329139203920 -1.90123518551855  0.09573335833583
 6  2.15470973117312  2.93160958915892  0.03424594759476
 6 -5.09989618591859 -1.57405290849085  0.33066170507051
 6  5.16585506360636  0.66370604060406 -0.54624768116812
 6 -2.70263122532253 -1.06402317391739 -0.44655506990699
 6 -1.54503244094409 -3.88751325362536 -1.75247849154915
 6 -4.47943541034103 -3.73937244294429  1.25872498709871
 6  1.98046852285229 -4.50116233593359 -0.85013786958696
 6  5.49368924522452 -0.15572163606361  0.76774488058806
 6  4.57503328952895  3.76639787108711  0.39458164196420
 6  1.39935117651765  4.15129953745375  0.16948706820682
 6 -7.04190532113211 -3.20282766256626  1.24261372747275
 6 -5.89186778927893 -0.66072080198020 -0.18271974637464
 6  0.00306531753175  4.04157882948295  0.17012563816382
 6 -0.91024198589859  5.08047914091409  0.57216184478448
 6 -2.16504183038304  4.66908303110311  0.38624002690269
 6  2.88865170647065 -3.97557417651765  0.20846224522452
 6 -5.58421308210821  0.26409163776378 -1.31144221122112
 6  6.85008757495750 -0.70285856995700  0.72322544514451
 6 -3.45728148744874  5.48618491669167  0.47572838793879
 6 -2.02709614591459  3.19999219051905 -0.07115619081908
 6 -0.44164830233023  6.51726559455946  0.95910099989999
 6 -4.01184972187219  5.92709111401140 -0.93029380508051
 1 -0.62485004990499  0.37768347394739 -0.03677423072307
 1  3.04995901050105 -1.39511151325132 -0.84972448104810
 1  2.47653890479048 -3.06354106100610 -2.22271470617062
 1  1.21651843114311 -3.89737165476548 -2.86057842434243
 1 -5.33016482268227 -2.31781017011701  2.34655681618162
 1  5.23690400060006  0.04844956145615 -1.42258541154115
 1  5.93668563416342  1.46160046934693 -0.71872317191719
 1 -3.02415051075107  0.00571506770677 -0.43670657625763
 1  0.63046937863786  1.80339152215222 -0.55251472357236
 1 -1.33265885708571 -4.83053515771577 -1.11985279097910
 1 -2.58396202590259 -3.50957865986599 -1.87881720192019
 1 -1.49586953805381 -4.30091826622662 -2.81295489848985
 1 -2.48015177297730 -3.42313846224622  0.71496874387439
 1  1.26452225892589 -5.05535801830183 -0.31707542504250
 1  2.86974616041604 -5.09445215371537 -1.43822833673367
 1  4.68221264226423 -0.80209626072607  0.95743632983298
 1  5.42311651125113  0.49333376997700  1.66333080378038
 1  4.50300782108211  4.53255372277228 -0.48121810451045
 1  5.63604022682268  3.46662938213821  0.30796731993199
 1  4.59056847424742  4.22905841394139  1.50421172507251
 1  2.01364719671967  5.00025995559556  0.26514630153015
 1 -7.66996976857686 -2.43258925342534  1.36269096309631
 1 -7.18062370667067 -3.89688745464546  2.02707507540754
 1 -7.15657384138414 -3.59566733023302  0.18496008520852
 1 -6.82643998569857 -0.81575190649065  0.24403633153315
 1 -5.62432727452745  1.31548574547455 -0.94929877797780
 1 -6.52692452215221  0.37372500080008 -2.07196387488749
 1 -4.68123661916192 -0.17251040484048 -1.82929414211421
 1 -3.65112499179918  6.18531118691869  1.22299000300030
 1 -4.24157183468347  4.67488662086209  1.03919605740574
 1  0.51913647894789  6.40189214911491  1.47799053155316
 1 -1.29649103240324  7.00751744724472  1.55679493589359
 1 -0.21758257065707  7.04537303780378 -0.09939360516052
 1 -3.38061835763576  6.79756563966397 -1.42704052015202
 1 -4.95074689778978  6.51511425242524 -0.65231037273727
 1 -4.00660518161816  5.04594608690869 -1.75445518391839
 1  3.46354166066607 -4.53239746994700  1.99808844584458
 1  8.21198844354435 -1.58396904920492  1.56671683428343

