%nproc=4
%Mem=4GB
# td=(NStates=1) B3LYP/SVP 

TD

0 1
 8 -4.55937605840584 -4.81250133133313  1.82329769336934
 8  3.13895449354936 -5.01953650285028  1.19768770057006
 8  6.99390977237724 -1.50091763286329  1.77242746324632
 8  3.79633136593659 -3.19433855905591  0.06798965736574
 8  7.86406515851585 -0.28208958825883  0.15572600330033
 8 -3.14168449724972  2.43591098859886 -0.10274517911791
 7 -0.35150953265327 -0.66096544634463 -0.41900053625363
 7  1.52416009870987  1.78080045884588 -0.46197785988599
 7 -3.45862280528053 -3.19051809860986  0.49072754405441
 7 -0.81879328222822  2.83387380558056 -0.03766879077908
 6  0.63027425982598 -2.53004844314431 -1.26616869997000
 6  0.95413434723472 -1.27185713681368 -0.83025558085809
 6 -0.80516484158416 -2.61849573897390 -1.29429962936294
 6 -1.34902700890089 -1.49171281318132 -0.63853531943194
 6  3.72660060136014  1.42181666696670 -0.37513372977298
 6  2.45085577857786  0.75943727552755 -0.56100765936594
 6  2.23530053435343 -0.63253939973997 -0.86062830783078
 6  3.56539037593759  2.72442045024502 -0.02793356625663
 6  1.59470062256226 -3.60352561836184 -1.97097729872987
 6 -5.63386272147215 -2.59595150475048  1.32150209020902
 6 -3.64778684158416 -1.83603866586659  0.14249803480348
 6  2.03255751595160  2.91957838603860 -0.09428690569057
 6 -5.06388258455846 -1.50787629082908  0.38394703360336
 6  5.03868234633463  0.77390706070607 -0.48858191459146
 6 -2.71295225742574 -1.00489726132613 -0.38896931133113
 6 -1.65183312101210 -3.85328983128313 -1.80935417911791
 6 -4.48385585238524 -3.70925943164316  1.24460357495750
 6  2.05991646764676 -4.59083130283028 -0.87536039183918
 6  5.42478235453545 -0.13510957485749  0.71971007710771
 6  4.49961574777478  3.81262249354935  0.36171835563556
 6  1.27557879927993  4.15459986748675  0.21727184668467
 6 -6.95000613121312 -3.27190457025703  1.04427389348935
 6 -5.83232183468347 -0.42804753465347 -0.03043451785179
 6 -0.10405539453945  3.98642331393139  0.16496512211221
 6 -0.91223218491849  5.19277037003700  0.47604223282328
 6 -2.13927925412541  4.72381850465047  0.31611301420142
 6  3.04033687498750 -4.08778539763976  0.16958835783578
 6 -5.42456711751175  0.47168239683968 -1.07557862486249
 6  6.84757732393239 -0.57035531963196  0.78575169776978
 6 -3.44754051335134  5.54977127532753  0.37360817591759
 6 -2.19118255455546  3.22365455675568  0.04038496329633
 6 -0.44075821332133  6.53317718571857  0.79107419721972
 6 -3.91279981688169  5.95702410731073 -1.06542731843184
 1 -0.51117868276828  0.25472117771777 -0.04390494379438
 1  3.19500351495150 -1.29709171127113 -1.07392690129013
 1  2.49358060896090 -2.95397010391039 -2.31377381208121
 1  1.05210198949895 -4.23311522912291 -2.70055242174217
 1 -5.70369217541754 -2.25448383748375  2.26611877237724
 1  5.23863417361736  0.12286700320032 -1.38397155015502
 1  5.74486645224522  1.64492880218022 -0.70368166776678
 1 -2.77990608630863  0.11084558075808 -0.45125803140314
 1  0.31505783748375  1.87103828682868 -0.39143861596160
 1 -1.72528812001200 -4.57371947614762 -1.00163096879688
 1 -2.62422605230523 -3.47959566156616 -2.06209552975298
 1 -1.16998694979498 -4.21563973837384 -2.76629023202320
 1 -2.54448820662066 -3.70453660206021  0.51697894489449
 1  1.16993279998000 -5.00742322482248 -0.24931864936494
 1  2.62851203700370 -5.35576828532853 -1.44138865276528
 1  4.62214663566357 -1.10110616171617  0.79878046424642
 1  5.15051925152515  0.49426386298630  1.55595006570657
 1  4.22264978527853  5.01403187058706  0.00926094339434
 1  5.56120274307431  3.78250096929693 -0.06972044884488
 1  4.63646306370637  3.95029053715372  1.56237754165417
 1  1.89813564556456  5.06884681428143  0.17875766266627
 1 -7.76129890149015 -2.53696969146915  0.97569226322632
 1 -7.22364800910091 -4.00182794869487  1.90804317221722
 1 -7.14890307430743 -3.64013177667767 -0.07877628842884
 1 -6.97812515421542 -0.33456378767877  0.25914784268427
 1 -4.52200704250425  1.19568376527653 -0.67280112821282
 1 -6.37100893059306  1.23758138643864 -1.43154983348335
 1 -5.03963245874587 -0.16880003380338 -1.94758597129713
 1 -3.26232611191119  6.36501915771577  1.11627933193319
 1 -4.31311898939894  5.09461859405941  1.02808494629463
 1  0.10728529382938  6.36863882378238  1.70401313381338
 1 -1.16189757305731  7.37345404090409  0.94547380378038
 1  0.58656784438444  6.75174367486749  0.01797813201320
 1 -3.03370366616662  6.63236912001200 -1.50072788888889
 1 -4.78726054915492  6.61305404640464 -0.99853499519952
 1 -4.22362688378838  4.97097859015902 -1.58946868526853
 1  3.68631393789379 -4.66005023522352  1.94164280128013
 1  8.02695994069407 -1.73077372967297  1.68581874447445

