%nproc=4
%Mem=4GB
# td=(NStates=1) B3LYP/SVP 

TD

0 1
 8 -4.26141626242624 -4.67209729092909  1.91505686928693
 8  2.54592519061906 -4.69718426762676  1.39414734653465
 8  7.12421280268027 -1.20531807290729  1.93468368886889
 8  3.62792452525253 -3.12131125632563  0.23847670607061
 8  7.69140789278928 -0.62645402470247 -0.09134870417042
 8 -3.05187551635164  2.49396679417942 -0.26506141074107
 7 -0.33379776147615 -0.51715106490649 -0.74891352755276
 7  1.64305198789879  1.75705808460846 -0.47674933703370
 7 -3.35941288428843 -3.07168621542154  0.58620709200920
 7 -0.71586298919892  2.92805322352235 -0.05314033793379
 6  0.63187441984198 -2.44938037633763 -1.41441352445245
 6  0.94065299909991 -1.12517246834683 -1.03974652995300
 6 -0.76384070917092 -2.65771966136614 -1.36025622502250
 6 -1.31616372257226 -1.38672231413141 -0.81232269816982
 6  3.79574751605160  1.39680416571657 -0.29143535993599
 6  2.54048474147415  0.75891722352235 -0.66842840144014
 6  2.18313531783178 -0.56232237803780 -1.02728497349735
 6  3.62457629452945  2.71732974117412  0.03756298339834
 6  1.67193834633463 -3.46808207400740 -1.92005220622062
 6 -5.50281961716172 -2.51969387898790  1.38226816681668
 6 -3.66030809370937 -1.87324238623862  0.01387517251725
 6  2.15298955915592  2.90673710191019 -0.05928340534053
 6 -5.03073927022702 -1.50236573977398  0.36785542444244
 6  5.15189366746675  0.67335700570057 -0.45463852025203
 6 -2.68722968516852 -1.04790156175618 -0.55788620302030
 6 -1.48599653735374 -3.89661416371637 -1.83752699639964
 6 -4.40680814761476 -3.60456896259626  1.46779589418942
 6  2.07522799879988 -4.50886310601060 -0.92332518831883
 6  5.37461733803380 -0.35792185608561  0.62780088618862
 6  4.50738652485249  3.72122335363536  0.54720690449045
 6  1.29583082448245  4.07614202170217  0.33935405490549
 6 -6.87434856545655 -3.22122950275028  1.17134660076008
 6 -5.91678028052805 -0.59275400530053 -0.14875635003500
 6 -0.04790977997800  3.97125179677968  0.30403902950295
 6 -0.95061602330233  5.14518561156116  0.49529415801580
 6 -2.24513984018402  4.66033215601560  0.37312871577158
 6  2.80297313861386 -4.03417003610361  0.26142754175418
 6 -5.48470313111311  0.43428865746575 -1.12343341034103
 6  6.87947051325133 -0.79821810591059  0.71622474507451
 6 -3.58173393269327  5.43564986318632  0.44691550665067
 6 -2.07678111441144  3.18024021532153 -0.04347342254225
 6 -0.51989612711271  6.47044091209121  0.86116120592059
 6 -4.23589212611261  5.55925433033303 -0.87131790749075
 1 -0.63119068396840  0.44960066566657 -0.34832538583858
 1  2.95362937753775 -1.28927092919292 -1.03139264786479
 1  2.50687193809381 -2.81426613351335 -2.39084151885189
 1  1.25129190849085 -3.84416633423342 -2.84519688618862
 1 -5.57674948114811 -1.97817620672067  2.32895505600560
 1  5.50897120732073  0.26671138763876 -1.51492464546455
 1  5.85984795039504  1.35850015931593 -0.44895619521952
 1 -2.91600969666967  0.00394489068907 -0.62310521612161
 1  0.50420675237524  1.86770795379538 -0.71168064016402
 1 -1.62606819801980 -4.60593269746975 -1.08126893259326
 1 -2.56878050775077 -3.69928763076308 -2.11420074027403
 1 -1.10716066716672 -4.41369954435443 -2.78544214721472
 1 -2.44137789558956 -3.54489063746375  0.35643289028903
 1  0.99225503220322 -4.89551203370337 -0.55100881838184
 1  2.66832601840184 -5.31647435593559 -1.53910842474247
 1  4.82502692369237 -1.40153620472047  0.30586117231723
 1  5.02103630323032  0.04436887348735  1.62815728642864
 1  4.34535205550555  4.75062552995300  0.18347836513651
 1  5.63722034483448  3.38003072227223  0.24473099629963
 1  4.79365878327833  3.83593910201020  1.84323562746275
 1  1.83632946494649  4.91065099469947  0.50322010891089
 1 -7.60680345194519 -2.36718271277128  1.30271496549655
 1 -7.18300394469447 -4.07090485638564  1.91229359725973
 1 -6.63272145614561 -3.56415417891789  0.29729131833183
 1 -6.92656999869987 -0.55071540284028  0.29145107300730
 1 -4.87861270307031  1.32837703460346 -0.41434528262826
 1 -6.41980381008101  0.90480810911091 -1.56357303580358
 1 -4.57303579907991  0.05973281948195 -1.65948716141614
 1 -3.43199307860786  6.40286294209421  0.84098180218022
 1 -4.22099977747775  4.76759589178918  1.23317545534553
 1 -0.13950938563856  6.13797575747575  1.99812254475448
 1 -1.43186456975698  7.34746144164416  0.86212546894690
 1  0.60724991259126  7.03562206270627  0.22508884308431
 1 -3.44554485028503  6.05154103720372 -1.48294611071107
 1 -5.10462228532853  6.11511425242524 -0.75393053475348
 1 -4.65443996509651  4.79630112241224 -1.37279701810181
 1  3.17105241174117 -4.55789001920192  2.11287992499250
 1  8.04527177187719 -1.53080373267327  2.18868903150315

