%nproc=4
%Mem=4GB
# td=(NStates=1) B3LYP/SVP 

TD

0 1
 8 -4.37866798759876 -4.71945202640264  1.88055341894189
 8  2.85906650475048 -4.63804835403540  1.44821275307531
 8  7.20169055045505 -1.22298984008401  1.87565778627863
 8  3.75921765456546 -3.10634976017602  0.17293015141514
 8  7.64213296529653 -0.42615399469947 -0.30012958225823
 8 -3.03069339813981  2.42226962446245 -0.21014591919192
 7 -0.34519890159016 -0.61776112591259 -0.55357399359936
 7  1.52761044374437  1.75969834863486 -0.32885454755476
 7 -3.42538948194819 -3.10011905870587  0.48864733603360
 7 -0.79016041894189  2.95477589578958 -0.06464148804880
 6  0.56699793219322 -2.49629506780678 -1.30900298339834
 6  0.87171610541054 -1.17166711781178 -0.88445100040004
 6 -0.85023934903490 -2.69941383078308 -1.28500870027003
 6 -1.40210231643164 -1.44186782868287 -0.71044251015102
 6  3.79659760106011  1.36738122342234 -0.39636585298530
 6  2.43801449444944  0.71897322912291 -0.59473103170317
 6  2.06842384668467 -0.58605475127513 -0.85915816081608
 6  3.52860669756976  2.67165517371737 -0.00875164806481
 6  1.64036518901890 -3.56773203900390 -1.90225042604260
 6 -5.58532786798680 -2.56634854445445  1.31332127212721
 6 -3.68710077297730 -1.82208727072707  0.04050783578358
 6  2.20683494369437  2.95773220142014 -0.05846332333233
 6 -5.07394359065907 -1.40678618181818  0.38312695159516
 6  5.04600307840784  0.52037170717072 -0.47388044444444
 6 -2.72840380258026 -1.10327709930993 -0.48611902630263
 6 -1.57783572127213 -3.88298280058006 -1.77369061276128
 6 -4.41398886568657 -3.60130863656366  1.34198331293129
 6  2.14370484648465 -4.61894411411141 -0.87748060386039
 6  5.38294817111711 -0.22183824772477  0.72390049614961
 6  4.65446123232323  3.64405563686369  0.47506969076908
 6  1.32459370077008  4.11808621612161  0.19869998949895
 6 -6.95148627922792 -3.19885726552655  0.92594206030603
 6 -5.85408401090109 -0.43376810671067 -0.20033150755076
 6 -0.09820480948095  4.05294996659666  0.26820544614461
 6 -0.96934789648965  5.18113920692069  0.47139176777678
 6 -2.21622694889489  4.63256937973797  0.43351475437544
 6  2.92301514281428 -3.94698131723172  0.28166956595660
 6 -5.39055371617162  0.51555678427843 -1.29546061306131
 6  6.87324989118912 -0.70444872897290  0.63624674727473
 6 -3.51420718001800  5.34344064226423  0.56391720682068
 6 -2.05558899519952  3.22405459675968  0.05730665546555
 6 -0.36645078257826  6.50687455545555  0.78991408120812
 6 -4.16311484838484  5.64602300720072 -0.85391616731673
 1 -0.66188375327533  0.18312401800180 -0.09434998829883
 1  2.94723873847385 -1.30414241634163 -1.07968747734773
 1  2.47131838273827 -2.79551425832583 -2.21269370407041
 1  1.31548832813281 -3.98549046664666 -2.80424279077908
 1 -5.96730853705371 -2.16180456955696  2.34295645614561
 1  5.06253656385638 -0.22109739323932 -1.23991714471447
 1  5.99221118671867  1.16847115641564 -0.86284758435844
 1 -2.87716581228123 -0.08745424922492 -0.35120802640264
 1  0.52212854455446  2.00666184918492 -0.46661613371337
 1 -1.45803139433943 -4.85094719891989 -1.02635344104410
 1 -2.60825445514551 -3.62172987498750 -2.25074439463946
 1 -0.84664461556156 -4.19008718311831 -2.61019462246225
 1 -2.50950470827083 -3.40933708210821  0.38434568156816
 1  1.29124493119312 -5.05927841034103 -0.37072078957896
 1  2.69134832063206 -5.49716242474247 -1.33877839173917
 1  4.77911233223322 -1.22447849894989  0.68941952815281
 1  5.35027922752275  0.42458689528953  1.63883835453545
 1  4.66823434373437  4.65030549794980  0.11601161846185
 1  5.64156077887789  3.27732045124512  0.37125364856486
 1  4.57545696309631  3.76829233733373  1.57478878277828
 1  1.85206103810381  5.05622555215522  0.38061784868487
 1 -7.93445621722172 -2.68392438693869  0.97250194419442
 1 -7.17690333463346 -4.18246601250125  1.55989835773577
 1 -6.93342152615262 -3.69547731123112 -0.09150756155616
 1 -6.92457979967997 -0.70035036633663  0.03352528042804
 1 -4.71632647444744  1.39308350525052 -0.87177102520252
 1 -6.31039286898690  0.89297692599260 -1.71349802830283
 1 -4.88324682018202 -0.04622777657766 -2.09585079777978
 1 -3.46492637193719  6.36350900670067  1.23226093009301
 1 -4.18533621112111  4.59900903310331  1.25620775857586
 1  0.40887545284528  6.46375833573357  1.65308804130413
 1 -1.21809319261926  7.18518521402140  1.25359461586159
 1  0.05718490609061  7.17914641514151  0.13809014321432
 1 -3.29459975577558  6.27755363846385 -1.37613542964296
 1 -5.11957378047805  5.98936167716772 -0.74944008570857
 1 -4.22530705180518  4.58685017731773 -1.31187092549255
 1  3.34871017751775 -4.09282351255126  2.21589022602260
 1  8.11533877857786 -1.71219187148715  1.95924608720872

