%nproc=4
%Mem=4GB
# td=(NStates=1) B3LYP/SVP 

TD

0 1
 8 -4.62684280508051 -4.78298838003800  1.80759612321232
 8  2.80366096419642 -4.75225977517752  1.42107003880388
 8  7.18359874127413 -1.41827936903690  1.83497371787179
 8  3.76527826062606 -3.25995512071207  0.09065192359236
 8  7.58197694969497 -0.64289566886689 -0.21491106040604
 8 -3.06082641144114  2.51132853035304 -0.27223212781278
 7 -0.27897227892789 -0.63880323012301 -0.67033566976698
 7  1.56769445214521  1.81014339313931 -0.47953961606161
 7 -3.48462540554055 -3.16690573737374  0.66994546584658
 7 -0.70705210811081  2.99942036023602 -0.11946697059706
 6  0.75094632703270 -2.48379381768177 -1.40517260036004
 6  0.93112204600460 -1.09984993609361 -1.04253680898090
 6 -0.73697802290229 -2.78623251265127 -1.33605380478048
 6 -1.26020812701270 -1.56430007190719 -0.75195666156616
 6  3.74504244554455  1.42691717701770 -0.41383760016002
 6  2.47942863586359  0.89120045184518 -0.65228678727873
 6  2.20266727102710 -0.48426457225723 -0.83447569256926
 6  3.55194903180318  2.71541955015502 -0.09462023492349
 6  1.69536068856886 -3.45319058485849 -1.96575677667767
 6 -5.57015635083508 -2.51436334593459  1.37608754875488
 6 -3.64727679057906 -1.87662272427243  0.27842162716272
 6  2.12067632783278  3.04809123732373 -0.05237271427143
 6 -5.01319751605160 -1.52219772297230  0.41783042194219
 6  5.06797527562756  0.59964963496350 -0.39466252265227
 6 -2.62186314851485 -1.09513628522852 -0.39944035843584
 6 -1.48326626432643 -3.96790129242924 -1.80065330903090
 6 -4.58966643344334 -3.70602910861086  1.31619073367337
 6  2.06587706370637 -4.62332455215522 -0.83635649144914
 6  5.47269714601460 -0.14905096899690  0.80382848894889
 6  4.51793757995800  3.87837906920692  0.31666385018502
 6  1.38723996539654  4.14656906440644  0.30394051355136
 6 -6.98912004260426 -2.92262964276428  1.08934840094009
 6 -5.73488209070907 -0.59432416231623 -0.32795426982698
 6 -0.04781977097710  4.07548221982198  0.26415504110411
 6 -0.93822478417842  5.25057615061506  0.52508713731373
 6 -2.12555788198820  4.64797091989199  0.43487489038904
 6  2.93283612491249 -4.07995461456146  0.33664506350635
 6 -5.35186984778478  0.36158138673867 -1.46557762476248
 6  6.80326289248925 -0.74077236133613  0.76110923352335
 6 -3.57474323362336  5.31658795699570  0.63968478357836
 6 -2.13465690199020  3.20479267056706  0.01090201500150
 6 -0.55840997849785  6.68149201720172  0.79266435623562
 6 -4.28521705860586  5.72464086898690 -0.60046082178218
 1 -0.53503106800680  0.31046675227523 -0.33398395169517
 1  2.94560857545755 -1.19734173627363 -0.76089559815982
 1  2.75599685058506 -3.02222692959296 -2.23449588428843
 1  1.35602238153815 -4.18596051365136 -2.69552191869187
 1 -5.69272107830783 -2.42410079917992  2.33064522502250
 1  5.14737504770477  0.06119083558356 -1.21427458045805
 1  5.84063602920292  1.44217852715271 -0.40274157375738
 1 -2.70648874457446 -0.07621312511251 -0.45637854345435
 1  0.46208253995400  1.85532671567157 -0.63230270237024
 1 -1.64634022522252 -4.59142124632463 -0.83542434813481
 1 -2.49454308400840 -3.71219892189219 -1.98468778897890
 1 -1.06920687178718 -4.60119829422942 -2.42475607860786
 1 -2.50263402120212 -3.58883503190319  0.70838808580858
 1  0.98038384508451 -4.96694917741774 -0.43544726222622
 1  2.85715490129013 -5.29278198669867 -1.31605611951195
 1  4.72909733073307 -0.90689674077408  1.07998858505851
 1  5.52806700630063  0.60583502010201  1.65546001670167
 1  4.37341486178618  4.77140760816082 -0.27697768046805
 1  5.49918654145415  3.36255897509751  0.43226975017502
 1  4.53406282368237  4.14265977407741  1.42298360226023
 1  1.81983781578158  5.16707663726373  0.55618540544054
 1 -7.74666743834383 -2.12139813431343  1.32242693669367
 1 -7.32386803110311 -3.90246801270127  1.70109247714771
 1 -6.97868605260526 -3.24136189968997  0.01716330553055
 1 -6.75856319801980 -0.47163749504951  0.10541246914691
 1 -5.16400124192419  1.25015921282128 -1.06130997909791
 1 -6.30950277997800  0.36949457775778 -2.17084376287629
 1 -4.50678917441744 -0.13000615441544 -2.07512872557256
 1 -3.26780665996600  6.26982963876388  1.30294799879988
 1 -4.16168384588459  4.64804393659366  1.44790692849285
 1  0.41036560186019  6.78966092599260  1.36604933743374
 1 -1.46797818111811  7.23464015951595  1.26386564296430
 1 -0.39916072847285  7.25925442594259 -0.24682834863486
 1 -3.85088538433843  6.44082996609661 -1.17402521862186
 1 -5.30420224332433  5.94767750875087 -0.26058119981998
 1 -4.25944046514651  4.83325481778178 -1.37521726012601
 1  3.64818012451245 -4.52063629382938  1.93300193719372
 1  8.08754599929993 -1.92675332763276  1.78399856245624

