%nproc=4
%Mem=4GB
# td=(NStates=1) B3LYP/SVP 

TD

0 1
 8 -4.52306242704270 -4.83144322552255  1.81800716431643
 8  2.82538313641364 -4.83359790899090  1.19452738453845
 8  7.12326270767077 -1.31789933103310  1.88501872237224
 8  3.64648638143814 -3.23653277847785  0.12012487088709
 8  7.43538229022902 -0.62104348364836 -0.20315988528853
 8 -2.96143647244724  2.42635003250325 -0.11542644724472
 7 -0.23258764046405 -0.57731708150815 -0.47198583478348
 7  1.60243792649265  1.79147152595260 -0.32619428152815
 7 -3.44718166116612 -3.18093714051405  0.79796826812681
 7 -0.66814821772177  2.94454487268727 -0.13601862576258
 6  0.61098233063306 -2.41425686398640 -1.40725280838084
 6  1.00787972177218 -1.07982793389339 -0.88447100240024
 6 -0.76566089118912 -2.63716760616062 -1.24877507690769
 6 -1.32214432063206 -1.44838848074808 -0.66611807770777
 6  3.82910085138514  1.42681716701670 -0.40764698109811
 6  2.50472116511651  0.84056538833883 -0.67579913851385
 6  2.19222622692269 -0.50321646744674 -0.94090633563356
 6  3.49334317121712  2.77794580278028 -0.00583135603560
 6  1.59312046454645 -3.45045031083108 -1.96423662466247
 6 -5.65654498969897 -2.58924083368337  1.39948988898890
 6 -3.67208927182718 -1.90821588358836  0.08425221022102
 6  2.16066032623262  2.91949837803780  0.03680620362036
 6 -4.99656585288529 -1.58993449664967  0.42897153605361
 6  5.17394587268727  0.74151382138214 -0.34593765016502
 6 -2.67353831603160 -1.00536730833083 -0.33975438983898
 6 -1.57352529022902 -3.75485998829883 -1.82577582128213
 6 -4.49317678447845 -3.71793029872987  1.44062317691769
 6  1.98053852985299 -4.61910413011301 -1.00378323412341
 6  5.37417729402940 -0.05840190409041  0.87827593369337
 6  4.52992877907791  3.79571080238024  0.35158734253425
 6  1.43959520092009  4.12525693319332  0.33910402990299
 6 -6.99324045464546 -3.25014239403940  1.07054652075208
 6 -5.72512111461146 -0.70220495039504 -0.23317479187919
 6  0.01768677967797  4.06149082068207  0.26476510211021
 6 -0.91526248794879  5.22848394139414  0.47543217181718
 6 -2.19838516471647  4.75201132393239  0.30534193709371
 6  2.93712655395540 -4.16362298139814  0.11100249924993
 6 -5.38410307110711  0.31478670727073 -1.31989305630563
 6  6.71951451765177 -0.70000828492849  0.76408953155316
 6 -3.57201296059606  5.34127042524252  0.44168498359836
 6 -2.03392682898290  3.31976416771677 -0.00336941214121
 6 -0.47934207170717  6.63994786278628  0.77494258405841
 6 -4.11610014691469  5.70349875477548 -1.00574134983498
 1 -0.39478704360436  0.32234794039404  0.00901034773477
 1  3.12725674027403 -1.06317831993199 -0.95765527412741
 1  2.47109836073607 -2.83824853175318 -2.34012644734473
 1  1.18432521182118 -3.86606852445245 -2.95718808530853
 1 -5.73026483268327 -2.18124651375137  2.42703486398640
 1  5.35840615081508  0.07239195569557 -1.32693584658466
 1  6.03258522412241  1.36594090339034 -0.63272457205721
 1 -2.90477857355736 -0.03741924572457 -0.53438634423442
 1  0.56415274697470  1.75824700770077 -0.30306977907791
 1 -1.65165075627563 -4.76045815001500 -1.27530833653365
 1 -2.56973060276028 -3.42554025602560 -2.04114343454345
 1 -1.01268121922192 -3.98640681508151 -2.59377298029803
 1 -2.45382914071407 -3.61284743314331  0.82815006200620
 1  1.09746555325533 -4.95788827132713 -0.37770148764876
 1  2.42083126892689 -5.53006571507151 -1.70229474337434
 1  4.45891031203120 -0.78044409550955  1.18229881608161
 1  5.64227842744275  0.58336277287729  1.74324879557956
 1  4.38002552285229  4.70740120752075 -0.13380336303630
 1  5.58766538933893  3.54394711391139  0.22209873307331
 1  4.59225864326433  4.09296480458046  1.37877918181818
 1  2.06063189518952  4.87711764136414  0.84148393529353
 1 -7.65797856945695 -2.40732672717272  1.24854954895490
 1 -7.31421706600660 -4.02775054095410  1.79800216811681
 1 -7.20880906490649 -3.69770753425343  0.08713030223022
 1 -6.76945428712871 -0.54996532783278  0.02686461436144
 1 -4.87902274407441  1.49703390029003 -1.12060590869087
 1 -6.24947677737774  0.56936456475648 -1.68468514701470
 1 -4.76198469396940 -0.17112026582658 -2.13409462216222
 1 -3.42463234253425  6.17741039683968  0.93477118111811
 1 -4.23117079457946  4.62643177537754  1.10182232003200
 1  0.26396096139614  6.77356931683168  1.50305303780378
 1 -1.41035241854185  7.38807550305030  1.09176843324332
 1 -0.04253506590659  7.19244774527453 -0.15766943274327
 1 -3.57284758055806  6.43437932103210 -1.53717153325333
 1 -5.11148297139714  6.09778251925193 -0.98700384208421
 1 -4.15018954005401  4.92784427672767 -1.77834757315732
 1  3.27445275177518 -4.50882511271127  1.93350198719872
 1  7.95384262896290 -1.89789044134413  1.77036719931993

