%nproc=4
%Mem=4GB
# td=(NStates=1) B3LYP/SVP 

TD

0 1
 8 -4.60243036383638 -4.72125220642064  1.88170353395340
 8  2.94159475757576 -4.68530307950795  1.38194612641264
 8  7.15031541294129 -1.54089163026303  1.82080230073007
 8  3.86471820462046 -3.01323044824482  0.09323218161816
 8  7.65585433743374 -0.45875725502550 -0.15916548584858
 8 -3.02949327812781  2.43161055855586 -0.39546445104510
 7 -0.24392877457746 -0.54005335513551 -0.52027066326633
 7  1.57805548824882  1.72999537833783 -0.38303996609661
 7 -3.49839678267827 -3.12698174497450  0.69956842814281
 7 -0.74098550145015  2.81671208940894 -0.03545856975698
 6  0.58791002340234 -2.39068450675067 -1.39344142724272
 6  0.92589152295230 -1.08354830593059 -0.95153770907091
 6 -0.83330765586559 -2.57280116951695 -1.27748794819482
 6 -1.32440454665467 -1.37872151405141 -0.69009047494749
 6  3.81398934023402  1.36158064336434 -0.33482969936994
 6  2.56958765176518  0.77589892169217 -0.53822538113811
 6  2.25939294359436 -0.54482062786279 -0.87870011501150
 6  3.67071090799080  2.76385439363936 -0.05616638953895
 6  1.52167331983198 -3.48361362716272 -1.89048924992499
 6 -5.64689402460246 -2.56226813641364  1.25726566656666
 6 -3.65127719061906 -1.85939100110011  0.12732651765177
 6  2.16897115731573  2.96851327952795 -0.15696317331733
 6 -5.12539873617362 -1.59259476267627  0.28746738563856
 6  5.09374785288529  0.55763543354335 -0.55139819621962
 6 -2.68117908010801 -1.01680845244524 -0.33938435283528
 6 -1.48069600730073 -3.85325982828283 -1.63943718741874
 6 -4.55402286908691 -3.67971647734773  1.27565668026803
 6  2.02044252025203 -4.37295951565156 -0.77734058985899
 6  5.54800467676768 -0.11634769866987  0.81373948004800
 6  4.67841362756276  3.70411164246425  0.24459664346435
 6  1.39530077147715  4.02781718921892  0.28682880238024
 6 -7.10776190679068 -3.12325970577058  1.00104957105711
 6 -5.88836743924392 -0.61837656755676 -0.34277575197520
 6 -0.09424441344134  3.91223589518952  0.23136176177618
 6 -0.95127608930893  5.09931102410241  0.54014864346435
 6 -2.23503883008301  4.65342146494649  0.37475887878788
 6  3.02119496079608 -3.91357797689769  0.25488688768877
 6 -5.50370503130313  0.43960918951895 -1.27007807480748
 6  6.94436700290029 -0.71818010211021  0.71804492709271
 6 -3.58109386868687  5.30093639183918  0.53338415351535
 6 -2.15260869716972  3.21561375267527 -0.06786586178618
 6 -0.48310244774477  6.42297616561656  1.04370946074607
 6 -4.22897143404340  5.67608601350135 -0.79715049074907
 1 -0.39507707260726  0.36462216781678 -0.10103065636564
 1  3.19605361996200 -1.33288529062906 -1.06014552315231
 1  2.23657490839084 -2.94297900480048 -2.37754018871887
 1  1.09456623592359 -4.19839175677568 -2.75405777227723
 1 -5.82592439863986 -1.93098148724872  2.18179033953395
 1  5.02209251945194 -0.12767805130513 -1.31940509350935
 1  5.87722968856886  1.25624993429343 -0.80863216281628
 1 -2.88782687838784  0.08719321552155 -0.63499640524052
 1  0.51967829952995  1.87013819681968 -0.40511998409841
 1 -1.23494908610861 -4.83968607280728 -0.94801560726073
 1 -2.63404703440344 -3.95899360136014 -1.72124144434443
 1 -1.18591854295430 -4.31370954535454 -2.73609721272127
 1 -2.52644640244024 -3.63327947634764  0.67263451045105
 1  1.06092189888989 -4.57869035153515 -0.12028574607461
 1  2.39570875667567 -5.52272498099810 -1.24772928682868
 1  4.78456287728773 -0.90442649374938  1.01299188538854
 1  5.62244644424443  0.66898133473347  1.66609107980798
 1  4.47161468176818  4.73797426482648 -0.23456343904390
 1  5.81094771757176  3.64352707190719 -0.15588906570657
 1  4.93880329772977  3.90162567066707  1.26896820072007
 1  1.93379921192119  5.02848277787779  0.33734352125213
 1 -7.94920769236924 -2.30611660616061  1.26984167816782
 1 -7.31534717901790 -4.08538630453045  1.62219458735874
 1 -7.28997718171817 -3.52902066556656  0.03706529572957
 1 -7.01342868456846 -0.49478981028103 -0.06762483458346
 1 -4.90027486928693  1.12925712261226 -0.88711255935594
 1 -6.45553738343834  0.90211784008401 -1.75227190569057
 1 -4.72049054455445 -0.16871002480248 -2.01587279998000
 1 -3.61582146144614  6.23110576637664  1.11794949894990
 1 -4.57098477597760  4.81150028222822  0.93585572337234
 1  0.23774834013401  6.26380834073407  1.84530726322632
 1 -1.30362174547455  7.03931062656266  1.17917717411741
 1  0.28158734633463  7.13323182368237  0.26678301250125
 1 -3.73154345014501  6.52593847694769 -1.46809462556256
 1 -5.22988481158116  6.01066380738074 -0.74767990969097
 1 -4.18981350245024  4.93232472477248 -1.47692743114311
 1  3.66457176367637 -4.24701893209321  1.93526216321632
 1  8.03338058275827 -1.97493814611461  1.65471563416342

