%nproc=4
%Mem=4GB
# td=(NStates=1) B3LYP/SVP 

TD

0 1
 8 -4.50273039383938 -4.70247032823282  1.87339270287029
 8  2.74057465556556 -4.80744529372937  1.44857278907891
 8  6.98239862126213 -1.44285182628263  1.90799101960196
 8  3.71674340714071 -3.10183930913091  0.31947480588059
 8  7.46229498149815 -0.98257963726373 -0.27487705700570
 8 -3.04081441024102  2.47352474997500 -0.06177108170817
 7 -0.17551193289329 -0.66247559735974 -0.44024266046605
 7  1.51722940564056  1.81707408620862 -0.21371303340334
 7 -3.41924886788679 -3.07068611541154  0.69063753505351
 7 -0.70357176007601  2.94890530873087  0.02265724182418
 6  0.67265849824982 -2.49949538783878 -1.31044312741274
 6  0.93213214701470 -1.23259321042104 -0.87620017531753
 6 -0.64676900200020 -2.60658454785479 -1.31964216361636
 6 -1.31601370757076 -1.51538518041804 -0.74668613451345
 6  3.74071201250125  1.50868535383538 -0.49024524092409
 6  2.50811150415042  0.76843817561756 -0.56600815941594
 6  2.24353135743574 -0.52636878267827 -0.84138638363836
 6  3.55281911881188  2.84808281648165 -0.13373414631463
 6  1.80114126662666 -3.48058332413241 -1.94396459745975
 6 -5.57966730193019 -2.65590750035004  1.26549648964896
 6 -3.66649871277128 -1.80509557155716  0.10745453045305
 6  2.03777803800380  3.02569899809981 -0.11574905190519
 6 -5.04962115841584 -1.53694919811981  0.25800443934393
 6  5.10663914201420  0.69206887688769 -0.52899595599560
 6 -2.62533349554955 -1.11766853845385 -0.51751216561656
 6 -1.34598253595360 -3.81316581888189 -1.85520876457646
 6 -4.44036150295029 -3.61979048474847  1.42445155975598
 6  2.17868834483448 -4.61279349904990 -0.99681253705371
 6  5.36960683698370 -0.17922398629863  0.83631173727373
 6  4.67673345954595  3.91480271157116 -0.07168498469847
 6  1.27435867726773  4.20499490699070  0.25545566506651
 6 -6.91765289588959 -3.21705908570857  0.99169863596360
 6 -5.82136073857386 -0.58069279917992 -0.30399187358736
 6 -0.08419340834083  4.03382805440544  0.29991861746175
 6 -1.04476543824382  5.27197829082908  0.53168779737974
 6 -2.29442476867687  4.74063018581858  0.47060846374637
 6  2.91717455875588 -4.08297491659166  0.21928332733273
 6 -5.43419808060806  0.38796402500250 -1.38812987998800
 6  6.70748331453145 -0.84654293839384  0.74654777737774
 6 -3.60028578787879  5.32844914311431  0.59454026912691
 6 -2.08031146744674  3.28192038333833  0.16214713951395
 6 -0.50127426492649  6.63091695969597  0.74846993679368
 6 -4.16045458235824  5.75736414131413 -0.74798557425743
 1 -0.43962152705270  0.18771447704770 -0.17363791709171
 1  3.09036305090509 -1.11215321742174 -0.85011452005200
 1  2.49766101700170 -2.74069877677768 -2.41913434813481
 1  1.13413019231923 -3.88227014461446 -2.95080744724472
 1 -5.79649145534553 -2.09187757685769  2.19029118961896
 1  5.03001331153115  0.09305402190219 -1.30717387038704
 1  6.04227619321932  1.58618292759276 -0.61700299989999
 1 -2.84831292699270 -0.05242074587459 -0.79466237183718
 1  0.45285161686169  2.00581176417642 -0.24029350145015
 1 -1.09183477467747 -4.50282238643864 -1.01386219191919
 1 -2.37772140184018 -3.60864856685669 -1.98560788098810
 1 -0.76489644074407 -4.15204337873787 -2.71099470247025
 1 -2.46051980978098 -3.55875202360236  0.49121636863686
 1  1.32223803050305 -5.12738522102210 -0.64829854735474
 1  2.68806799259926 -5.43727643614361 -1.49418393229323
 1  4.60137455845585 -1.00440649174918  1.09418000420042
 1  5.19421362096210  0.36630106670667  1.71260573127313
 1  4.41222874317432  4.76006647404741 -0.85821580428043
 1  5.51343796659666  3.67410012921292 -0.46293977077708
 1  4.71355077247725  4.43513902200220  1.13195449934993
 1  1.90908674067407  5.11493142274227  0.62950273717372
 1 -7.78010078167817 -2.36973296779678  0.97541223522352
 1 -7.06226187048705 -3.97775554145415  1.66172854075408
 1 -6.63884206820682 -3.75206296979698 -0.07139555035504
 1 -6.76434377607761 -0.67939827112711 -0.04609268136814
 1 -5.14093893569357  1.28989318621862 -0.96993084118412
 1 -6.24070590029003  0.49355698399840 -2.13831050955095
 1 -4.67224572007201 -0.17913106690669 -2.11686289898990
 1 -3.32035191449145  6.17295995179518  1.37747545154515
 1 -4.24208188568857  4.63210234243424  1.11435357315732
 1  0.07868243354335  6.77397935783578  1.59240197269727
 1 -1.30802218551855  7.35665236073607  0.64070332673267
 1 -0.03978479087909  7.00545904640464 -0.11468513431343
 1 -3.61474176997700  6.72979886298630 -1.09983779987999
 1 -5.15474729782978  6.16154889588959 -0.41607674937494
 1 -4.01713623472347  4.85040653295329 -1.38280801920192
 1  3.47766307280728 -4.40279450965097  2.05006364336434
 1  7.82766001070107 -1.95687633993399  1.65625578817882

