%nproc=4
%Mem=4GB
# td=(NStates=1) B3LYP/SVP 

TD

0 1
 8 -4.51148126892689 -4.80848092929293  1.82095745934593
 8  2.76845744384438 -4.89535408460846  1.34493242504250
 8  7.22422280368037 -1.62497003810381  1.64982520302030
 8  3.59928166096610 -3.10204933013301  0.26464932333233
 8  7.70606935893589 -0.37099847914791 -0.14580414971497
 8 -2.99966029482948  2.39748714621462 -0.22055696029603
 7 -0.23278766046605 -0.57668701850185 -0.54638327452745
 7  1.53686136883688  1.72132451125112 -0.36778844094409
 7 -3.51971891489149 -3.05503455025503  0.71262973427343
 7 -0.79708111101110  2.95483590179018 -0.15756077997800
 6  0.64638587098710 -2.40825626392639 -1.22592467556756
 6  1.02599153295330 -1.15342529362936 -0.94679723502350
 6 -0.73384770987099 -2.64530842024202 -1.17476767616762
 6 -1.27453956015602 -1.46433007490749 -0.62613407930793
 6  3.83046098739874  1.44519900520052 -0.23802001840184
 6  2.54941563456346  0.82050338213821 -0.57969952855286
 6  2.25527253155315 -0.52531867766777 -0.87240948594859
 6  3.63812764966497  2.75621362956296 -0.00051082398240
 6  1.61396254875488 -3.40686595239524 -1.91029123012301
 6 -5.61717105230523 -2.56465837543754  1.27437737773777
 6 -3.68383044594459 -1.80653571557156  0.17866165116512
 6  2.15295955615562  2.93480990919092 -0.00719819681968
 6 -5.07770396669667 -1.54884038723872  0.32939157805781
 6  5.17725620372037  0.71922159215922 -0.38655171157116
 6 -2.69133009520952 -0.98131490309031 -0.31244165856586
 6 -1.53748168586859 -3.88764326662666 -1.64049729342934
 6 -4.54101156795680 -3.69970847654765  1.36151526612661
 6  2.03686416241624 -4.54946716641664 -0.97359021482148
 6  5.44231410771077 -0.16117218111811  0.83138124422442
 6  4.56328211441144  3.87971920322032  0.15168735253525
 6  1.33387462886289  4.07256166366637  0.14321444094409
 6 -6.96345747634763 -3.20456783658366  0.92602206830683
 6 -5.82974157665767 -0.65511024092409 -0.34287576197620
 6 -0.07109209820982  4.00762543414341  0.16651527712771
 6 -1.04131509320932  5.19702079507951  0.46324095269527
 6 -2.25303062926293  4.71875799859986  0.30570197309731
 6  2.81708454975498 -4.05848246734673  0.18064946394639
 6 -5.33287794859486  0.31527675627563 -1.35104617161716
 6  6.97531009720972 -0.77687597169717  0.70451357395740
 6 -3.56343210251025  5.47407370557056  0.53640445554555
 6 -2.10147358365837  3.26987917921792 -0.03818289348935
 6 -0.47379151665167  6.46472034003400  0.95645073487349
 6 -4.31229976687669  5.82098050295030 -0.77057783348335
 1 -0.45134269916992  0.34900060566057 -0.08362891619162
 1  3.13887790239024 -1.22704470657066 -1.35657516611661
 1  2.59126037693769 -2.95449015591559 -2.30200263496350
 1  1.14650142944294 -3.96711862946295 -2.78046041254125
 1 -5.82643444964496 -2.12073046214621  2.38645080558056
 1  5.18944925512551  0.15746046254626 -1.43424657765777
 1  5.80245221082108  1.39768407770777 -0.58135943554355
 1 -2.76050414611461  0.13742823902390 -0.41211411701170
 1  0.65585191689169  1.73305448844885 -0.51651112321232
 1 -1.81330692189219 -4.48896100030003 -0.81613241894189
 1 -2.52281591129113 -3.54171187318732 -1.93479279947995
 1 -0.95052500360036 -4.54536271067107 -2.23554715771577
 1 -2.71138489628963 -3.47562371077108  0.81198844584458
 1  1.21125693239324 -5.01947442994299 -0.45090880838084
 1  2.46720590639064 -5.46259896839684 -1.31348586248625
 1  4.81322574357436 -1.02121817291729  0.80532111831183
 1  5.41358555815582  0.20886532313231  1.70629510021002
 1  4.14021154145415  4.72081254865487 -0.37946792949295
 1  5.53563018581858  3.66651937113711 -0.50543402020202
 1  4.95189460686069  3.88183369146915  1.51668297219722
 1  1.87112294429443  4.91325125472547  0.37044683158316
 1 -7.78324109570957 -2.56488248274828  1.12549724372437
 1 -7.16817246154615 -3.96530429632963  1.55696806470647
 1 -6.92483066706671 -3.31856962046205 -0.18910732153215
 1 -6.98217555925593 -0.63859419071907 -0.17364543664366
 1 -4.99818466026603  1.19130332723272 -1.19323317141714
 1 -6.29411124082408  0.32874050235024 -1.96047272577258
 1 -4.80471896739674 -0.30840399419942 -2.19683089578958
 1 -3.14068394769477  6.27134979077908  1.14620232423242
 1 -4.06610428792879  4.68813794599460  1.23090522832283
 1  0.15197976327633  6.42157411731173  1.85668840134013
 1 -1.14295567886789  7.39546624212421  1.02318157455746
 1  0.23512269986999  6.83339183968397  0.20792712691269
 1 -3.66655695149515  6.57162304540454 -1.24210202630263
 1 -5.32091391449145  6.17860060106011 -0.63581872357236
 1 -4.20464498559856  4.87545903820382 -1.42659239763976
 1  3.41492679917992 -4.38445267546755  1.87574621162116
 1  8.14689193389339 -1.75596624892489  1.56370653325333

