%nproc=4
%Mem=4GB
# td=(NStates=1) B3LYP/SVP 

TD

0 1
 8 -4.35845596639664 -4.65348542974297  2.02514787838784
 8  2.69462006010601 -4.74938948814881  1.25919385118512
 8  7.16437681908191 -1.49532707380738  1.94021424192419
 8  3.64507624042404 -3.20200932613261 -0.11662880448045
 8  7.74246299829983 -0.36084746404640  0.04805523622362
 8 -2.95011534033403  2.40668806630663 -0.27285218981898
 7 -0.32970735243524 -0.55956530633063 -0.66322495869587
 7  1.52337001970197  1.76274865366537 -0.37356901900190
 7 -3.38720566356636 -3.12323136993699  0.69421789308931
 7 -0.68004940784078  2.94699511771177 -0.18541356525653
 6  0.62239347174717 -2.48138357665767 -1.46907899099910
 6  0.92415134893489 -1.13380333143314 -1.00821337663766
 6 -0.78472279737974 -2.64853874327433 -1.27454765416542
 6 -1.33995610181018 -1.42099574147415 -0.66975844174417
 6  3.81041898319832  1.44531901720172 -0.43791000740074
 6  2.56406709970997  0.73207453925393 -0.60274183278328
 6  2.21716872117212 -0.54248039383938 -0.96308855385539
 6  3.57214105100510  2.65589359755976 -0.02897367026703
 6  1.52939409190919 -3.48651391719172 -1.95282548354835
 6 -5.59735907110711 -2.54161607120712  1.33894383438344
 6 -3.62477454035404 -1.80168523052305  0.20462424742474
 6  2.08278253845385  2.90813724192419 -0.04331180818082
 6 -5.12013821012101 -1.57129263246325  0.26538517741774
 6  5.10380885898590  0.66801647164716 -0.38780183658366
 6 -2.66298726092609 -1.03335010661066 -0.39170958535854
 6 -1.57348528622862 -3.85684018631863 -1.78601184488449
 6 -4.48254572137214 -3.62764126982698  1.44141325592559
 6  2.01134161016102 -4.53517573727373 -0.89271212701270
 6  5.40676055235524 -0.08443450735073  0.90529863596360
 6  4.48584437063706  3.82923415471547  0.29312149594959
 6  1.31845308670867  4.09598400590059  0.15655577507751
 6 -7.01030216081608 -3.14776215601560  1.21177064316432
 6 -5.78726732923292 -0.62498722862286 -0.38927040144014
 6 -0.05587057605761  4.05453012461246  0.10642926852685
 6 -0.92895385708571  5.04327542054205  0.52288691729173
 6 -2.16407173337334  4.61498762156216  0.24859626252625
 6  2.86441928322832 -4.08679529862986  0.11200259925993
 6 -5.35106976777678  0.41481671027103 -1.36111717871787
 6  6.86978954515452 -0.61194947904790  0.94470759335934
 6 -3.48737449674967  5.31903820202020  0.61537235233523
 6 -2.04933837013701  3.17624981628163 -0.09232830803080
 6 -0.46641077857786  6.45040890889089  1.05193028282828
 6 -4.22290082698270  5.68486689158916 -0.76554733043304
 1 -0.38232579747975  0.16610231583158 -0.06661721502150
 1  3.04554856945695 -1.40749275137514 -0.86844635323532
 1  2.43777502840284 -3.03372807970797 -2.33895633033303
 1  0.86434321362136 -4.05688760636064 -2.89190155665567
 1 -5.31904371057106 -1.89186757585759  2.37396955745575
 1  5.16060637083708  0.16531124762476 -1.28826197919792
 1  5.87839980558056  1.61522583188319 -0.36527782738274
 1 -2.97985608130813 -0.07976348014802 -0.57985089068907
 1  0.47604393609361  2.03174435743574 -0.61491096319632
 1 -1.60871646284628 -4.72446455065507 -0.88794960066007
 1 -2.55721935163516 -3.54465216721672 -1.89107842804280
 1 -1.10496044714471 -4.38824699909991 -2.69273287628763
 1 -2.47222097989799 -3.61998814721472  0.71632887988799
 1  0.98430423712371 -5.07954043654365 -0.83247696519652
 1  2.61291047684769 -5.18289099759976 -1.43593810771077
 1  4.85196961796180 -0.90208625972597  1.17758834503450
 1  5.39114331393139  0.35271970857086  1.77758222892289
 1  4.47187470777078  4.64497496489649 -0.48765874857486
 1  5.48625524832483  3.44832755195520  0.35908243144314
 1  4.09354877227723  4.05215072317232  1.24778608250825
 1  1.89336516851685  4.99399932953295  0.49325911281128
 1 -7.71651442304230 -2.32684867936794  1.47739243324332
 1 -7.18807445174517 -3.95505327122712  2.07297966586659
 1 -7.22932111611161 -3.68827659115912  0.18920050925093
 1 -6.85992333403340 -0.36173650495049 -0.02593066516652
 1 -4.72220706250625  1.17480167706771 -0.80683453155315
 1 -6.30061189088909  0.82518014631463 -1.73932061056106
 1 -4.91522001750175 -0.03873702750275 -2.25165637833783
 1 -3.12990286958696  6.23360601640164  1.22055975997600
 1 -4.15025270277028  4.84757388958896  1.36933907170717
 1 -0.13898933363336  6.60529248914892  1.99223195569557
 1 -1.36977836113611  7.25612230773077  1.05169442584258
 1  0.45236442404240  7.08251675217522  0.48452478667867
 1 -3.72486278207821  6.54095997909791 -1.22417023312331
 1 -5.48367019011901  5.87614035503550 -0.60374551625163
 1 -3.99536405750575  4.81130262256226 -1.51612135053505
 1  3.28998430493049 -4.47727195739574  1.92142077907791
 1  8.09916716141614 -1.67030768306831  1.87541770437044

