%nproc=4
%Mem=4GB
# td=(NStates=1) B3LYP/SVP 

TD

0 1
 8 -4.48032815361536 -4.68098818001800  1.82695805940594
 8  2.94193479157916 -4.93301785098510  1.34650258205821
 8  7.01906228762876 -1.41440898199820  1.77296751725173
 8  3.64820655345535 -3.12481160636064  0.19168202660266
 8  7.51710046204620 -0.82062344164416 -0.29335890519052
 8 -3.07560788958896  2.51989938743874 -0.13103800840084
 7 -0.22913729542954 -0.66628597839784 -0.52179081528153
 7  1.53637131983198  1.82750512931293 -0.34633629572957
 7 -3.40828777177718 -3.11388043484348  0.49162763406341
 7 -0.80661206410641  2.98275869406941 -0.07203222712271
 6  0.71635286768677 -2.39851528982898 -1.34083616671667
 6  0.98210714451445 -1.12825277637764 -0.91002355765577
 6 -0.66692101720172 -2.62385627502750 -1.29405960536054
 6 -1.23474558075808 -1.46992063396340 -0.68263972987299
 6  3.83207114841484  1.48043252855286 -0.34804102050205
 6  2.54069476247625  0.79464079587959 -0.48438999759976
 6  2.19670667496750 -0.53306945274527 -0.87511975697570
 6  3.58207204410441  2.79092710091009  0.02359158625863
 6  1.72597374987499 -3.49084435023502 -1.80931113211321
 6 -5.58271760696070 -2.56179808940894  1.27279721972197
 6 -3.56435849874988 -1.79387444944494  0.01630541554155
 6  2.13682794299430  3.02317874607461 -0.00993847084708
 6 -5.01001719801980 -1.47056255945595  0.39350798969897
 6  5.07954643274327  0.71601127112711 -0.45216827322732
 6 -2.62959392159216 -1.02703947554755 -0.40787120152015
 6 -1.46303424112411 -3.85551005330533 -1.62380562426243
 6 -4.43941140794079 -3.59569807550755  1.24626374097410
 6  2.02414289028903 -4.60659287898790 -0.86699955575558
 6  5.28072794909491 -0.29765582948295  0.65833393949395
 6  4.68630441664166  3.85509674097410  0.30830301410141
 6  1.27733897529753  4.20743515101510  0.27095721522152
 6 -6.97914904550455 -3.20765814561456  1.02149161526153
 6 -5.85977457995800 -0.59124385428543 -0.12464393879388
 6 -0.10208519751975  4.08380305190519  0.22838146374637
 6 -1.01585254695470  5.26924801780178  0.43374800340034
 6 -2.29394472067207  4.75336145894589  0.38588999189919
 6  2.95142798409841 -4.17130374947495  0.24066546554655
 6 -5.36907156795680  0.39709493809381 -1.19379044604460
 6  6.77568013421342 -0.89133741784178  0.65016813941394
 6 -3.59560531983198  5.35035133333333  0.43407422252225
 6 -2.11669510581058  3.30781297259726 -0.03095217041704
 6 -0.61989612711271  6.60654452245225  0.94025911571157
 6 -4.18279681658166  5.57405581048105 -0.96237701340134
 1 -0.15002256715672  0.32629833543354  0.03808325502550
 1  2.98971298589859 -1.27648965106511 -1.00321983058306
 1  2.86842809370937 -3.01194590149015 -1.92731516621662
 1  1.40696747604760 -3.79544146174617 -2.86349871637164
 1 -5.68430023622362 -2.16810519961996  2.13517567806781
 1  5.04028433863386  0.08431314781478 -1.36490964396440
 1  5.89720168576858  1.39063337263726 -0.56264756435644
 1 -2.65790388608861  0.08349284548455 -0.49037194279428
 1  0.45229156085609  1.84460564356436 -0.33423289538954
 1 -1.72529812101210 -4.72090419461946 -0.71652245794579
 1 -2.71732536223622 -3.47656535853585 -1.80209953015302
 1 -1.08219817091709 -4.42239041344134 -2.49205280828083
 1 -2.49618337613761 -3.49578572697270  0.68579582658266
 1  1.21286709340934 -5.34963744624462 -0.53851756925693
 1  2.75558474427443 -5.35536824532453 -1.15290980488049
 1  4.68682310331033 -1.10848689978998  0.85334592079208
 1  5.35941014061406  0.35047948454846  1.52757722842284
 1  4.66473399369937  4.73273374077408 -0.38534851755176
 1  5.76343296609661  3.34726744594459  0.40211673487349
 1  4.44995441284128  4.35662117021702  1.23223452735273
 1  1.70408624062406  5.16290622022202  0.37205699259926
 1 -7.83496626822682 -2.40461645614561  0.91654634863486
 1 -7.22419806410641 -3.87721548744875  1.81758412631263
 1 -7.11371955595560 -3.68336610011001  0.09391098029803
 1 -7.03168050975098 -0.88845917721772  0.20188211611161
 1 -4.85185002680268  1.29954415131513 -0.60558440654065
 1 -6.08284011371137  0.85317294559456 -1.89175585408541
 1 -4.48731722722272  0.02899974617462 -1.89602081478148
 1 -3.68285816511651  6.30998365416542  1.20374807880788
 1 -4.14158183568357  4.39079821202120  1.09609174697470
 1 -0.10219565426543  6.43739569946995  1.87090982348235
 1 -1.61354273757376  7.35375207070707  0.76853611001100
 1  0.29512870047005  6.90755925642564  0.31078741294129
 1 -3.28660895669567  6.20079596269627 -1.43678149424943
 1 -5.13277510061006  5.94131687268727 -0.68402354405441
 1 -4.20888540964096  4.52993448574857 -1.56303604200420
 1  3.65037034353435 -4.53920815101510  1.90997963496350
 1  7.92612985768577 -1.63799445174517  1.71709187178718

