%nproc=4
%Mem=4GB
# td=(NStates=1) B3LYP/SVP 

TD

0 1
 8 -4.55528564936494 -4.75730581178118  1.74672003560356
 8  2.82913351145115 -4.73624817401740  1.44718265006501
 8  7.12393277467747 -1.55070261136114  1.75132535303530
 8  3.65830756355636 -3.05427455265527  0.18042090049005
 8  7.63895264726473 -0.48912029132913 -0.20352992229223
 8 -2.97230755955596  2.48355575307531 -0.19328423302330
 7 -0.28178255995600 -0.60588993879388 -0.53810244644464
 7  1.51530921362136  1.79353173197320 -0.27050871297130
 7 -3.42651959495950 -3.04806385318532  0.65509398069807
 7 -0.76869827272727  2.97763818201820 -0.15729075297530
 6  0.69715094749475 -2.39778521682168 -1.40552263536354
 6  0.92492142594259 -1.16315626672667 -0.92182473777378
 6 -0.72866719181918 -2.70177406680668 -1.26267646704670
 6 -1.38219032523252 -1.47752139403940 -0.78319978587859
 6  3.71815975727573  1.43736822212221 -0.34761097749775
 6  2.49885057805781  0.82302363416342 -0.52297385598560
 6  2.19042604690469 -0.49685583138314 -0.91915416041604
 6  3.58966280318032  2.81496950515052 -0.06643741664166
 6  1.57757891039104 -3.54802006780678 -1.84388458945895
 6 -5.53250258545855 -2.59472138173817  1.37808774877488
 6 -3.69450151305131 -1.84148921092109  0.11799558455846
 6  2.16954121432143  2.96724315251525  0.02461498449845
 6 -5.07772396869687 -1.50768627182718  0.37290592949295
 6  5.12186066416642  0.71846151615162 -0.46427948434843
 6 -2.73608457065707 -1.09296606820682 -0.53187360176018
 6 -1.52632056975698 -3.90758526082608 -1.72670591429143
 6 -4.42895036183618 -3.64644315001500  1.27248636323632
 6  2.05530600660066 -4.61118333803380 -0.83744660046005
 6  5.51919179547955 -0.04319038293829  0.81832993909391
 6  4.67410319651965  3.75289652095210  0.15240742454245
 6  1.36410765216522  4.09150355785579  0.21850196969697
 6 -6.90155128572857 -3.06972435223522  1.06042550865087
 6 -5.87499610211021 -0.57708243814381 -0.33782525692569
 6 -0.01638662766277  4.09272394399440  0.24399302490249
 6 -0.91882284398440  5.10982207520752  0.52601723032303
 6 -2.26229155535554  4.63761988478848  0.51301270417042
 6  2.95189803110311 -4.05828244734473  0.31419281828183
 6 -5.45225988678868  0.46357158575858 -1.28280934793479
 6  6.80981354755476 -0.77774605870587  0.68760188278828
 6 -3.59695545484548  5.33362966116612  0.48113892899290
 6 -2.06910034633463  3.25462765406541  0.03723464826483
 6 -0.50557469496950  6.40095396339634  0.96912200200020
 6 -4.15939447634763  5.58134653955396 -0.92761353705371
 1 -0.41900946584658  0.26063176877688 -0.11565211851185
 1  3.07178119271927 -1.06267826992699 -1.27795730433043
 1  2.55308655955596 -3.15690039693969 -2.21318375307531
 1  1.10263704300430 -4.19907182478248 -2.81857422392239
 1 -5.53500530673067 -2.21894028312831  2.36869903040304
 1  5.13727403760376 -0.12952823632363 -1.32505565856586
 1  5.86492845844584  1.42718702800280 -0.59692099169917
 1 -2.84423251895190 -0.03588909270927 -0.49027193279328
 1  0.37463379507951  1.87308849184919 -0.56619609170917
 1 -1.56354194539454 -4.67930003420342 -0.91875268096810
 1 -2.47393102280228 -3.78488619061906 -2.05569488968897
 1 -0.96110606170617 -4.40235841024102 -2.58600220322032
 1 -2.60168392619262 -3.73467961636164  0.48768601560156
 1  1.35079088578858 -5.35848833133313 -0.43239695719572
 1  2.66490567636764 -5.23574628312831 -1.38346286018602
 1  4.67743216421642 -0.79182523362336  0.87472805900590
 1  5.46010020962096  0.60084452105211  1.83158762946295
 1  4.75017253755376  4.64091455885589 -0.30879086178618
 1  5.69433605640564  3.25774849404941 -0.02913639043904
 1  4.65475489288929  4.02450795889589  1.11140244414441
 1  1.74030986298630  5.19400933053305  0.45914570147015
 1 -7.68165093669367 -2.36137213171317  1.16114080808081
 1 -7.07402304660466 -3.86381414731473  1.72740510841084
 1 -7.03811199519952 -3.41730949444944 -0.03043145394539
 1 -6.77020436213621 -0.41278160946095 -0.02122019411941
 1 -4.82073691549155  1.18766296319632 -0.64347819591959
 1 -6.34392622232223  1.14368199649965 -1.56435311381138
 1 -4.86170466596660  0.04641148734873 -2.06500771347135
 1 -3.76631651095109  6.17899055485549  1.18366607060706
 1 -4.17914559205921  4.50449958215822  0.85192733053305
 1 -0.06045147984798  6.50090205010501  2.15461819431943
 1 -1.43974535783578  6.98109480498050  0.98493775017502
 1  0.22997218481848  6.80121862236224  0.32613894809481
 1 -3.66383667946795  6.52842872597260 -1.34115193129313
 1 -5.27390921402140  6.06624936593659 -1.07121226292629
 1 -4.32642716381638  4.76011750405041 -1.63553329172917
 1  3.40845615211521 -4.22451668186819  2.07946658365836
 1  7.90274751945195 -2.00428108040804  1.46899706230623

