%nproc=4
%Mem=4GB
# td=(NStates=1) B3LYP/SVP 

TD

0 1
 8 -4.49806992779278 -4.68450853205321  1.94854021762176
 8  3.22106270437044 -4.63894844404440  1.52341027282728
 8  6.93400378177818 -1.70504804590459  1.70877109760976
 8  3.79506123892389 -3.00911003620362  0.11754461286129
 8  7.66909566156616 -0.61182256155616 -0.22089165846585
 8 -3.05532586138614  2.56342373987399 -0.12961786638664
 7 -0.28450283198320 -0.64621397119712 -0.48562719891989
 7  1.49905758845885  1.74319669846985 -0.39613127522752
 7 -3.41273821682168 -3.08979802660266  0.71168964026403
 7 -0.68960036293629  2.90706112431243  0.01749672577258
 6  0.67520875327533 -2.48817425572557 -1.32813489658966
 6  0.89399833363336 -1.13186313741374 -0.93983653895390
 6 -0.78987331243124 -2.66069995939594 -1.21638183758376
 6 -1.31818392459246 -1.50127376927693 -0.70693215911591
 6  3.74982292359236  1.42355684098410 -0.42758897529753
 6  2.39898059105911  0.75931726352635 -0.60993255185519
 6  2.16369337363736 -0.58677482328233 -0.85545779077908
 6  3.54181801870187  2.74376238443844 -0.10924169706971
 6  1.64102525502550 -3.49712497829783 -1.73276347734774
 6 -5.60694002920292 -2.68078998859886  1.15418535853585
 6 -3.68655071797180 -1.87187224922492 -0.00813702870287
 6  2.09827408760876  2.95498192639264 -0.09062653965397
 6 -5.10597679397940 -1.53710921412141  0.18050668956896
 6  5.07734621272127  0.70971064106411 -0.50119317571757
 6 -2.72950391259126 -1.09442621422142 -0.65476589098910
 6 -1.45384332203220 -3.92670717301730 -1.78204144784478
 6 -4.51330879767977 -3.66857536323632  1.26248536313631
 6  2.08561903790379 -4.53939615931593 -0.58236109190919
 6  5.43580345664566 -0.02156822072207  0.83977208330833
 6  4.49191497769777  3.78463969526953  0.10591277507751
 6  1.36625786718672  4.06209061656166  0.17456757625763
 6 -7.06335746634663 -3.18440582038204  0.85931539763976
 6 -5.92766136863686 -0.48672340224022 -0.35066654105411
 6 -0.06020100910091  4.01608628022802  0.18389701530153
 6 -0.96471743344334  5.17447854085408  0.51428605720572
 6 -2.19709503570357  4.70315643844384  0.45266666956696
 6  3.07593043434343 -3.89618623772377  0.38623002200220
 6 -5.46932159295930  0.56467169576958 -1.29035010201020
 6  6.74243680988099 -0.75666395049505  0.63310643324332
 6 -3.48021378067807  5.31746804500450  0.65930674577458
 6 -2.04417785408541  3.29425161646165  0.04450537533753
 6 -0.41035517301730  6.49233310131013  0.93815890569057
 6 -4.14002253915392  5.61352975787579 -0.66703747944794
 1 -0.45072263716372  0.18620432603260 -0.00695124842484
 1  3.08119213381338 -1.20262226432643 -1.27947745634563
 1  2.58488973987399 -3.01114582148215 -2.13450588528853
 1  1.51582836213621 -3.87405932353235 -2.60941330783078
 1 -5.87675948214821 -2.27652604170417  2.22472463296330
 1  5.16054636483648 -0.03410869436944 -1.29654280728073
 1  6.01328329392939  1.26647095639564 -0.75468676827683
 1 -2.94137223292329 -0.00739624342434 -0.61439434503450
 1  0.57262359405941  1.70749193219322 -0.73702317441744
 1 -1.57777336853685 -4.77263936813681 -1.16672747844784
 1 -2.49410304000400 -3.72143984598460 -1.87048636883688
 1 -1.03182313341334 -4.27227540194019 -2.76234983798380
 1 -2.51144490229023 -3.53966011441144  0.78434568156816
 1  1.22857866456646 -4.92823530603060 -0.13004672217222
 1  2.50131931773177 -5.37632034053405 -1.08661317521752
 1  4.67695211621162 -0.99309536063606  0.90518110431043
 1  5.28088228782878  0.42257669426943  1.69267373807381
 1  4.09791731203120  5.02609307670767 -0.01566154885489
 1  5.53583020582058  3.68199091829183 -0.31310478727873
 1  4.55297471487149  3.67976348444844  1.27882918681868
 1  1.96890272227223  4.99942987258726  0.41189097599760
 1 -7.91683445504550 -2.38013400790079  1.10859555355536
 1 -7.24523016731673 -4.14001176707671  1.52252462036204
 1 -7.35425360936094 -3.41126889038904 -0.19658806960696
 1 -6.95551289298930 -0.60143047434743 -0.23162123422342
 1 -4.78265310711071  1.47527172407241 -0.85714956305631
 1 -6.13278510821082  1.05519314761476 -1.70167684618462
 1 -4.75141363686369  0.23686053225322 -2.18613982668267
 1 -3.46994687398740  6.22124478027803  1.27889559355936
 1 -4.04265194269427  4.56130526272627  1.06355849364936
 1  0.21985655095510  6.44518647854786  1.76161889438944
 1 -1.26656804010401  7.33714040954095  0.88982823922392
 1  0.29683887148715  6.66635513601360  0.14424075827583
 1 -3.64747504330433  6.69020490359036 -1.14114193029303
 1 -5.16893871697170  5.90987372837284 -0.53812895459546
 1 -4.11929645074507  4.87459895219522 -1.46087582598260
 1  3.93427873437344 -4.23502773297330  2.08858749574958
 1  7.78227547224722 -1.90704135643564  1.47009717231723

