%nproc=4
%Mem=4GB
# td=(NStates=1) B3LYP/SVP 

TD

0 1
 8 -4.56861698249825 -4.84040412161216  1.82714807840784
 8  2.94692529062906 -4.73282783198320  1.26671460326033
 8  6.90345072647265 -1.47881542264226  2.05436565706571
 8  3.88321005380538 -3.09600872607261 -0.00365750735074
 8  7.56239499149915 -0.61058243754375 -0.05940550985098
 8 -3.01573190199020  2.40033743124312 -0.02571747634763
 7 -0.31055543724372 -0.57584693449345 -0.47404604080408
 7  1.53285096779678  1.76857923672367 -0.44016567866787
 7 -3.41336827982798 -3.16778582538254  0.64434290559056
 7 -0.74553595649565  2.93558397659766 -0.22457748164816
 6  0.66080731313131 -2.45588102640264 -1.40708279137914
 6  0.93737267106711 -1.14819477057706 -0.94031658695870
 6 -0.70392471757176 -2.70282417181718 -1.20872107150715
 6 -1.26350845704570 -1.48296193809381 -0.70524199009901
 6  3.75134307560756  1.42336682198220 -0.35709192559256
 6  2.48424911791179  0.82135346714671 -0.56591815041504
 6  2.15166217051705 -0.57452359815982 -0.92932517751775
 6  3.61897573447345  2.76093410161016 -0.09477024992499
 6  1.61390254275428 -3.52264753055306 -1.92447264826483
 6 -5.62319165436544 -2.59135104470447  1.36565650565057
 6 -3.65358742164216 -1.86620168216822  0.07151093609361
 6  2.13518777897790  2.99277570577058 -0.09499697669767
 6 -5.03852004830483 -1.47083258645865  0.37194583348335
 6  5.05524400250025  0.68728839883988 -0.38333138953895
 6 -2.65535649784979 -1.05654242584258 -0.37846826122612
 6 -1.40990892859286 -3.84068857115712 -1.81447469116912
 6 -4.53809127592759 -3.69407791349135  1.33995310991099
 6  2.05957643364336 -4.60519273897390 -0.86025888168817
 6  5.33517339363936 -0.16643270717072  0.76450455655566
 6  4.55728151435143  3.78712994429443  0.13424560836084
 6  1.35388663006301  4.09633404090409  0.22701282078208
 6 -6.97770890149015 -3.22367974777478  0.89445891199120
 6 -5.74238284078408 -0.43704843474347 -0.06098757315732
 6 -0.11206619561956  4.01985665726573  0.13171179677968
 6 -1.00345130683068  5.18138923192319  0.51835646424642
 6 -2.24569989618962  4.76925304810481  0.40245164806481
 6  3.09089193049305 -4.02778939803980  0.16775817481748
 6 -5.33648830963096  0.49233446204620 -1.06998806580658
 6  6.77258982518252 -0.78100638473847  0.81558468106811
 6 -3.49398515781578  5.43343964216422  0.55881669676968
 6 -2.13697713401340  3.25761795309531  0.00031095589559
 6 -0.41211534903490  6.57770163816382  0.72069715951595
 6 -4.16047458435844  5.73385179007901 -0.80516129182918
 1 -0.67817538243824  0.43790949654965 -0.36765731903190
 1  3.11889590419042 -1.14471647374737 -0.92710221882188
 1  2.36543779467947 -3.07960266716672 -2.34593702840284
 1  1.10026680598060 -4.04126604420442 -2.91843420992099
 1 -5.80479228542854 -2.11030942004200  2.31633379387939
 1  5.37036734693469  0.01829654615462 -1.14781793479348
 1  5.88007997359736  1.22090639993999 -0.66634793439344
 1 -2.95360345604560  0.02940743694369 -0.56346925252525
 1  0.37661399309931  1.72808399139914 -0.46088556065607
 1 -1.39774536573657 -4.79152125632563 -1.22820362606261
 1 -2.53939756945695 -3.83291099309931 -1.99068838903890
 1 -0.99980993209321 -3.97600577497750 -2.83671727472747
 1 -2.65586934473447 -3.60926707510751  0.76209345634563
 1  1.41251705840584 -4.97406988948895 -0.36800051755176
 1  2.51395058085809 -5.43839654815482 -1.50804531843184
 1  4.53260768176818 -1.10800685178518  0.87809839603960
 1  5.06295049464947  0.35697013361336  1.73435790649065
 1  4.73057057735774  4.64043451085108 -0.71436141884188
 1  5.58058468126813  3.46121884108411  0.36629315251525
 1  4.26267568496850  4.38486399449945  1.09717102100210
 1  2.06040187218722  4.97734766436644  0.53277306420642
 1 -7.84421719331933 -2.51611760626063  0.96136083008301
 1 -7.12932857715772 -4.04281204710471  1.55592796069607
 1 -6.99407759175917 -3.60426819031903 -0.14459287008701
 1 -6.64366170787079 -0.31222155345535  0.46942887078708
 1 -4.91922676447645  1.40555475237524 -0.64988883698370
 1 -6.41159298899890  0.76378400670067 -1.66508318681868
 1 -4.68050654615462  0.18778562476248 -1.75328654135414
 1 -3.61584146344634  6.38231088688869  0.88421612561256
 1 -4.02732040954095  4.59835896809681  1.06661879967997
 1  0.35227979327933  6.58613057295730  1.65491822432243
 1 -1.21439282258226  7.42141883738374  0.75068432483248
 1  0.11808099569957  6.69070757125712 -0.31638530433043
 1 -3.72934323012301  6.54251013411341 -1.23967178327833
 1 -5.30985280838084  5.95268800980098 -0.60769591129113
 1 -4.37030155125513  4.81202269456946 -1.44916465486549
 1  3.65832113861386 -4.45540977117712  1.89242787978798
 1  7.80521776647665 -1.89459011131113  2.00533069566957

