%nproc=4
%Mem=4GB
# td=(NStates=1) B3LYP/SVP 

TD

0 1
 8 -4.84653477427743 -4.83769385058506  1.82320768436844
 8  3.13579417751775 -4.80351490069007  1.41481941374137
 8  6.99382976437644 -1.58312585368537  1.77145736623662
 8  3.88147988078808 -3.17368649384938  0.04052691109111
 8  7.73061181318132 -0.44711609090909 -0.07035660496050
 8 -3.01477180598060  2.52368976647665 -0.19284418901890
 7 -0.27095147684768 -0.61269061886189 -0.55097373357336
 7  1.56631431413141  1.86865924472447 -0.38779044114411
 7 -3.48829577257726 -3.14252329912991  0.75279375067507
 7 -0.78439984288429  3.00444086228623 -0.15533055695570
 6  0.65358659105911 -2.52698813711371 -1.35810789388939
 6  1.00356929072907 -1.11946189728973 -0.91739429472947
 6 -0.66814113921392 -2.76883077247725 -1.13970416981698
 6 -1.25510761696170 -1.49483312521252 -0.68630009590959
 6  3.77711565286529  1.45178966426643 -0.45516173257326
 6  2.56402709570957  0.83810514231423 -0.67537909650965
 6  2.16740374467447 -0.50899704550455 -0.93012525752575
 6  3.59456329322932  2.78428643684368 -0.03172394529453
 6  1.60036118861886 -3.51033629942994 -1.74494469546955
 6 -5.68783811901190 -2.48377028662866  1.23434337433743
 6 -3.63728579147915 -1.93935899789979  0.14076786178618
 6  2.16963122332233  2.99936636483648 -0.14966244324432
 6 -5.03846004230423 -1.53626913011301  0.27425606450645
 6  5.06308478657866  0.64017368736874 -0.46928998539854
 6 -2.61722268446845 -1.13465023662366 -0.38071848624862
 6 -1.52549048674867 -3.86045054735474 -1.71765500920092
 6 -4.67140460726073 -3.64635314101410  1.28545766036604
 6  2.05065554155416 -4.57067928762876 -0.72047490329033
 6  5.38393827012701 -0.16963302720272  0.69141724782478
 6  4.58602438863886  3.76403763506351  0.32706489028903
 6  1.37166840824082  4.16668107560756  0.17174729422942
 6 -7.03209434003400 -3.09809718951895  0.93602306840684
 6 -5.74977357985799 -0.58866359625963 -0.26020749514951
 6 -0.00592558155816  4.06146081768177  0.13690231583158
 6 -1.07710867256726  5.21631272427243  0.55504013261326
 6 -2.26199152535254  4.75442156495650  0.37229863276328
 6  3.03110595189519 -4.10868748784879  0.20777217621762
 6 -5.32134679547955  0.44852008060806 -1.28768983598360
 6  6.77023959015902 -0.73676196029603  0.68155127772777
 6 -3.54511027032703  5.41323762196220  0.63411422652265
 6 -1.98866230253025  3.30547273857386 -0.04137321252125
 6 -0.57219135663566  6.58431229922992  0.86758184798480
 6 -4.28113665056506  5.57421582648265 -0.70395117081708
 1 -0.31270883578358  0.26511221682168  0.15881532823282
 1  2.92195621022102 -1.21531353345335 -1.36468597719772
 1  2.49659090999100 -2.94114882178218 -2.22473490819082
 1  1.32488926822682 -3.95008692629263 -2.74458682518252
 1 -5.86914872107211 -2.18604699379938  2.28110027052705
 1  5.18317862806281 -0.10939622312231 -1.34372752575258
 1  6.03691565716572  1.28147245654565 -0.76457775737574
 1 -3.11085918161816  0.01516601280128 -0.44997790339034
 1  0.54219055075508  1.93059424242424 -0.53411288338834
 1 -1.35408099929993 -4.89820192439244 -1.23819462516252
 1 -2.63456708640864 -3.60513821582158 -1.73584290449045
 1 -1.35759571067107 -4.07823599799980 -2.76581018401840
 1 -2.53423718151815 -3.60821697009701  0.63432067906791
 1  1.07551335803580 -5.17870035253525 -0.29910362786279
 1  2.50109929572957 -5.33914662316232 -1.22875738963896
 1  4.76081050205021 -1.01668771987199  0.78438902510251
 1  5.40101430103010  0.24966940354035  1.70365483618362
 1  4.46894441474147  4.84835530293029 -0.11529151185118
 1  5.60447707050705  3.40325304450445 -0.29457293409341
 1  4.75176459385939  3.96885239333933  1.37020832473247
 1  1.94370020202020  5.17932786238624  0.39393918081808
 1 -7.96732950455046 -2.46157215171517  1.23850854485449
 1 -7.07155279957996 -4.07769553545354  1.35522789068907
 1 -7.03081126512651 -3.32706046954696 -0.11868027882788
 1 -6.73932127382738 -0.52240257155716 -0.05301337343734
 1 -4.95975081688169  1.39597379427943 -0.86334018211821
 1 -6.23780561026103  0.87761538983898 -1.66949362786279
 1 -4.69717821332133  0.14908175437544 -2.09270048274827
 1 -3.50639051835184  6.40850350615061  1.27380508450845
 1 -4.04183186068607  4.59545867806781  1.33657579537954
 1  0.16128069336934  6.57009896979698  1.76141887438744
 1 -1.44315569886989  7.20057675317532  1.24319357575758
 1  0.17290647824782  6.89097759825983  0.04807114131413
 1 -3.58093838963896  6.15641152425242 -1.42623043914391
 1 -5.22686450955096  6.22252499349935 -0.57756289798980
 1 -4.53719824092409  4.39384087638764 -0.83849358775878
 1  3.96277158365837 -4.46898112831283  2.03774241124112
 1  7.99006625132513 -1.61336198849885  1.70908107070707

