%nproc=4
%Mem=4GB
# td=(NStates=1) B3LYP/SVP 

TD

0 1
 8 -4.40214033483348 -4.59687976917692  1.99029439303930
 8  3.08828942704270 -4.80244479367937  1.26769470127013
 8  7.03133351475148 -1.44418195929593  1.87561778227823
 8  3.84503623642364 -3.03961308650865  0.02490534893489
 8  7.62667141914191 -0.82118349764977 -0.13776334563456
 8 -3.02122245104510  2.41338873637364 -0.20222512711271
 7 -0.26816119781978 -0.55488483828383 -0.65442407860786
 7  1.56578426112611  1.87895027382738 -0.42150381248125
 7 -3.41117806080608 -2.98188723552355  0.71690016131613
 7 -0.77329873277328  2.86912733093309 -0.05789081298130
 6  0.60231146354635 -2.44053949224922 -1.29500158325833
 6  0.89035796959696 -1.15380533163316 -0.93357591289129
 6 -0.77518184328433 -2.66267015641564 -1.20816101550155
 6 -1.34498660486049 -1.36997063896390 -0.72187365326533
 6  3.79786772807281  1.40324480978098 -0.37646386278628
 6  2.48000869386939  0.85401673347335 -0.61642320092009
 6  2.16972397669767 -0.49535568136814 -0.87418966396640
 6  3.60013385028503  2.69463747194719 -0.05228600150015
 6  1.60418157065707 -3.48321358715872 -1.77190739173917
 6 -5.65376471167117 -2.59579148874887  1.31152109210921
 6 -3.71119318221822 -1.78223328532853  0.08742252725273
 6  2.14959922012201  2.98608503670367 -0.05076255325533
 6 -5.07403359965997 -1.51090659385939  0.29424806370637
 6  5.10937941604160  0.64767443744374 -0.49351240764076
 6 -2.67013797599760 -1.08079485108511 -0.45429584398440
 6 -1.62659059675968 -3.79640414271427 -1.70582382608261
 6 -4.47593506030603 -3.55430393609361  1.32568168276828
 6  2.03297377337734 -4.50268248794879 -0.82381523732373
 6  5.34932480878088 -0.19671573547355  0.76970507660766
 6  4.68247403360336  3.78462969426943  0.37052923672367
 6  1.28895013641364  4.09846425392539  0.17506762626263
 6 -6.94106523712371 -3.19274665446545  0.79862932903290
 6 -5.83447204970497 -0.53650838073807 -0.21426290069007
 6 -0.09327431643164  3.96427109870987  0.12842146774677
 6 -0.94742570427043  5.10305139813981  0.53761839043904
 6 -2.28589391559156  4.71024714751475  0.39726112901290
 6  3.16198904020402 -4.03772039113911  0.17486888588859
 6 -5.40509517031703  0.50689591819182 -1.22026309330933
 6  6.80860342654265 -0.82875115921592  0.77619074167417
 6 -3.60416617591759  5.24634093229323  0.44807562266227
 6 -2.14578801510151  3.26773896519652  0.00456138093809
 6 -0.48760289778978  6.50198406640664  0.93750884068407
 6 -4.30402893979398  5.42999140404040 -0.82895367106711
 1 -0.33737130203020  0.53506921252125 -0.23938449174918
 1  2.99342335693569 -1.25663766586659 -0.79613912251225
 1  2.50711196209621 -2.68623333023302 -2.11674410911091
 1  1.08659543884388 -4.07281919951995 -2.60583294979498
 1 -5.63678548474847 -2.10151854095410  2.16401856235624
 1  5.05157546774677  0.09178389488949 -1.40265341834183
 1  6.05997796339634  1.27749205850585 -0.72837413701370
 1 -3.22650074577458 -0.01413691749175 -0.69651255685569
 1  0.58493482518252  2.04047523052305 -0.53255272737274
 1 -1.53905949714972 -4.46374847904790 -1.06000680638064
 1 -2.46310994069407 -3.46401410341034 -2.03355267546755
 1 -1.17865781688169 -4.16310448484848 -2.59630323332333
 1 -2.39710346814681 -3.41529767816782  1.03855110211021
 1  1.22107791449145 -4.88746122862286 -0.21553527102710
 1  2.59098828462846 -5.41840454895490 -1.27563207710771
 1  4.66932135313531 -0.93741979307931  1.15784637083708
 1  5.32203640324032  0.45315975257526  1.75440991169117
 1  4.50681820212021  4.58588905630563 -0.26523650635064
 1  5.68854547734774  3.57124984418442  0.28283480668067
 1  4.52596201360136  4.01216672477248  1.30004130803080
 1  1.85760159215922  5.09838976857686  0.40336012291229
 1 -7.61466423802380 -2.47033302780278  1.39395408940894
 1 -7.03211885618562 -4.06601436733673  1.47015938383838
 1 -6.59309749374937 -3.43071083458346 -0.29132754355436
 1 -6.88569591129113 -0.60708103940394 -0.15741381348135
 1 -4.90732557435744  1.57885208210821 -0.99011285938594
 1 -6.22432426212621  1.03958158645865 -1.80302698119812
 1 -4.83121161666167  0.07679452565257 -2.25283649634964
 1 -3.63260313961396  6.33785644144414  0.88730643464346
 1 -4.23449112661266  4.69976910911091  1.09288142594259
 1  0.25634019931993  6.30240220012001  1.71493422592259
 1 -1.34398578187819  7.19455615111511  1.44802405880588
 1 -0.15435624802480  7.22625112561256  0.01341767596760
 1 -3.68477877367737  6.21789767286729 -1.27597541364136
 1 -5.10180200330033  5.97995073607361 -0.58577371907191
 1 -4.54814933603360  4.45334682698270 -1.37816755515552
 1  3.79968527502750 -4.61546577677768  1.87332596959696
 1  7.76231347604761 -2.16852750505050  1.77767793039304

