%nproc=4
%Mem=4GB
# td=(NStates=1) B3LYP/SVP 

TD

0 1
 8 -4.51664178497850 -4.73903398459846  1.89593495709571
 8  3.07626822492249 -4.97027157635764  1.18167609940994
 8  7.06551693309331 -1.67191473257326  1.84160438093809
 8  3.77862959575958 -3.13554267946795  0.06488934733473
 8  7.65428418041804 -0.51670304960496 -0.07205677497750
 8 -3.25462579137914  2.77306470397040 -0.10069497409741
 7 -0.28317269896990 -0.60520987078708 -0.52141077727773
 7  1.52154983768377  1.78143052185219 -0.36521818391839
 7 -3.40187713071307 -3.17136618341834  0.56048451975198
 7 -0.86388779167917  2.93750416861686 -0.02706773067307
 6  0.71761299369937 -2.51310674897490 -1.28675075817582
 6  1.01788072187219 -1.18163811491149 -0.81833438873887
 6 -0.70802512761276 -2.74356824622462 -1.20098029742974
 6 -1.27316942314231 -1.60574421632163 -0.73531499739974
 6  3.78747668896890  1.42609709500950 -0.26796301270127
 6  2.44507520052005  0.82830416221622 -0.50668222682268
 6  2.22417942224222 -0.56578272407241 -0.64896714171417
 6  3.50086392329233  2.74529253745375  0.05938516561656
 6  1.66593774627463 -3.52981824762476 -2.00954115511551
 6 -5.55185452065207 -2.51021293089309  1.35905584558456
 6 -3.61127319021902 -1.97798286028603  0.11672545754575
 6  2.03220748094810  2.98634506270627 -0.01524900190019
 6 -4.99727592389239 -1.57755325852585  0.32130076897690
 6  5.01344982308231  0.66183585358536 -0.45021807820782
 6 -2.61219218141814 -1.12894966656666 -0.42629304370437
 6 -1.50965890359036 -3.91239574187419 -1.75307855155516
 6 -4.43746121292129 -3.66803530923092  1.32315142974297
 6  2.13658413441344 -4.56855907560756 -0.97292014781478
 6  5.40875075137514 -0.18298436233623  0.82147025312531
 6  4.55151093729373  3.75581681298130  0.22204438823882
 6  1.25644688608861  4.08019242674267  0.20232035153515
 6 -6.94858598919892 -3.07642502230223  1.12689215531553
 6 -5.85188379087909 -0.70674540444044 -0.30101157555756
 6 -0.10838582758276  4.02750742234223  0.23751237683768
 6 -0.91595255695570  5.29141023402340  0.31225585418542
 6 -2.26800212641264  4.88019414221422  0.38591999489949
 6  3.05024786608661 -4.11687830693069  0.09432083108311
 6 -5.47397205800580  0.42777800640064 -1.26915798279828
 6  6.81125369156916 -0.79595787988799  0.78052117471747
 6 -3.58686444574457  5.63442974117412  0.49846066116612
 6 -2.23539697599760  3.33109530083008  0.05134605940594
 6 -0.36114025152515  6.66407027502750  0.66541163096310
 6 -4.20703924082408  5.80143854875488 -0.89022979867987
 1 -0.38442600750075  0.28389409500950  0.00349979667967
 1  3.15866988158816 -1.17105910801080 -0.62297180578058
 1  2.44177542844284 -2.83631833873387 -2.40356279097910
 1  1.23101988128813 -4.04911682928293 -2.84696706320632
 1 -5.49542134833483 -2.18847723682368  2.33339550005001
 1  5.00860117031703  0.01752646914691 -1.52134528752875
 1  5.93288525412541  1.38502281158116 -0.49345064466447
 1 -2.82691078677868 -0.00789629342934 -0.61341424702470
 1  0.56687301900190  1.79346052905291 -0.56311578367837
 1 -1.68593418461846 -4.97811991619162 -1.20604140984098
 1 -2.44751838153815 -3.61334903690369 -2.02069138933893
 1 -1.09134908600860 -4.15326350075008 -2.71798540154015
 1 -2.55971972977298 -3.59771591999200  0.75155240224022
 1  1.36984279097910 -5.34293677617762 -0.52078579607961
 1  2.74880406620662 -5.27544025252525 -1.62633714761476
 1  4.67135155615562 -1.06915296639664  0.95735632183218
 1  5.30565476507651  0.24070850745075  1.82721719241924
 1  4.46871439173917  4.71512197959796 -0.45120510321032
 1  5.56407303010301  3.32884560376038  0.25625214841484
 1  4.45255467286729  4.08910441854185  1.28269957385739
 1  1.78975480748075  4.97555748534853  0.71832161906191
 1 -7.79899267086709 -2.33753974847485  1.35667036103610
 1 -7.16546219051905 -3.87436520242024  1.74907727562756
 1 -7.05402358635864 -3.33243100660066  0.18656024522452
 1 -6.69560690239024 -0.58973930523052  0.21581350925093
 1 -5.27887272907291  1.47772196909691 -0.80817466556656
 1 -6.48073990369037  0.44275190349035 -2.05875255375538
 1 -4.71098959445945  0.20611745794579 -1.87655886858686
 1 -3.62297217651765  6.69860251605161  0.92407011101110
 1 -4.32544022152215  5.02556168836884  1.07843998179818
 1  0.30916548184819  6.63552551245125  1.64111684418442
 1 -1.07377876117612  7.49291598709871  0.86504576097610
 1  0.18156734433443  7.19567806830683 -0.34197786358636
 1 -3.52811310711071  6.53072895599560 -1.39646746284628
 1 -5.29696151925192  6.54295703670367 -0.89913505520552
 1 -4.47672219331933  4.80772226452645 -1.40937067546755
 1  3.82173748024803 -4.64386861706171  1.75073371037104
 1  8.14866211091109 -1.72385303760376  1.93241340394039

