%nproc=4
%Mem=4GB
# td=(NStates=1) B3LYP/SVP 

TD

0 1
 8 -4.36851697249725 -4.74761484268427  1.88164352795279
 8  2.75436603470347 -4.87468201740174  1.49757768956896
 8  6.84514489588959 -1.65151269236924  1.73202342284228
 8  3.58479021182118 -3.01226035123512  0.29814267266727
 8  7.47806655865587 -0.91084246354635 -0.25793536283628
 8 -2.97577790659066  2.50959835733573 -0.16989189378938
 7 -0.16400078177818 -0.56606595639564 -0.42037067326733
 7  1.54710239293929  1.84392677147715 -0.37027868996900
 7 -3.35847279027903 -3.08025707250725  0.52567103840384
 7 -0.79462086498650  3.00717113531353 -0.15023004690469
 6  0.71980321272127 -2.43695913421342 -1.27592967606761
 6  1.00393932773277 -1.13856380748075 -0.91696425172517
 6 -0.65682000710071 -2.66531042044204 -1.12439263866387
 6 -1.21919402560256 -1.43593723562356 -0.60682214811481
 6  3.80341828312831  1.38789327462746 -0.52822903930393
 6  2.46571726472647  0.94330566236624 -0.66218777737774
 6  2.24147115141514 -0.40676682248225 -1.03442568756876
 6  3.57788162506251  2.76921492969297 -0.07678845174517
 6  1.71772292479248 -3.46961222702270 -1.82643284428443
 6 -5.56894622982298 -2.70995290489049  1.23296323632363
 6 -3.68621068396840 -1.81309637163716  0.12099588458846
 6  2.20941520172017  3.02591902010201 -0.07629510651065
 6 -5.02322851915191 -1.56298180138014  0.33393203210321
 6  5.11273975207521  0.63658332833283 -0.50573362976298
 6 -2.64714567676768 -1.14626139773977 -0.43031344574457
 6 -1.43556149384939 -3.85372987528753 -1.73242648634863
 6 -4.39062652945295 -3.65224373007301  1.27965708030803
 6  1.97572804880488 -4.51736395609561 -0.84096695249525
 6  5.39530940724072 -0.03415947984798  0.79126723282328
 6  4.68174396059606  3.77828906020602  0.26376856065607
 6  1.29909115051505  4.15505991349135  0.22454257375738
 6 -6.82541367196720 -3.40064744454445  0.86642610871087
 6 -5.81761036353635 -0.60236496639664 -0.32099357375738
 6 -0.04876986598660  4.10604527612761  0.20382900850085
 6 -0.97014797649765  5.23010410341034  0.47864249284928
 6 -2.26727205340534  4.77359348214821  0.38386978987899
 6  2.92067490879088 -4.05188180728073  0.37650904990499
 6 -5.50607526832683  0.46489171777178 -1.26368743574357
 6  6.73345591179118 -0.80788907300730  0.66028915151515
 6 -3.54525028432843  5.42407870607061  0.65285610071007
 6 -2.08949238553855  3.33149534083408 -0.04370344554455
 6 -0.60000413791379  6.60679454745475  0.81713680348035
 6 -4.25586412331233  5.69208761366137 -0.70632140784078
 1 -0.34946251115111  0.22936864246425 -0.05059561286129
 1  3.01120513511351 -0.99637163926393 -1.07804731333133
 1  2.69484073497350 -3.10097480438044 -2.30291272597260
 1  1.31142792209221 -3.90220213781378 -2.61898426492649
 1 -5.37116892309231 -2.38279666876688  2.22979514001400
 1  5.18549886008601 -0.00242552605261 -1.32971612461246
 1  5.87174914051405  1.56269057835784 -0.71013231283128
 1 -2.70380847654765 -0.09467497129713 -0.62799570517052
 1  0.46660299199920  1.86641782478248 -0.61065053715372
 1 -1.68206379757976 -4.66175828002800 -1.03496430213021
 1 -2.54066769646965 -3.69114681668167 -1.90619994019402
 1 -0.85149510061006 -4.29394756915692 -2.72267587058706
 1 -2.27776153395339 -3.40466661506151  0.76253350035004
 1  1.21849765646565 -5.23403588608861 -0.43518723622362
 1  2.68814800060006 -5.27115982448245 -1.31447596149615
 1  4.68228264926493 -0.97757380848085  0.84125471167117
 1  5.27435163476348  0.56868130473047  1.77911238193819
 1  4.78959647994800  4.92429289668967 -0.23795377807781
 1  5.76618324112411  3.52087480668067 -0.08484196099610
 1  4.66219563696370  3.87318282638264  1.51679298319832
 1  1.73712954495450  4.99802973257326  0.31931171807181
 1 -7.78253102470247 -2.85555154965497  1.20558525252525
 1 -6.89812545684568 -4.42008977487749  1.53761612951295
 1 -6.94264244824482 -3.59697746124612 -0.17713612441244
 1 -6.88554589628963 -0.64606493779378  0.00963289118912
 1 -5.08981382318232  1.28479267616762 -0.74652850095009
 1 -6.37136896659666  0.87490511881188 -1.95978265676568
 1 -4.83620211571157  0.16247309350935 -2.08501971467147
 1 -3.42995287458746  6.35884854065407  1.33968167216722
 1 -4.06102377987799  4.63179231143114  1.31596373417342
 1  0.16168073337334  6.56323828372837  1.71270400290029
 1 -1.44171555485548  7.26383307880788  1.11054031043104
 1 -0.21841265366537  7.02081058155816 -0.10514418021802
 1 -3.71124141994199  6.45959184228423 -1.20131794789479
 1 -5.27086890999100  6.10831357235724 -0.53083822552255
 1 -4.25107962906291  4.74923641594159 -1.31235097349735
 1  3.25394070057006 -4.42600683088309  1.99320795779578
 1  7.72699994469447 -2.06304695699570  1.56292645524553

