%nproc=4
%Mem=4GB
# td=(NStates=1) B3LYP/SVP 

TD

0 1
 8 -4.61757187798780 -4.75997607880788  1.79927529112911
 8  3.04151474957496 -4.85252980218022  1.24120205200520
 8  6.99497987938794 -1.36212375347535  1.97559778027803
 8  3.70198193099310 -3.13347247244724  0.03191605000500
 8  7.62529128112811 -0.81758313761376 -0.14830439973997
 8 -3.06418674747475  2.45202259975998 -0.24920982558256
 7 -0.20551493319332 -0.68639798959896 -0.45152378857886
 7  1.55302298499850  1.79753213201320 -0.33609527162716
 7 -3.42321926492649 -3.04940398719872  0.73794226552655
 7 -0.81097250015002  2.85993641184118 -0.07449247314731
 6  0.70891212361236 -2.47769320762076 -1.41808389148915
 6  1.00196913071307 -1.16032598369837 -0.84468702400240
 6 -0.74546887198720 -2.65388927832783 -1.34252445184518
 6 -1.30403250945095 -1.52890653255326 -0.76575804170417
 6  3.81306924822482  1.45419990529053 -0.32812902930293
 6  2.44221491449145  0.79923125492549 -0.58529008760876
 6  2.25205220952095 -0.47089323512351 -0.85307755275528
 6  3.59494333123312  2.73802181038104  0.06004523162316
 6  1.57688884138414 -3.48435370117012 -1.94719492049205
 6 -5.56911624682468 -2.60478238783878  1.38437837783778
 6 -3.59013107600760 -1.76407146914691  0.23908769376938
 6  2.16557081728173  2.97074350255026 -0.01036851385139
 6 -5.03200939723972 -1.44384988818882  0.55362400130013
 6  5.14489296739674  0.80151982198220 -0.42574563096310
 6 -2.61341230343034 -0.98619539113911 -0.33357377177718
 6 -1.60016795449545 -3.78674317661766 -1.79493273697370
 6 -4.59071653845385 -3.71328983468347  1.30733984858486
 6  2.04915539153915 -4.60256247594759 -0.94556741254125
 6  5.46025590189019 -0.03658972287229  0.81099920602060
 6  4.57831361756176  3.86388762006201  0.32669485328533
 6  1.24557579897990  4.04039844734473  0.26323644314431
 6 -6.99261039163916 -3.14218159795980  1.07000646674667
 6 -5.78437704020402 -0.54253898379838 -0.15350682508251
 6 -0.09274426342634  3.98032270387039  0.20317894349435
 6 -1.00184114581458  5.14021511451145  0.41731636023602
 6 -2.22800812701270  4.65506162896290  0.32424382728273
 6  2.98060090139014 -4.08704532363236  0.06214761376138
 6 -5.36950161096110  0.42965819441944 -1.30802186918692
 6  6.75884845104510 -0.73516180028003  0.70527364996500
 6 -3.52201796109611  5.25821211941194  0.43163397849785
 6 -2.11002443874387  3.20432262356236 -0.04285336053605
 6 -0.50426456395640  6.48183205120512  0.80643573337334
 6 -4.24058259515952  5.78521692659266 -0.89513028872887
 1 -0.29203676857686  0.22171787738774 -0.13139369266927
 1  3.08217223182318 -1.15558756085609 -0.89321883048305
 1  2.44042529342934 -3.17603231013101 -2.34301673637364
 1  1.14525130443044 -3.89572148974898 -2.74464683118312
 1 -5.57326913311331 -2.20365875497550  2.53442560306031
 1  5.25990630083008  0.26888160466047 -1.37046019901990
 1  6.11331329692969  1.52638694799480 -0.70067136673667
 1 -2.75307340304030  0.05989048524852 -0.40778368396840
 1  0.49592592429243  1.77067825082508 -0.45619509160916
 1 -1.33726931813181 -4.73985608980898 -1.15355616131613
 1 -2.68866249594959 -3.37985568756876 -1.77705702590259
 1 -1.29890984208421 -4.04430260466047 -2.87074067706771
 1 -2.39382314011401 -3.36364251265126  0.89843709070907
 1  1.18028383508351 -5.13528601110111 -0.62294601210121
 1  2.79247843364336 -5.28910161866187 -1.50002451635164
 1  4.80455487648765 -0.85140119121912  1.10479106530653
 1  5.57182138173817  0.51344578117812  1.93009748044804
 1  4.18845636593659  4.66686715411541 -0.49670965366537
 1  5.53611023382338  3.46900962016202  0.27880440364036
 1  4.23286270367037  4.38363387148715  1.29027033093309
 1  1.86395222722272  4.79532946254625  0.74488427532753
 1 -7.75893866546655 -2.40190618511851  1.17454214821482
 1 -7.18570421472147 -4.14468223412341  1.56515888378838
 1 -7.04316250025002 -3.32038980248025 -0.08797720852085
 1 -6.78791613331333 -0.48429876117612  0.04066599449945
 1 -4.88843368516852  1.26905110201020 -1.08848269636964
 1 -6.36542837253725  0.83268089638964 -1.62691937043704
 1 -4.79716821232123 -0.21037419121912 -1.93323453615362
 1 -3.30103998329833  6.28667132293229  0.96176388038804
 1 -4.11907958545855  4.66778591079108  1.04763690149015
 1  0.21185575087509  6.61269322922292  1.62127485998600
 1 -1.41578296159616  7.23361005650565  0.83916317271727
 1  0.15657484508451  6.90422892339234 -0.05837950375038
 1 -3.41226152195220  6.21927781088109 -1.38047586368637
 1 -4.88871069416942  6.59810255125513 -0.84604974667467
 1 -4.31041556265627  5.11914340664066 -1.47384712311231
 1  3.73375868236824 -4.29984421462146  1.70796943394339
 1  7.92247949264927 -1.66780743304330  1.83447360996100

