%nproc=4
%Mem=4GB
# td=(NStates=1) B3LYP/SVP 

TD

0 1
 8 -4.50710083088309 -4.64659474067407  2.04756011961196
 8  2.83777437553755 -5.03129767896790  1.16380431223122
 8  7.01917229862986 -1.52116965806581  1.89196941744174
 8  3.71260299309931 -3.18203732893289  0.17652051045105
 8  7.67025577757776 -0.44138551785178 -0.01759132843284
 8 -3.13606393519352  2.54547194469447 -0.36128103270327
 7 -0.25795017671767 -0.61190053985399 -0.65295393159316
 7  1.54021170387039  1.80628300710071 -0.38862052415242
 7 -3.38133507650765 -3.10512955975598  0.72225069636964
 7 -0.75648705160516  2.86272669086909 -0.13590861476148
 6  0.62229346174617 -2.47005244354435 -1.41094317741774
 6  0.91268020182018 -1.10539049014902 -0.99345190049005
 6 -0.78011233633363 -2.69502339173917 -1.25815601500150
 6 -1.32211431763176 -1.55129877177718 -0.82330379627963
 6  3.84044198549855  1.40647513281328 -0.43273949034903
 6  2.50809150215022  0.78469980178018 -0.52114367296730
 6  2.23774077837784 -0.48776492229223 -0.87367961296130
 6  3.55502933983398  2.68633664186419  0.00277950505051
 6  1.65909706220622 -3.40188545434543 -1.92503270427043
 6 -5.51475081028103 -2.46693860346035  1.42462240224022
 6 -3.62072413531353 -1.86126118811881  0.01879566456646
 6  2.18032229242924  2.97608403660366 -0.14838231523152
 6 -5.04716091239124 -1.62216771997200  0.31843048194819
 6  5.12632111021102  0.66378604860486 -0.35987904430443
 6 -2.75286624882488 -1.08834560616062 -0.63998441284128
 6 -1.43868180588059 -3.95297980028003 -1.70028327202720
 6 -4.43369083588359 -3.53412191789179  1.46176529112911
 6  2.12428290429043 -4.56986920662066 -1.11035389118912
 6  5.42588246454645 -0.06239230313031  0.89112721882188
 6  4.57012279847985  3.74325555685569  0.42873505730573
 6  1.34283552495250  4.10614502200220  0.12825294479448
 6 -6.91338246884688 -3.13745112491249  1.24903436953695
 6 -5.80382898539854 -0.64577930783078 -0.18743021742174
 6 -0.05972096109611  4.03153782538254  0.09615824142414
 6 -1.03463442514251  5.17302839583958  0.57089171777178
 6 -2.22456778297830  4.74873099589959  0.41970337323732
 6  2.87415025632563 -4.14900151925192  0.06926832583258
 6 -5.46335099589959  0.26552178077808 -1.26663773077308
 6  6.89635220142014 -0.69882816691669  0.87635075767577
 6 -3.48648440774077  5.49253555175518  0.52850366546655
 6 -2.16628006430643  3.24347653895390 -0.08081715691569
 6 -0.44483862136214  6.54761862986299  0.98208329812981
 6 -4.23804234113411  5.77898630353035 -0.83495427112711
 1 -0.54021158605861  0.31281698729873 -0.22130268356836
 1  3.14044805940594 -1.18842084418442 -0.94271377997800
 1  2.41845309620962 -2.60259496639664 -2.15357779247925
 1  1.16646342564256 -3.73875579317932 -2.86170853735373
 1 -5.63147495369537 -1.99844823392339  2.33186534703470
 1  5.00470078027803 -0.11807709120912 -1.23951710471047
 1  5.95825779137914  1.51079538883888 -0.32060335993599
 1 -2.90574867056706 -0.04884038783878 -0.67570047564756
 1  0.54680101180118  1.92065324832483 -0.42011148324833
 1 -1.34787037823782 -4.90691279547955 -1.18523932963296
 1 -2.54882851255125 -3.60288799079908 -1.90389971017102
 1 -1.03415336643664 -4.28427660206021 -2.61907551055106
 1 -2.39270302810281 -3.28627477587759  0.74599184618462
 1  1.23291909860986 -5.09118160066007 -0.48886260376038
 1  2.51655084088409 -5.49380208870887 -1.81813632753275
 1  4.85292971397140 -0.86256230733073  1.07372795899590
 1  5.24698889848985  0.46336077267727  1.74601907260726
 1  4.58805632593259  4.61780224762476 -0.26769675237524
 1  5.58517514031403  3.29843256245625  0.54442096529653
 1  4.25825524292429  3.88169367746775  1.41153245714571
 1  1.71356718871887  5.18620855045505  0.35033482038204
 1 -7.77580035163516 -2.47459345384538  1.63867856185619
 1 -7.10400604490449 -3.98059582548255  1.62439480738074
 1 -7.01730991499150 -3.20219798329833  0.15796738593859
 1 -6.89401674337434 -0.49063939523952  0.33802573047305
 1 -5.16305114691469  1.42062625952595 -1.06384023212321
 1 -6.35670750045004  0.43373100140014 -2.03786046454645
 1 -4.71494999049905 -0.10979413321332 -1.99728094079408
 1 -3.28097797709771  6.46816947274727  0.91421912591259
 1 -4.18328600610061  4.96494562676268  1.20244238203820
 1  0.09587415271527  6.28034999489949  1.70764349684968
 1 -1.25183656695670  7.18546524202420  1.40143940034003
 1  0.15978516611661  7.03933243374337  0.08492482668267
 1 -3.66805710151015  6.69158504160416 -1.33339115521552
 1 -5.17360918401840  6.24946768776878 -0.80621576327633
 1 -4.42811733283328  4.98150964326433 -1.48986872527253
 1  3.51040634713471 -4.72313654385439  1.76236487348735
 1  8.10114735943594 -1.61893254555455  1.92130229282928

