%nproc=4
%Mem=4GB
# td=(NStates=1) B3LYP/SVP 

TD

0 1
 8 -4.58497861866187 -4.69870995219522  1.81370673427343
 8  2.94907550565057 -4.70263481268127  1.33254118591859
 8  6.87417779917992 -1.68310585168517  1.91702192269227
 8  3.82141387418742 -3.08936806200620  0.03265612401240
 8  7.49336808880888 -0.61570294959496 -0.06910647994799
 8 -3.02949327812781  2.34034143164316 -0.18348325292529
 7 -0.32124650635064 -0.59743909370937 -0.70387902410241
 7  1.50446812951295  1.85055743454345 -0.30109177127713
 7 -3.50534747774777 -3.12825187198720  0.59252772407241
 7 -0.71885328822882  2.88408882708271 -0.07320234413441
 6  0.68107934033403 -2.46752219051905 -1.44164624772477
 6  0.95676461026103 -1.15638558965897 -0.96229878517852
 6 -0.74101842694269 -2.71008489788979 -1.40269046844684
 6 -1.35462756895690 -1.47893153505351 -0.82342380828083
 6  3.85277321862186  1.45001948724872 -0.37429364576458
 6  2.50146083908391  0.87973930573057 -0.50159171777178
 6  2.21775878017802 -0.45151129692969 -0.77467971297130
 6  3.57264110101010  2.82748075627563  0.06510573767377
 6  1.68692984548455 -3.47152241804180 -1.94921512251225
 6 -5.46699603480348 -2.45626753635364  1.56804674467447
 6 -3.63602566546655 -1.85174023602360  0.08240202520252
 6  2.19922418261826  2.97799422762276  0.04298682168217
 6 -5.06749294559456 -1.46357186038604  0.38721736063606
 6  5.10298877697770  0.61688135813581 -0.40438349474947
 6 -2.67720868306831 -1.02646941854185 -0.42039245364536
 6 -1.48744668236824 -3.90871537383738 -1.86316956065607
 6 -4.52886035283528 -3.60951945764576  1.34084319891989
 6  2.20753122912291 -4.47406962666267 -1.09122197799780
 6  5.28806868316832 -0.20469653355336  0.80798890499050
 6  4.62328811501150  3.92570380168017  0.25620780458046
 6  1.37874911631163  4.12557696519652  0.21833195269527
 6 -6.95681681228123 -2.96556393619362  1.43609307540754
 6 -5.76151475397540 -0.41220595049505 -0.12982445684568
 6 -0.07549253825383  4.01475614721472  0.22415104070407
 6 -1.07959892159216  5.15016610961096  0.45849047764776
 6 -2.35440076627663  4.60025614841484  0.33322472537254
 6  3.15288813011301 -3.97881450055006  0.12169356835684
 6 -5.27609227002700  0.45291051965197 -1.33590465746575
 6  6.70474304050405 -0.92036032013201  0.83372649524952
 6 -3.57677343664366  5.31104740294029  0.41121193629363
 6 -2.13472690899090  3.18591078237824  0.01761268606861
 6 -0.51327546504650  6.50606447444745  0.91879696949695
 6 -4.23246178307831  5.45122352725273 -1.00822159785979
 1 -0.60046761166117  0.25668137373737 -0.26791734503450
 1  3.03728774337434 -1.13514551665166 -0.93626313491349
 1  2.52375362626263 -3.13980868776878 -2.53426586128613
 1  1.19169594889489 -4.07294921252125 -2.64915728222822
 1 -5.48886069226923 -2.24437282638264  2.59553171367137
 1  4.86117642784278  0.09252396889689 -1.27242039503950
 1  5.87277924352435  1.14801911121112 -0.33584488408841
 1 -3.04657275297530  0.01343583978398 -0.53997690329033
 1  0.38199453115312  1.92414359735974 -0.40142961506151
 1 -1.39573516471647 -4.54263636783678 -1.12006281198120
 1 -2.32257588728873 -3.61514921692169 -2.16611593179318
 1 -0.90037998909891 -4.53455162956296 -2.69089269226923
 1 -2.50616437423742 -3.50247639603960  0.73297054405441
 1  1.65788159485949 -5.00175265776578 -0.57492120962096
 1  2.76769595539554 -5.30491319981998 -1.67278179207921
 1  4.59178359935994 -0.94863091419142  1.02375296149615
 1  5.29934413401340  0.50666510311031  1.58198266896690
 1  4.41917943824382  4.81992245964596 -0.41104108680868
 1  5.58284490729073  3.62765548474847 -0.05345882268227
 1  4.75007442484248  4.01917742584259  1.34064536843684
 1  1.88238407040704  5.09358928852885  0.52277206410641
 1 -7.74155692729273 -2.21511750625062  1.70180487448745
 1 -6.96061170547055 -3.89479724562456  2.07256962486249
 1 -7.04588277227723 -3.15624338783878  0.33729531873187
 1 -6.73109045074507 -0.13389372067207  0.24891681958196
 1 -4.73841868366837  1.33255745264526 -0.90003385148515
 1 -6.09267109680968  0.42639026732673 -1.93543022152215
 1 -4.47015551105110 -0.19044219801980 -1.75713692639264
 1 -3.23142302160216  6.43129578537854  0.79799750375037
 1 -4.25597327482748  5.01057018921892  1.13158529632963
 1 -0.00234566926693  6.22463442334233  1.90858359085909
 1 -1.19263064636464  7.23621031653165  0.93347260366037
 1  0.43125231283128  6.67283578407841  0.31495782998300
 1 -3.77227752355236  6.13524940804080 -1.56271408750875
 1 -5.32909473257326  5.67868060906091 -0.79898504020402
 1 -4.52534705580558  4.57765925822582 -1.47704744314431
 1  3.61920722722272 -4.13542777297730  1.83254189118912
 1  7.84345158985899 -1.85080573287329  1.98889905250525

