%nproc=4
%Mem=4GB
# td=(NStates=1) B3LYP/SVP 

TD

0 1
 8 -4.62729285008501 -4.67162724392439  1.97654301790179
 8  2.66888748684868 -4.67401195039504  1.43839177097710
 8  7.32385276667667 -1.25963350445044  1.86109633013301
 8  3.65058679147915 -3.14317344254425  0.07840069846985
 8  7.86620537253725 -0.40769214851485 -0.03815338463846
 8 -3.03428375717572  2.37057445494549  0.01946704210421
 7 -0.24225860756076 -0.60487983778378 -0.62389102530253
 7  1.56682436513651  1.80384276307631 -0.42843450555056
 7 -3.37328427142714 -3.18691773857386  0.69479795109511
 7 -0.70495189808981  2.81180159835984  0.03428840494049
 6  0.67475870827083 -2.48325376367637 -1.46650873397340
 6  1.00595952975298 -1.15638558965897 -0.94903745904590
 6 -0.75332965806581 -2.67414130353035 -1.35381558095810
 6 -1.27094920112011 -1.48455209710971 -0.77352881878188
 6  3.74894283558356  1.43207769306931 -0.36549276567657
 6  2.49726041904190  0.75879721152115 -0.60440199879988
 6  2.21969897419742 -0.55002114791479 -0.78314055905591
 6  3.59283312021202  2.76543455165517 -0.11660243314331
 6  1.62849400190019 -3.45370063586359 -1.97390759175918
 6 -5.62540187538754 -2.57740965056506  1.33149308930893
 6 -3.63454551745175 -1.92576763876388  0.06715050005001
 6  2.10533479367937  2.98986541474147 -0.11652912991299
 6 -5.05546174247425 -1.53170867406741  0.33028166706671
 6  5.01687016511651  0.62601227122712 -0.49679273567357
 6 -2.62955391759176 -1.16510328192819 -0.53916433083308
 6 -1.66264420212021 -3.75613011531153 -1.82459570327033
 6 -4.60359782658266 -3.64973347904790  1.31406052065207
 6  1.98470894689469 -4.55537775747575 -0.84908776457646
 6  5.40603047934793 -0.26740280418042  0.68523662976298
 6  4.47149293549355  3.80024125542554  0.48326050985099
 6  1.37181842324232  4.11039544704470  0.19644976447645
 6 -7.08619975057506 -3.10902828262826  1.01864133023302
 6 -5.82554115661566 -0.54324905480548 -0.24477595199520
 6 -0.02073706270627  3.95362003360336  0.20030865646565
 6 -0.98099906160616  5.11725281828183  0.49590421902190
 6 -2.22199752595260  4.62262838563856  0.41468287118712
 6  2.87557039833983 -4.04095071417142  0.25465686468647
 6 -5.35423008380838  0.58017324592459 -1.15352641964196
 6  6.94908747494749 -0.68305658975898  0.70301342394239
 6 -3.53806956625663  5.36114241244124  0.52902371747175
 6 -2.05615905220522  3.19484167546755  0.05370629542954
 6 -0.47103124062406  6.49358322632263  0.73915900570057
 6 -4.17939647654765  5.55212361726173 -0.88653942964296
 1 -0.63493105800580  0.35285099069907 -0.37999855315532
 1  3.03803781838184 -1.18231023312331 -0.98610811941194
 1  2.46958820972097 -2.78048275517552 -2.20578301300130
 1  1.24158093739374 -3.91720363796380 -2.84381674817482
 1 -5.34374618081808 -2.07224561366137  2.30115227572757
 1  4.89686999719972  0.17230194669467 -1.53297645064506
 1  6.05023698929893  1.09286359565957 -0.57398869846985
 1 -2.84499259495950 -0.08185368916892 -0.60194309990999
 1  0.67142347404740  1.93298448144814 -0.65607507960796
 1 -1.62762835403540 -4.65422752695270 -1.28489929562956
 1 -2.61434506420642 -3.32178988098810 -1.98907822802280
 1 -1.37387733883388 -4.03342151655166 -2.96646024902490
 1 -2.53465722352235 -3.87952410081008  0.73053030003000
 1  1.14090989768977 -5.10477295979598 -0.48833255075508
 1  2.74387357315732 -5.26695940444044 -1.34613912781278
 1  4.82133655465547 -1.33515956705671  0.79240982718272
 1  5.19315351495149  0.00118455505551  1.62363683438344
 1  4.46181370167017  4.74104457185719 -0.14528451115111
 1  5.60687731053105  3.56245896509651  0.40718724192419
 1  4.18916833423342  3.84548005610561  1.69030033393339
 1  1.98217404940494  4.86938686828683  0.63859364626463
 1 -7.80306307790779 -2.24880087458746  1.21236593059306
 1 -7.32243788808881 -4.00153791969197  1.58331069896990
 1 -6.93914209820982 -3.39698746224622 -0.02823123392339
 1 -6.77262460416042 -0.70466079737974  0.13538546644665
 1 -4.83292813461346  1.29201339823982 -0.58234208230823
 1 -6.18274010371037  1.26365399369937 -1.61561824032403
 1 -4.74348284378438  0.29668651485148 -2.01247245994599
 1 -3.64329420872087  6.41740439623962  1.04773247724772
 1 -4.21625930343034  4.73308244044405  1.05297743554355
 1  0.08593315861586  6.52120408030803  1.68322105460546
 1 -1.18524990829083  7.31747844334433  0.98499775617562
 1  0.19977916551655  6.97156565706571 -0.14223788958896
 1 -3.58135843164317  6.43590947404740 -1.45138295439544
 1 -5.15230705380538  5.86211895289529 -0.84152929462946
 1 -4.14912943404340  4.74169566186619 -1.62136187458746
 1  3.47868317481748 -4.24587881808181  2.00477911491149
 1  8.31374861956196 -1.45201585388539  1.76166632923292

