%nproc=4
%Mem=4GB
# td=(NStates=1) B3LYP/SVP 

TD

0 1
 8 -4.60425054585459 -4.78102818401840  1.84837020062006
 8  2.63877447554755 -4.76654120332033  1.41275920772077
 8  7.38280866226623 -1.22213975507551  1.85384560506051
 8  3.67154888768877 -3.21232035723572  0.13413627202720
 8  7.59094784678468 -0.70608198749875 -0.41473104240424
 8 -2.95625595439544  2.44061145864586 -0.21139604420442
 7 -0.26999138083808 -0.64962431223122 -0.56334497069707
 7  1.52692037473747  1.77057943674367 -0.35158682078208
 7 -3.47507445044504 -3.23558260506051  0.53515198649865
 7 -0.67056845974597  2.92550296849685 -0.14058908280828
 6  0.61740297269727 -2.49075451375138 -1.38798088118812
 6  0.95255418921892 -1.23990394149415 -0.90261281658166
 6 -0.74895922102210 -2.70223411281128 -1.21001120052005
 6 -1.31250335653565 -1.47089073097310 -0.68911037693769
 6  3.85064300560056  1.41106559185919 -0.42082829922992
 6  2.52754344734473  0.77231856365637 -0.60791234983498
 6  2.19413641794179 -0.50531667746775 -0.84916716171617
 6  3.54979881678168  2.75043305150515  0.02914214131413
 6  1.58961011351135 -3.48679394519452 -1.82084228522852
 6 -5.49760909610961 -2.57043895349535  1.25044498449845
 6 -3.62954501740174 -1.84565962796280  0.07372115711571
 6  2.09784404460446  2.98507493569357 -0.00099757675768
 6 -5.01487768406841 -1.57373287648765  0.34094273317332
 6  5.09372785088509  0.76761643164316 -0.43546660306031
 6 -2.65422638483848 -1.15608237983798 -0.52140255465547
 6 -1.42757069476948 -3.75458996129613 -1.78073131683168
 6 -4.47671513831383 -3.71673017871787  1.25893500810081
 6  1.90775125112511 -4.61751397109711 -0.85775863166317
 6  5.55276515281528 -0.08248431233123  0.80258836493649
 6  4.49521530773077  3.86917814911491  0.54590677447745
 6  1.34434567596760  4.09889429692969  0.16310643014301
 6 -7.01017214781478 -3.13650102990299  1.02589205530553
 6 -5.86097469997000 -0.63763849374937 -0.11523299769977
 6 -0.00958594759476  4.07817248884888  0.19666829242924
 6 -0.93258422012201  5.20223131613161  0.48244287288729
 6 -2.20004533073307  4.74324044684468  0.41803320622062
 6  2.79845268656866 -4.11724834393439  0.28377977697770
 6 -5.44933959475948  0.44481971057106 -1.10437150415042
 6  6.85734830103010 -0.67079536363636  0.72049517211721
 6 -3.46256201550155  5.46196249444944  0.49052986808681
 6 -2.02522595889589  3.20224241554155  0.01573249804981
 6 -0.65592973047305  6.65556942494249  0.85375046484648
 6 -4.07505604250425  5.77872627752775 -0.88016879257926
 1 -0.41273883878388  0.43534924052405 -0.21103165646565
 1  3.03849786438644 -1.27756975907591 -0.93916342494249
 1  2.53249450035003 -3.10752545944595 -2.06735917061706
 1  1.25792257155716 -4.05268718631863 -2.79585195169517
 1 -5.67710951715171 -2.37373576267627  2.33787594809481
 1  5.10535084528453 -0.22054733823382 -1.05716886988699
 1  5.91235320092009  1.22585689498950 -0.90104140374037
 1 -2.89229732543254 -0.19551505530553 -0.59620252585259
 1  0.52177850955096  1.76812799579958 -0.61135060716072
 1 -1.51643723492349 -4.57439954415442 -1.05861666736674
 1 -2.57645127482748 -3.52623032503250 -2.23415273547355
 1 -0.98497844894489 -4.28798697309731 -2.51871547454745
 1 -2.63250700850085 -3.63942009040904  0.40926817381738
 1  1.01055686238624 -5.15118760126013 -0.51779549704970
 1  2.44216340214021 -5.19694240274027 -1.41133564746475
 1  4.75813023402340 -0.90287633873387  1.07553814001400
 1  5.30190439003900  0.58156259285929  1.65726019671967
 1  4.83262078237824  4.47445791319132 -0.31289127182718
 1  5.61030765356536  3.49431215041504  0.84571109430943
 1  4.10584000140014  4.34498000610061  1.55381668556856
 1  1.86838267026703  4.96656658625863  0.37522730963096
 1 -7.96815958755876 -2.52359835433543  1.11654634863486
 1 -7.20946659095910 -4.15818358425842  1.67507987588759
 1 -7.11353953795379 -3.69124688818882 -0.00651906270627
 1 -6.73820116181618 -0.57669800110011  0.31944387228723
 1 -4.95542038383838  1.43689788668867 -0.69966381448145
 1 -6.19405123482348  0.71654928322832 -1.76245292379238
 1 -4.70906940244024  0.04693153935393 -1.74166537923792
 1 -3.47912779207921  6.31758441424142  1.24527223122312
 1 -4.30247792529253  4.84635376757676  1.20001213901390
 1  0.05087965326533  6.79184114401440  1.85382811531153
 1 -1.64705608890889  7.26933362886289  1.11333058945895
 1 -0.13494430683068  6.90878937943794 -0.07368103390339
 1 -3.69830012581258  6.56404228732873 -1.67666548264826
 1 -5.08175999909991  5.99359210021002 -0.64811995369537
 1 -4.23272779387939  4.84111560386039 -1.27714745314531
 1  3.34038934543454 -4.45876010621062  1.94364300130013
 1  8.15352259695970 -1.56266691899190  1.63326348894890

