%nproc=4
%Mem=4GB
# td=(NStates=1) B3LYP/SVP 

TD

0 1
 8 -4.39293941474147 -4.81547162836284  1.86105146874687
 8  2.85104570267027 -4.82040658985899  1.29856778857886
 8  7.00958133953395 -1.50110765186519  1.89194941544154
 8  3.65792752555256 -3.05981510671067  0.11238409680968
 8  7.69777852985299 -0.57555893519352 -0.03903347264726
 8 -3.03701403020302  2.44213161066107 -0.18681358595860
 7 -0.21772615431543 -0.49703905370537 -0.57938657485749
 7  1.56294397709771  1.81868424722472 -0.46655831793179
 7 -3.33346028902890 -3.13305235203520  0.67136560786079
 7 -0.76254765766577  2.87276769496950 -0.23982900680068
 6  0.71884311671167 -2.46015145344534 -1.42181426452645
 6  0.94295322912291 -1.13685363646365 -0.94852740804080
 6 -0.70848517361736 -2.55247913731373 -1.45681588098810
 6 -1.25592769896990 -1.37219086098610 -0.81310277617762
 6  3.82865080638064  1.43656814211421 -0.39164538093809
 6  2.52405309830983  0.84588592039204 -0.73502506110611
 6  2.21837884218422 -0.56806295209521 -0.89107135213521
 6  3.61869570647065  2.72887089528953  0.05880510761076
 6  1.48850000250025 -3.61177644344434 -1.94814501550155
 6 -5.59509884508451 -2.57080899049905  1.34235417541754
 6 -3.60612267516752 -1.83395845784578  0.07889167416742
 6  2.13762802300230  2.93729015721572 -0.04127160416042
 6 -5.00142633893389 -1.47395289848985  0.33466210511051
 6  5.08377685578558  0.73760343034303 -0.44451750815082
 6 -2.65724668686869 -1.07746451805180 -0.46999741414141
 6 -1.57293523122312 -3.71204570687069 -1.86544978867887
 6 -4.44628209500950 -3.72915142084208  1.30248936353635
 6  1.89385986198620 -4.58083030273027 -0.77989084488449
 6  5.50513038933893  0.03493742984298  0.89535764186419
 6  4.77878366456646  3.69591082238224  0.39499168296830
 6  1.30545178657866  4.05842024952495  0.24504462396240
 6 -6.95944707530753 -3.12077945774577  1.17602706880688
 6 -5.80766936943694 -0.62810754065407 -0.07185866026603
 6 -0.06447143614361  3.99037370897090  0.17532615821582
 6 -1.01216217791779  5.13285437843784  0.51185581418142
 6 -2.21233655985599  4.62795891869187  0.32888429132913
 6  2.78988182948295 -4.00699731883188  0.26543794279428
 6 -5.51678633943394  0.45851107970797 -1.16610767776778
 6  6.82363492969297 -0.70775906000600  0.82048517111711
 6 -3.58477423672367  5.28561485968597  0.56887770287029
 6 -2.05351878817882  3.24720691199120 -0.14515359055906
 6 -0.56739087658766  6.53839770777078  0.77683277307731
 6 -4.18917745464546  5.65340374527453 -0.82948372407241
 1 -0.49782734763476  0.41092679827983 -0.05170572387239
 1  2.97516153075308 -1.29738174027403 -1.01241074967497
 1  2.37483873477348 -3.25440014691469 -2.57051948664866
 1  0.82831961126113 -4.28054997259726 -2.59342170867087
 1 -5.56051785798580 -2.04003239233923  2.37617977847785
 1  5.18891920212021 -0.12801808530853 -1.33580673367337
 1  5.82889485508551  1.59349365866587 -0.64695599519952
 1 -2.92465056075608 -0.00923642744274 -0.68431133673367
 1  0.52407873957396  1.89198038103810 -0.92114158625863
 1 -1.65305089628963 -4.73995609980998 -1.27390819651965
 1 -2.72127575727573 -3.44596229822982 -1.56985630583058
 1 -1.42638258935894 -4.12511068546855 -2.93051665466547
 1 -2.40861461926193 -3.43488963736374  0.63147039403940
 1  0.85661146784678 -4.80696317881788 -0.39238295579558
 1  2.50118930473047 -5.44881759025903 -1.14702921682168
 1  4.67614203520352 -0.79609566066607  1.08692927912791
 1  5.41517571717172  0.61808624522452  1.79648411911191
 1  4.42495001530153  4.82263273067307  0.17601761906191
 1  5.79847647044704  3.40763348254826 -0.08485196199620
 1  5.13280269766977  3.86450195829583  1.65606691059106
 1  1.89844567656766  4.83292322192219  0.75220500740074
 1 -7.74336710831083 -2.41647764226423  1.30782547654766
 1 -7.14673031733173 -3.87947571347135  2.08352071997200
 1 -7.06021420542054 -3.58012577607761  0.17542913211321
 1 -6.76809415111511 -0.77164749604960  0.38089001690169
 1 -5.30189503130313  1.47320151705170 -0.73225707380738
 1 -6.46955878557856  0.82925055335534 -1.61132781128113
 1 -5.05522401790179 -0.04804795859586 -2.12638385108511
 1 -3.53698357765777  6.24082673847385  1.27290499449945
 1 -4.26026370387039  4.76174530673067  0.95652779057906
 1  0.23191775707571  6.33669562946295  1.61617434993499
 1 -1.47606899019902  7.02911960746075  1.16648590499050
 1 -0.08936974937494  7.29716821732173  0.04463079727973
 1 -3.40037033283328  6.32990887398740 -1.33621143724373
 1 -5.30754257735774  6.03897663866387 -0.44907004870487
 1 -4.02896741784178  4.79574106640664 -1.50121986038604
 1  3.42223753025303 -4.64301853205321  1.89465810281028
 1  7.81939918461846 -1.89796044834483  1.81095125772577

