%nproc=4
%Mem=4GB
# td=(NStates=1) B3LYP/SVP 

TD

0 1
 8 -4.58221834263426 -4.77902798399840  1.66877224082408
 8  2.94927552565257 -4.90754530373037  1.21349928172817
 8  7.02735311671167 -1.50768830993099  1.86578679917992
 8  3.73564529732973 -3.18584770997100  0.15304816321632
 8  7.56643539553955 -0.51359273857386 -0.16619618891889
 8 -2.97917824662466  2.42518991649165 -0.18985388998900
 7 -0.27831221292129 -0.60741009080908 -0.39579821602160
 7  1.56683436613661  1.82031441024102 -0.26524818691869
 7 -3.39213615661566 -3.05810485728573  0.57431590289029
 7 -0.70869227212721  2.86109652785279 -0.00554557845785
 6  0.64836606900690 -2.50874631293129 -1.27102918601860
 6  1.02734166796680 -1.15003495459546 -0.78113066836684
 6 -0.76026035113511 -2.72935682508251 -1.20949114851485
 6 -1.28201030723072 -1.48584222612261 -0.64458592449245
 6  3.76224416571657  1.41198568386839 -0.40144636103610
 6  2.49517021002100  0.84134546634663 -0.47083864246425
 6  2.22909991429143 -0.53238938473847 -0.71471371637164
 6  3.54798863576358  2.80858886708671 -0.14775554845485
 6  1.59725087758776 -3.52145741154115 -1.84971517251725
 6 -5.56053538873887 -2.60409231883188  1.23308324832483
 6 -3.59716177907791 -1.79432449444944  0.07171095609561
 6  2.12090635083508  2.94682111031103 -0.04739221622162
 6 -4.97720391669167 -1.45221072427243  0.37885652455246
 6  5.04750322842284  0.72577224722472 -0.38314137053705
 6 -2.64096505870587 -1.09378615021502 -0.42863327772777
 6 -1.48716665436544 -3.92499700200020 -1.89546278997900
 6 -4.56689415621562 -3.64630313601360  1.25112422702270
 6  2.07891836783678 -4.58896111581158 -0.79596245204520
 6  5.26521639793979 -0.21981804570457  0.84640274637464
 6  4.52979876607661  3.92039327062706  0.11853403720372
 6  1.29005024642464  4.14109851735174  0.15903602310231
 6 -7.02331346194619 -3.16245362516252  1.04229369546955
 6 -5.74339294179418 -0.43041777167717 -0.14045551995200
 6 -0.00640562956296  4.05256992859286  0.22887151275128
 6 -0.96519748144814  5.20777187018702  0.49003363196320
 6 -2.16286161236124  4.67121324412441  0.36540794369437
 6  3.00986382768277 -4.12981960106011  0.14755615461546
 6 -5.29265392619262  0.45059028762876 -1.14597566456646
 6  6.75354792099210 -0.83751203530353  0.66461958455846
 6 -3.50430618991899  5.39511580978098  0.50171098619862
 6 -2.04815825212521  3.18741093239324  0.01627255205521
 6 -0.50681481898190  6.65118898689869  0.60247533733373
 6 -4.46745528242824  5.72641104600460 -0.72603337903790
 1 -0.35772333723372  0.33300900650065  0.03486293299330
 1  3.05045906050605 -1.19010101220122 -0.92919242784278
 1  2.59075032593259 -2.94631933883388 -2.02728516321632
 1  1.29132591189119 -3.99345126272627 -2.82645501200120
 1 -5.63063486968697 -2.16292468156816  2.31740390089009
 1  5.28454876507651  0.02637735423542 -1.31572472547255
 1  5.74752671827183  1.66664097339734 -0.50880217981798
 1 -2.84150224592459  0.01005550175018 -0.35683858945895
 1  0.45835216691669  2.00281146414641 -0.32878235033503
 1 -1.63318891009101 -4.81101320552055 -1.22369317501750
 1 -2.60343397309731 -3.61381908390839 -1.93914323452345
 1 -0.88820877197720 -4.11926010041004 -2.78746234923492
 1 -2.47963172097210 -3.51637778617862  0.68592583958396
 1  1.26108191489149 -4.88691117361736 -0.39851356885689
 1  2.61621080688069 -5.47026973547355 -1.38429294319432
 1  4.59071349234924 -0.94236028712871  0.80615120132013
 1  5.31522572217222  0.06991142774277  1.83864833553355
 1  4.43422094239424  4.60858132553255 -0.64282426512651
 1  5.59212583538354  3.75493821302130  0.00915743894389
 1  4.51009042644264  4.43815932403240  1.09842114601460
 1  1.79388522052205  5.03818374797480  0.29206899379938
 1 -7.78344111571157 -2.32523851835184  1.11195588958896
 1 -7.32813845814581 -3.88932669856986  1.83959632753275
 1 -7.02664084808481 -3.58459622312231  0.12528411761176
 1 -6.66106344804480 -0.37557788908891  0.28622054995500
 1 -4.82983782558256  1.36597079397940 -0.72249609770977
 1 -6.13918574827483  0.82389001730173 -1.81801848034804
 1 -4.54749324482448 -0.03328648244824 -1.82950416311631
 1 -3.20235011431143  6.36324898069807  1.10509821382138
 1 -4.13951162866287  4.74896402860286  1.32623476127613
 1  0.06346091139114  6.74178613851385  1.46787952045205
 1 -1.35496687998800  7.42464916041604  0.78304756115612
 1 -0.10378119051905  7.17204570507051 -0.36491015681568
 1 -3.94478477427743  6.35888177127713 -1.52544036013601
 1 -5.33587541064106  6.38822156315632 -0.30080522222222
 1 -4.63535805690569  4.79855134743474 -1.30675041344134
 1  3.72028733523352 -4.72761699189919  1.81419005600560
 1  7.83569081378138 -2.02195284758476  1.85137530013001

