%nproc=4
%Mem=4GB
# td=(NStates=1) B3LYP/SVP 

TD

0 1
 8 -4.53735385618562 -4.66754683588359  1.97130249384938
 8  3.13898449654966 -4.99240378957896  1.25674360616062
 8  7.06356673807381 -1.40661820292029  1.90594081458146
 8  3.85520725352535 -3.19644877007701  0.03864672307231
 8  7.57145589758976 -0.84108548784878 -0.25499506880688
 8 -3.08218854765477  2.44789218671867 -0.22917782238224
 7 -0.32578696039604 -0.50738008780878 -0.60353899009901
 7  1.60548823152315  1.76613899269927 -0.35385704780478
 7 -3.42211915491549 -3.14749379617962  0.64948341964196
 7 -0.76513791669167  2.93964438263826 -0.14433945784578
 6  0.68981021342134 -2.50570600890089 -1.27786987008701
 6  0.89797873167317 -1.10804075517552 -0.87407996329633
 6 -0.69526385148515 -2.62171606100610 -1.20653085248525
 6 -1.32156426262626 -1.32859650155016 -0.81182264816482
 6  3.80553849514952  1.38601308660866 -0.30682689908991
 6  2.51783247624762  0.77517884968497 -0.50061161976198
 6  2.08525552985299 -0.51918806460646 -0.89200144514451
 6  3.51874571147115  2.76607461566157  0.04448367546755
 6  1.71838299079908 -3.35334059985999 -1.77697789878988
 6 -5.59883921912191 -2.44799670927093  1.33167310731073
 6 -3.64440650355036 -1.79780484248425  0.09086287128713
 6  2.13362762296230  2.97244367256726 -0.08926640364036
 6 -5.13599979627963 -1.51983748694870  0.31993063196320
 6  5.09142762086209  0.74436410641064 -0.44561761816182
 6 -2.71619258145815 -1.00570734233423 -0.46595701010101
 6 -1.40319825752575 -3.88228273057306 -1.70962420612061
 6 -4.46598406520652 -3.59387789348935  1.38508762336234
 6  2.17025750175018 -4.63427564726473 -0.88885174097410
 6  5.46430630693069 -0.08710477437744  0.74214232033203
 6  4.48974476067607  3.81386261756176  0.24060624442444
 6  1.27001824322432  4.07825223272327  0.27816793629363
 6 -7.04109524012401 -3.08788616841684  1.15587505360536
 6 -5.80076867936794 -0.53373810371037 -0.35816729112911
 6 -0.12581757075708  4.05537020862086  0.23000162576258
 6 -1.01405236693669  5.12748384138414  0.58402303090309
 6 -2.28763408960896  4.68462458525853  0.33968537143714
 6  3.12630547184718 -4.15989260836084  0.14354575357536
 6 -5.37180184098410  0.41065629422942 -1.38495956295630
 6  6.72010457665767 -0.86423470757076  0.74454757735774
 6 -3.63366912621262  5.41326762496250  0.40625144024402
 6 -2.07065050135014  3.23536572787279 -0.04469354455446
 6 -0.59350348784878  6.51255512351235  1.09132422222222
 6 -4.13411194809481  5.69982838773877 -0.94934571027103
 1 -0.45856342124212  0.50086579217922 -0.19354990829083
 1  2.94305832043204 -1.05964796689669 -0.99890939953995
 1  2.40668191909191 -2.81157586448645 -2.25710814551455
 1  1.51965874517452 -3.87207912551255 -2.79768213471347
 1 -5.48171997819782 -2.10275866496650  2.30911307180718
 1  5.02409271947195  0.05380009650965 -1.15555870887089
 1  5.91109307490749  1.49781409070907 -0.68123942354235
 1 -3.04191228692869  0.09834433063306 -0.62626553215322
 1  0.58666499819982  1.99933111611161 -0.59053852595259
 1 -1.35293088428843 -4.93302540674067 -1.17507831353135
 1 -2.52400603030303 -3.88230593259326 -1.75157447764776
 1 -1.14271422252225 -4.48917709210921 -2.70536413941394
 1 -2.37708146594659 -3.57257340574057  0.97402464946495
 1  1.14763056975698 -4.93409589208921 -0.36158987648765
 1  2.53879306510651 -5.43864657315731 -1.52740725462546
 1  4.43005742674267 -0.60439649074907  0.86221680788079
 1  5.67915211481148  0.50147458405841  1.70314478517852
 1  4.39614713501350  4.63992445984599 -0.38085806850685
 1  5.36443306610661  3.05126784598460  0.11558808200820
 1  4.58320773817382  4.27683319141914  1.35485678957896
 1  1.77398323032303  4.99193912351235  0.57119690659066
 1 -7.63128590019002 -2.25037103160316  1.32076677067707
 1 -7.29258490279028 -3.85583334923492  2.06835920382038
 1 -7.11828001200120 -3.68645640914091  0.35457704690469
 1 -6.91315865756576 -0.31545187648765 -0.04762283438344
 1 -4.70854569636964  1.19038323522352 -0.89318316641664
 1 -6.21480331003100  1.10873850215021 -1.53819049754976
 1 -5.16424491999200 -0.06220937473747 -2.43636484918492
 1 -3.60504038333833  6.45671832763276  0.88863656765677
 1 -4.25892356985699  4.85393452565257  0.90362250005000
 1  0.02283684898490  6.40128208810881  2.11854458695870
 1 -1.49463084638464  7.08031472697270  1.28036729312931
 1 -0.01358217061706  6.92992149264926  0.49132546674668
 1 -3.42153244904490  6.26791267436744 -1.61091890799080
 1 -5.02337416051605  6.30828356935694 -0.78118326002600
 1 -4.46156067716772  4.63152464476448 -1.35292503090309
 1  3.95314062056206 -4.98230246044604  1.77359599659966
 1  8.01826907160716 -1.75059571187119  1.70708087068707

