%nproc=4
%Mem=4GB
# td=(NStates=1) B3LYP/SVP 

TD

0 1
 8 -4.41313143394339 -4.65769585078508  1.92395775937594
 8  3.30153075117512 -4.93590814001400  1.33863179497950
 8  6.92191257265727 -1.69649719081908  1.61725194569457
 8  3.79602133493349 -3.01092021722172  0.07000985938594
 8  7.66791554355436 -0.56352773207321 -0.20418998829883
 8 -3.01710203900390  2.37858525602560 -0.14505941054105
 7 -0.29838422012201 -0.55711506130613 -0.66581521772177
 7  1.61159884258426  1.81860423922392 -0.38189985208521
 7 -3.47714465746575 -3.00164921172117  0.62627109840984
 7 -0.71751315421542  2.92110252845285 -0.09906493039304
 6  0.65119635203520 -2.49238467676768 -1.16584866796680
 6  0.87657659145915 -1.12254220532053 -0.79197175247525
 6 -0.76344066916692 -2.71925581498150 -1.11359155855586
 6 -1.34428653485348 -1.50581422332233 -0.77657912381238
 6  3.72673061436144  1.44208869416942 -0.38884510091009
 6  2.49850054305431  0.82956428822882 -0.64569612821282
 6  2.19260626492649 -0.52254840064006 -0.79031127612761
 6  3.56064990189019  2.72304031223122  0.10745997309731
 6  1.70776192869287 -3.51827709350935 -1.73421362236224
 6 -5.68058739393939 -2.57439934953495  1.29039897989799
 6 -3.72605466836684 -1.84756981898190 -0.05101131613161
 6  2.13288754895490  2.97187361556156 -0.07055453245325
 6 -5.19940613691369 -1.50363586678668  0.25698433733373
 6  5.12124060216022  0.65893556355636 -0.48657171357136
 6 -2.71321228342834 -1.06042281388139 -0.62604301870187
 6 -1.60494843254325 -3.90260476277628 -1.66908015171517
 6 -4.52517998479848 -3.64665317101710  1.39795891049105
 6  2.12273274927493 -4.59568178787879 -0.75658851465147
 6  5.38621849814982 -0.12442850675067  0.74130223632363
 6  4.59205499169917  3.80037126842684  0.46202838663866
 6  1.36662790419042  4.12036644414441  0.24233435293529
 6 -7.06362749334934 -3.23702108190819  0.82518198429843
 6 -5.91598020052005 -0.59650438033803 -0.25176665106511
 6 -0.02846783578358  4.09346401800180  0.12144076967697
 6 -1.07862882458246  5.13774486748675  0.47860248884888
 6 -2.27477280348035  4.70053617641764  0.37037844074407
 6  3.20723356465647 -4.05804242334233  0.34044544354435
 6 -5.36091075187519  0.57300252885289 -1.20191125812581
 6  6.85187775397540 -0.86187447154715  0.65491861446145
 6 -3.60894665396540  5.39247554575457  0.57394820992099
 6 -2.10760419671967  3.27414960626063  0.00770169496950
 6 -0.47576171367137  6.62353622162216  0.72265735553555
 6 -4.25076361326133  5.82635104000400 -0.74295507120712
 1 -0.62492005690569  0.22146785238524  0.01156060276028
 1  3.12088610321032 -1.09325132723272 -0.95779528812881
 1  2.46466771767177 -2.91476618351835 -2.05804823952395
 1  1.29876665596560 -3.99228114571457 -2.62996536303630
 1 -5.98043985018502 -2.19469785888589  2.30504266476648
 1  4.97963827402740 -0.10866615011501 -1.46461961496150
 1  5.91017298289829  1.40479478877888 -0.67620892049205
 1 -2.92451054675468 -0.00755625942594 -0.96983988958896
 1  0.61413774547455  1.72701388438844 -0.22583205530553
 1 -2.08756434763476 -4.78948105230523 -0.82894370007001
 1 -2.60802443214321 -3.60038774077408 -2.35038435863586
 1 -0.78370832193219 -4.61867004140414 -2.31130473347335
 1 -2.33877763556356 -3.24753090149015  0.74410165716572
 1  1.37089289598960 -4.97677015951595 -0.11772549004901
 1  2.50306949274927 -5.41992470097010 -1.29484399829983
 1  4.81598601960196 -1.01092714381438  0.71614220042004
 1  5.34698889848985  0.36714115071507  1.73252772347235
 1  4.69631715201520  4.62646311371137 -0.27726770947095
 1  5.62402902570257  3.24860757995800  0.29618614181418
 1  4.59700911831183  4.06531203930393  1.48091939583958
 1  1.81429726172617  5.15423535313531  0.29120890779078
 1 -7.83443621522152 -2.40843683818382  0.75887058105811
 1 -7.36804244854485 -3.94417218311831  1.81422379027903
 1 -7.03080126412641 -3.78163592709271 -0.23140155095510
 1 -6.95263260496050 -0.63004333563356 -0.25445351745175
 1 -5.05965080688069  1.31792598949895 -0.71846569466947
 1 -6.30246207590759  0.73546117441744 -1.75385206370637
 1 -4.51341983748375 -0.13865701950195 -1.78838005070507
 1 -3.66172605190519  6.35037769356936  1.19538724272427
 1 -4.30936861436144  4.83790292249225  1.15842798059806
 1  0.23179774507451  6.69718167806781  1.61553428592859
 1 -1.36661804510451  7.40853754925493  1.05158441484148
 1  0.08637782538254  6.89783828432843 -0.10940460626063
 1 -3.71263155895590  6.70183606670667 -1.30515833193319
 1 -5.18179000210021  6.09639238023802 -0.71756689838984
 1 -4.33877839893989  5.05596708900890 -1.31490122852285
 1  4.02539784628463 -4.44131836203620  1.75574421142114
 1  7.86657390209021 -1.96120677297730  1.87320748334833

