%nproc=4
%Mem=4GB
# td=(NStates=1) B3LYP/SVP 

TD

0 1
 8 -4.43872399319932 -4.77756783798380  1.82051741534153
 8  2.87563816191619 -4.92081663086309  1.31660959275928
 8  7.17869825122512 -1.44154169526953  1.89984020452045
 8  3.80833256605661 -3.22148127332733  0.13837669606961
 8  7.64598335033503 -0.63633501280128 -0.14508407770777
 8 -2.99516984578458  2.49668706620662 -0.15985088968897
 7 -0.33234761646165 -0.54120347014701 -0.56343497969797
 7  1.52095977867787  1.80430280908091 -0.40674233633363
 7 -3.35524246724672 -3.08722776957696  0.75811428272827
 7 -0.69330073297330  2.98365878407841 -0.11607663156316
 6  0.62492372477248 -2.38813425172517 -1.36117820092009
 6  0.89310824462446 -1.13248319941994 -0.94359691499150
 6 -0.78677300240024 -2.58801269066907 -1.28032823222322
 6 -1.31345345154515 -1.40246388828883 -0.80301176707671
 6  3.79568751005101  1.41912639793979 -0.20103632003200
 6  2.51079177217722  0.82804413621362 -0.56362792139214
 6  2.11955896019602 -0.50034618041804 -0.82328457345735
 6  3.57524136103610  2.69614762296230  0.02291151825183
 6  1.53888504100410 -3.43787905370537 -1.90004020502050
 6 -5.58080741594159 -2.75360727032703  1.23746368636864
 6 -3.62782484538454 -1.85931099309931  0.14370815581558
 6  2.18145240544054  2.95347177537754 -0.05192266926693
 6 -5.07554375067507 -1.59861536473647  0.33123176207621
 6  5.18147662576258  0.67273694369437 -0.38559161556156
 6 -2.68873983618362 -1.01888866046605 -0.40712112651265
 6 -1.60559849754976 -3.77804230653065 -1.83914715841584
 6 -4.45061252805281 -3.71792029772977  1.35878499309931
 6  1.88555903190319 -4.49267148684868 -0.82030488628863
 6  5.40497037333733 -0.23665972987299  0.72734084018402
 6  4.59202498869887  3.78369960126013  0.31352353615362
 6  1.38230947234723  4.18220262776278  0.13198331783178
 6 -6.91653278387839 -3.42448982878288  1.07755722182218
 6 -5.82654125662566 -0.63667839773977 -0.25563703810381
 6 -0.04961995099510  4.13008768036804  0.13928255385539
 6 -0.95270623232323  5.31320241324132  0.44408903750375
 6 -2.21967729392939  4.83745986878688  0.37340874377438
 6  2.89378221952195 -4.03534015311531  0.29246064506451
 6 -5.52728738953895  0.38193342194219 -1.25263633063306
 6  6.85624819101910 -0.74333261736174  0.76381950455045
 6 -3.55198095739574  5.43175947414741  0.57876869196920
 6 -2.07637107340734  3.25887807910791  0.00075099989999
 6 -0.42025616311631  6.61059492749275  0.73643873367337
 6 -4.23460199709971  5.62573097799780 -0.85047582328233
 1 -0.52513007790779  0.51239694529453 -0.28672922622262
 1  2.89574358895890 -1.24352635473547 -1.08687819641964
 1  2.47587883878388 -2.86629133603360 -2.37131956665667
 1  1.11424820412041 -3.81710362796280 -2.89455182168217
 1 -5.61114292049205 -2.33083147224722  2.30811297179718
 1  5.19449976017602  0.19591430793079 -1.39906305930593
 1  5.92303426902690  1.45491980128013 -0.39221052065207
 1 -2.93330142584258 -0.10914641844184 -0.69570247584758
 1  0.60878721042104  1.88525970897090 -0.57670714281428
 1 -1.89358494969497 -4.46900900510051 -0.91648245394539
 1 -2.49842347204720 -3.32923062506251 -2.59994931513151
 1 -1.18797874897490 -4.33003117751775 -2.52547615061506
 1 -2.22754651245125 -3.32780892929293  1.10133738073807
 1  0.88708451515152 -4.93265574807481 -0.35854957245725
 1  2.31712089788979 -5.40539324782478 -1.32275678957896
 1  4.87489191019102 -1.20268631973197  0.54310489668967
 1  5.09207340694069  0.27884232083208  1.72219669036904
 1  4.36731425172517  4.60959142654265 -0.33633361606161
 1  5.64027064986499  3.43187590679068  0.09983650685069
 1  4.38674809220922  4.03113862196220  1.29168047194719
 1  1.78731456345635  5.09688961856186  0.45801558845885
 1 -7.70460323192319 -2.70128612311231  1.11355604960496
 1 -7.14653029732973 -4.27811557745775  1.64446681458146
 1 -6.96702488648865 -3.66197396089609  0.08015960516052
 1 -7.05844318601860 -0.61104143544354 -0.08810688278828
 1 -5.20387522932293  1.27019121602160 -0.75354920302030
 1 -6.33950578027803  0.64868249654965 -1.91999867836784
 1 -4.63326182168217  0.07125397159716 -1.90852206490649
 1 -3.32450232953295  6.49581223702370  1.18625632963296
 1 -4.18102578007801  4.70456958915892  1.17431956975698
 1  0.70019458475848  6.67579953985399  1.29171190369037
 1 -1.21757314061406  7.31148784428443  1.21851110751075
 1 -0.11364217661766  7.25768426892689 -0.19023268906891
 1 -3.51669196499650  6.43892977607761 -1.42520033613361
 1 -5.31061288438844  5.94147688868887 -0.53585872757276
 1 -4.20708522962296  4.86164765706571 -1.41731146954695
 1  3.42954826132613 -4.74546877707771  1.91213985098510
 1  8.22695994069407 -1.60678133043304  1.93273343594359

