%nproc=4
%Mem=4GB
# td=(NStates=1) B3LYP/SVP 

TD

0 1
 8 -4.60570069086909 -4.75456553775378  1.79593495709571
 8  3.16908750685069 -4.82445699489949  1.31666959875988
 8  7.22109249064906 -1.59989753085309  1.57501772227223
 8  3.79827155995600 -3.10721984718472  0.09732259065907
 8  7.73884263626363 -0.47999937923792 -0.20438000730073
 8 -2.94458478727873  2.30766816431643 -0.06296120072007
 7 -0.28344272597260 -0.55322467226723 -0.54971360756076
 7  1.53320100280028  1.77534991379138 -0.35432709480948
 7 -3.51862880588059 -3.05564461126113  0.69096756805681
 7 -0.71265266816682  2.90710112831283 -0.12938796269627
 6  0.61397262966297 -2.51068650695070 -1.20940302340234
 6  0.96344527832783 -1.14929488058806 -0.90636319161916
 6 -0.80576490159016 -2.71516540594059 -1.13316351575158
 6 -1.39697180338034 -1.49228287018702 -0.72442390829083
 6  3.74990293159316  1.36447093239324 -0.39681589798980
 6  2.54899559255926  0.79333066486649 -0.64001556015602
 6  2.22862986728673 -0.56118226402640 -0.82777502250225
 6  3.54505834273427  2.74166217441744  0.03664289138914
 6  1.61997314981498 -3.52749801560156 -1.81219142014201
 6 -5.66351568676868 -2.58514042364236  1.21708164816482
 6 -3.68513057595760 -1.91676673867387  0.09743352835284
 6  2.11801606180618  2.90623705190519  0.01251377437744
 6 -5.11055725202520 -1.51687719091909  0.27047568646865
 6  5.11566004410441  0.79239890989099 -0.42192524892489
 6 -2.75875683788379 -1.07490426202620 -0.49686010041004
 6 -1.55875381308131 -3.85119962226223 -1.70271351505150
 6 -4.61521898869887 -3.62331083678368  1.27749686428643
 6  1.94509498549855 -4.53901612131213 -0.67958081388139
 6  5.45415529182918 -0.06919298319832  0.77244535063506
 6  4.69013479967997  3.80208143944394  0.36907909170917
 6  1.29425066646665  4.06769117661766  0.27626774627463
 6 -7.18082921352135 -2.95387276707671  0.98021748784878
 6 -5.81470007250725 -0.50076480638064 -0.37817929232923
 6 -0.06680166916692  4.03561823342334  0.15432405800580
 6 -0.93706466816682  5.13088418141814  0.42532716131613
 6 -2.24390971717172  4.75267138993899  0.32413381628163
 6  3.00855369666967 -3.99301592069207  0.27851925092509
 6 -5.27746240704070  0.43517874647465 -1.33577464446445
 6  6.87894046024603 -0.68396668076808  0.67382050465046
 6 -3.58006376567657  5.31253755195520  0.59610042514251
 6 -2.09396283258326  3.19671186248625  0.02714363916392
 6 -0.53080721822182  6.54490835883588  0.80175526532653
 6 -4.32737127402740  5.67917632253225 -0.75960673637364
 1 -0.37868543344335  0.15692139773977  0.30237968466847
 1  3.16363037763776 -1.03994599669967 -0.79515902450245
 1  2.65884713561356 -3.15298000490049 -2.10173260796080
 1  1.33503028232823 -4.12088400600060 -2.58968133463346
 1 -5.61803360956096 -2.12356074517452  2.36659882038204
 1  5.36139644984498  0.32816753325333 -1.42513566656666
 1  6.04138610421042  1.49891420072007 -0.85041634123412
 1 -2.87757585328533  0.05005950215021 -0.74787769336934
 1  0.46952328402840  1.90242142514251 -0.57083655575558
 1 -1.63781937313731 -4.76505861006101 -1.02471327702770
 1 -2.52463609330933 -3.70721842384238 -2.15885520572057
 1 -0.87949790089009 -4.05951412581258 -2.58874247724772
 1 -2.63071682948295 -3.80831698009801  0.80526777377738
 1  1.04270007670767 -4.77235971847185  0.08665494799480
 1  2.52701188698870 -5.47479018751875 -1.24511902580258
 1  4.87697211821182 -0.87208325942594  1.10408099429943
 1  5.46376057565757  0.62857729432943  1.59134360506051
 1  4.27800532083208  4.99842030943094  0.07820783808381
 1  5.55972259505951  3.54936765596560 -0.14707818461846
 1  4.88182760016002  3.91261676977698  1.65154645854585
 1  1.89762559455946  5.00543047264726  0.55228501540154
 1 -8.00882365396540 -2.26407240174017  1.14018871287129
 1 -7.59820546484648 -3.55089285518552  1.68312067996800
 1 -7.04724290829083 -3.63720148364837 -0.02160057085709
 1 -6.84066140784078 -0.21877220852085  0.15434736263626
 1 -4.52104694649465  1.38946314321432 -0.98545239333933
 1 -6.13902573227323  0.82944057235724 -1.85349202770277
 1 -4.48967746324632 -0.02712586638664 -2.06055726842684
 1 -3.64661454075408  6.14663731953195  1.20683838783878
 1 -4.29181685918592  4.65473460566057  1.21910404820482
 1  0.05613017831783  6.42929488938894  1.75785851835184
 1 -1.38373975727573  7.20050674617462  0.83245250165016
 1  0.08001718931893  7.00305880638064  0.03151948614861
 1 -3.65109540534053  6.31581746484648 -1.49044686078608
 1 -5.34342616571657  5.93976671767177 -0.66726186788679
 1 -4.32294681578158  4.78308980128013 -1.66072581098110
 1  3.90622592909291 -4.38312254245424  1.72621125812581
 1  8.19883712841284 -1.95116576887689  1.44019418201820

