%nproc=4
%Mem=4GB
# td=(NStates=1) B3LYP/SVP 

TD

0 1
 8 -4.40495061586159 -4.81091117231723  1.85572093569357
 8  3.08754935303530 -4.84649919911991  1.24407233903390
 8  7.11711209260926 -1.35666320742074  2.19590981148115
 8  3.66596832963296 -3.02724184938494  0.03131598999900
 8  7.42478123012301 -0.79603098239824  0.03602403310331
 8 -2.94291462026203  2.53302069956996 -0.22016692129213
 7 -0.33876825852585 -0.66244559435944 -0.71923055925593
 7  1.52577025972597  1.86814919371937 -0.51271293339334
 7 -3.42043898689869 -3.15285433223322  0.63757222852285
 7 -0.69394079697970  2.96599701790179 -0.03945896979698
 6  0.60842207460746 -2.44564000230023 -1.44819690279028
 6  0.86566550035004 -1.19452940404040 -0.95321787708771
 6 -0.78404272937294 -2.73885777517752 -1.31092129152915
 6 -1.32650475667567 -1.48258190009001 -0.80112157805781
 6  3.81516945824582  1.38230271557156 -0.44270048644864
 6  2.46578727172717  0.85714704650465 -0.75260681928193
 6  2.18446545084508 -0.43708985478548 -1.01024326932693
 6  3.61758559545955  2.71228923712371 -0.08472924582458
 6  1.59273042554255 -3.44092935873587 -1.99297949894990
 6 -5.62356169136914 -2.71242315191519  1.33290323032303
 6 -3.64780684358436 -1.90354541654165  0.08342212721272
 6  2.15238949914992  2.98005443364336 -0.08361583858386
 6 -5.05660185648565 -1.63759926312631  0.38735737463746
 6  5.11761023912391  0.66369603960396 -0.40029308570857
 6 -2.75520648284828 -1.16170294189419 -0.53543395779578
 6 -1.55758369606961 -3.92670717301730 -1.76875011871187
 6 -4.44699216601660 -3.76118462416242  1.35499461406141
 6  1.96228670467047 -4.53938615831583 -0.86193904970497
 6  5.30900077637764 -0.10039610351035  0.90828893499350
 6  4.65976176237624  3.73817504880488  0.27706989078908
 6  1.42547378877888  4.18928333583358  0.23326344584458
 6 -6.92330346094609 -3.31852923272327  1.11050051615162
 6 -5.82733133563356 -0.65540026992699 -0.10890236463646
 6 -0.03652864186419  4.10377504910491  0.07660628622862
 6 -0.86092705440544  5.26907800080008  0.44355898449845
 6 -2.15847117331733  4.85514163696370  0.24553595649565
 6  2.87241008230823 -3.97606422552255  0.21768316731673
 6 -5.48719338013801  0.44567979657966 -1.12293336033603
 6  6.73115568176818 -0.79481776587659  0.94360748334833
 6 -3.47982374167417  5.46938323652365  0.56724753985399
 6 -2.02583601990199  3.32843503480348  0.08420934573457
 6 -0.35352949044904  6.54765863386339  0.75694078387839
 6 -4.34923346024602  5.87405581048105 -0.66024680038004
 1 -0.67482504740474  0.43217892349235 -0.38241879517952
 1  3.01784579917992 -0.98776077817782 -0.98685819441944
 1  2.46547779867987 -2.92444715161516 -2.24945738043804
 1  1.17102388168817 -4.11264318191819 -2.80603296979698
 1 -5.55723752995300 -2.41979036813681  2.42776493699370
 1  5.33958426862686  0.03754847134713 -1.32352550555055
 1  5.96264823042304  1.45463977327733 -0.53219451905191
 1 -2.96324442014201 -0.06126162996300 -0.53037594319432
 1  0.56704303600360  1.82939412241224 -0.71096056815682
 1 -1.43698929012901 -5.00169227342734 -0.97399820552055
 1 -2.63480711041104 -3.46412411441144 -1.99392871307131
 1 -1.06250620172017 -4.45698387278728 -2.60918452145215
 1 -2.41716547434744 -3.54837098549855  0.59631687868787
 1  1.14122992969297 -4.68555103760376 -0.29492320982098
 1  2.53826301210121 -5.52336504500450 -1.14149866376638
 1  4.71621604260426 -0.94682073317332  0.97999858605861
 1  5.02623682328233  0.48962339893989  1.85959042974297
 1  4.33108062836284  4.45183565096510 -0.46703668636864
 1  5.65818244104411  3.38233095229523  0.06592311551155
 1  4.63961337873787  4.06273178127813  1.20509181308131
 1  1.90787661966197  5.15043497309731  0.20947073397340
 1 -7.81839461106111 -2.74603059755976  1.43772846684668
 1 -6.90755639993999 -4.24607237313731  1.75204757265727
 1 -7.17046523052305 -3.71284904840484 -0.07901631243124
 1 -6.77675501720172 -0.53414374567457  0.22592452035204
 1 -4.94293913571357  1.36658085498550 -0.60950479857986
 1 -6.36492832253225  0.83583121142114 -1.68598527702770
 1 -4.58039653515352  0.03899074527453 -1.82120333303330
 1 -3.38603848314831  6.36948960476048  1.17685538953895
 1 -4.06356403390339  4.81367049924993  1.05074721252125
 1  0.16242080738074  6.43161512141214  1.73723645614561
 1 -1.03323470677068  7.41580827632763  0.87153641004100
 1  0.45564475207521  6.70158865936594 -0.01699536533653
 1 -3.80433072887289  6.38311419451945 -1.41827964406441
 1 -5.19887171027103  6.49802254325432 -0.24220936263626
 1 -4.82477699879988  4.96778827112711 -0.97345708410841
 1  3.77667297379738 -4.28491272147215  1.74852348934894
 1  8.11919916461646 -1.62864351665166  2.08584874747475

