%nproc=4
%Mem=4GB
# td=(NStates=1) B3LYP/SVP 

TD

0 1
 8 -4.42532265306531 -4.61878195939594  1.85562092569257
 8  2.75399599769977 -4.67898244744474  1.49298723052305
 8  7.01461184258426 -1.54128166926693  1.81310153065307
 8  3.65976770957096 -2.97276640184018  0.14585744414441
 8  7.40678943094309 -0.78014939423942 -0.25805537483748
 8 -2.92310263906391  2.43824122162216 -0.16550145474547
 7 -0.25294967666767 -0.51192054185419 -0.74385302150215
 7  1.54967264996500  1.80160253905391 -0.49257091919192
 7 -3.42040898389839 -3.08354740154015  0.63648211951195
 7 -0.78848025092509  2.95739615781578 -0.15332035593559
 6  0.67002823522352 -2.44553999229923 -1.31041312441244
 6  0.96269520332033 -1.13161311241124 -0.95304786008601
 6 -0.73543786888689 -2.66433032243224 -1.28359855925593
 6 -1.29018112431243 -1.45382902480248 -0.83315478137814
 6  3.72770071137114  1.44204869016902 -0.43034925132513
 6  2.53051374437444  0.86088742054205 -0.59168072667267
 6  2.19640664496450 -0.47830397619762 -0.93732597759776
 6  3.60438427532753  2.81629963816382 -0.05976674957496
 6  1.71558271077108 -3.50319558535854 -1.81509171017102
 6 -5.55391472667267 -2.60666257585759  1.34529446944694
 6 -3.59643170607061 -1.82257731973197  0.09556334133413
 6  2.15286954715472  2.96355278347835 -0.16058353535354
 6 -5.01480767706771 -1.44258976217622  0.35793443234323
 6  5.12047052515252  0.66602627262726 -0.47118017441744
 6 -2.61736269846985 -1.02108888048805 -0.54304471887189
 6 -1.37387532523252 -3.91987648994900 -1.81410465416542
 6 -4.42572003880388 -3.64952345804580  1.29470858545855
 6  2.00493096909691 -4.52540476017602 -0.69746260206021
 6  5.44188406470647 -0.12653871777178  0.83495160126013
 6  4.59790557675768  3.82414364566457  0.36577876167617
 6  1.29849109050905  4.04043845134513  0.25245536503650
 6 -6.94399553015301 -3.05756313611361  0.98370783688369
 6 -5.80873947644764 -0.53744847474747 -0.26606808120812
 6  0.02371738273827  4.00682535413541  0.21515014061406
 6 -0.98761972367237  5.11887298029803  0.54746937553755
 6 -2.21069639583958  4.67221334413441  0.49698110101010
 6  2.89729257055706 -3.97261388048805  0.27989938893889
 6 -5.25870053085309  0.60927615621562 -1.22687375437544
 6  6.66804937113711 -0.82865114921492  0.75857898049805
 6 -3.61132689198920  5.17863416161616  0.66948776387639
 6 -2.06089952625263  3.16060825212521 -0.01676075127513
 6 -0.55939007650765  6.54168803680368  0.80558564836484
 6 -4.28026656355636  5.36865527042704 -0.68132890859086
 1 -0.29661722662266  0.33545925152515 -0.03084363766377
 1  3.00445446004600 -1.11239324142414 -1.05458496709671
 1  2.57928917981798 -3.10485519241924 -2.14337677237724
 1  1.41711849114911 -4.03212513011301 -2.57413978047805
 1 -5.77529933613361 -2.31770015911591  2.43724588508851
 1  5.04537484768477  0.12733745024502 -1.24178733173317
 1  5.89664162976298  1.36084039333933 -0.47402870247025
 1 -2.70276837253725  0.01147564376438 -0.64081698729873
 1  0.49383571527153  1.72724390739074 -0.80407988008801
 1 -1.44946053725373 -4.97407951215122 -1.20079088478848
 1 -2.37176080578058 -3.78398610061006 -2.16846616681668
 1 -0.73603355445545 -4.28886706110611 -2.82785638863886
 1 -2.51495525332533 -3.76136228462846  0.39668691569157
 1  1.16800260696070 -5.05348783128313 -0.35683940144014
 1  2.54991417721772 -5.37976068456846 -1.28546306020602
 1  4.54265868686869 -0.91968801990199  0.86785737193719
 1  5.11802600220022  0.46407084368437  1.75600007070707
 1  4.46185370567057  4.66485695309531 -0.30257023972397
 1  5.55260188298830  3.56391911111111 -0.10289376617662
 1  4.64679409680968  4.09666517461746  1.43175447934793
 1  1.69320515251525  5.10392032163216  0.70377016391639
 1 -7.82096486808681 -2.37779377387739  1.11621631563156
 1 -7.13840948524853 -3.89919768566857  1.77691005890589
 1 -7.07352553655365 -3.51338910241024  0.09698128732873
 1 -6.81372871457146 -0.49244957625763  0.10506243414341
 1 -4.99713455525553  1.49451364826483 -0.44044789288929
 1 -6.22536436613661  0.95473310161016 -1.64068074657466
 1 -4.44932342784278  0.25948279447945 -1.83698491119112
 1 -3.58136801610161  5.88755141094109  1.32248995299530
 1 -4.05863354085409  4.19841897409741  1.23647578537854
 1  0.43378794409441  6.44837679757976  1.43980671317132
 1 -1.44297568086809  7.20645734123412  1.21701095749575
 1 -0.09852066446645  6.88546704720472 -0.33046671247125
 1 -3.78418871467147  6.07408329142914 -1.35027284338434
 1 -5.46117794089409  5.61540428142814 -0.49695483718372
 1 -4.24032855395540  4.41288278057806 -1.27482722112211
 1  3.33028833533353 -4.35030926112611  2.21268990599060
 1  7.77456470117012 -1.84271492379238  1.53196335893589

