%nproc=4
%Mem=4GB
# td=(NStates=1) B3LYP/SVP 

TD

0 1
 8 -4.38849897069707 -4.72072215341534  1.85607097069707
 8  2.80678127622762 -4.90609515871587  1.32467039883988
 8  7.25376575797580 -1.51842938403840  1.76129635013501
 8  3.75265699849985 -3.32298142334233  0.13709656805681
 8  7.67057580958096 -0.50623200250025 -0.19894946424642
 8 -2.92710303910391  2.49142654015402 -0.24112901750175
 7 -0.35668004970497 -0.56121547134713 -0.63798243444344
 7  1.56115379807981  1.84060643944394 -0.34443610571057
 7 -3.42671961496150 -3.14918396519652  0.66670514181418
 7 -0.65440684358436  2.99642006020602 -0.13262828672867
 6  0.60067129952995 -2.42299773807381 -1.27632971607161
 6  0.87630656445645 -1.14584453555356 -0.93638619391939
 6 -0.77185151025103 -2.63986787618762 -1.34215441484148
 6 -1.41654376057606 -1.49797343924392 -0.78597006290629
 6  3.78557649894990  1.39236372167217 -0.25486170257026
 6  2.53117381038104  0.80579191099110 -0.50998255685569
 6  2.23572057635764 -0.58352449824982 -0.84808705370537
 6  3.58901273817382  2.67437544574457  0.11917114421442
 6  1.66068722122212 -3.34841010681068 -1.92865306630663
 6 -5.54224355955596 -2.63722563216322  1.34116405640564
 6 -3.60107217011701 -1.87260232223222  0.12486627162716
 6  2.13860812101210  2.95924235243524  0.07689021202120
 6 -5.04813100940094 -1.50337584078408  0.40442908180818
 6  5.08513699179918  0.66869653965397 -0.41858491489149
 6 -2.74645560776078 -1.04673144474447 -0.42198261266127
 6 -1.52967090479048 -3.91915641794179 -1.72035527922792
 6 -4.40546801360136 -3.55236374207421  1.48188730333033
 6  1.94707518351835 -4.50037225692569 -0.90258311411141
 6  5.45445532183218 -0.31480754465447  0.75118322442244
 6  4.53577936413641  3.83913514481448  0.38602078587859
 6  1.44393563496350  4.22766717421742  0.27009712921292
 6 -6.94195532613261 -3.19690707050705  0.96305577167717
 6 -5.92211081358136 -0.55937066696670 -0.13615508990899
 6 -0.01622661166117  4.15568023962396  0.20645927152715
 6 -0.98234919661966  5.21987308030803  0.51022565116512
 6 -2.22968829502950  4.73280940374037  0.32148355125513
 6  2.92956579787979 -4.16131275037504  0.22241364036404
 6 -5.49946460726073  0.34460968956896 -1.27357842484248
 6  6.88231079727973 -0.75364364846485  0.71610473307331
 6 -3.56471223052305  5.38622492069207  0.34902571767177
 6 -2.00042347864786  3.33099529082908 -0.15210428562856
 6 -0.73966810431043  6.64756862486249  0.87245233503350
 6 -4.20601913881388  5.69663806870687 -0.87507828352835
 1 -0.33988155305531  0.23997970357036 -0.17430798409841
 1  3.06782079667967 -1.22568457055706 -0.81979148774877
 1  2.42893414431443 -2.73085779267927 -2.21255369006901
 1  1.41331811111111 -3.55096701430143 -2.80274264076408
 1 -5.86341814801480 -2.17561595069507  2.30564272477248
 1  4.93855416561656 -0.14217950145015 -1.28120127312731
 1  5.91899386498650  1.32022633193319 -0.70808210781078
 1 -3.13267136283628 -0.05154065786579 -0.83032593819382
 1  0.45681201290129  1.89463064606461 -0.49506897899790
 1 -1.38865445664566 -4.67065917011701 -0.83468427412741
 1 -2.62211584128413 -3.68081578357836 -1.57244656485649
 1 -1.17664761586159 -4.40006818121812 -2.66249985298530
 1 -2.56995075287529 -3.73569971837184  0.40054730173017
 1  0.97682348904890 -4.91519400190019 -0.59075279277928
 1  2.49620880668067 -5.39184189268927 -1.30166468036804
 1  4.90684510551055 -1.31206725782578  0.55890647684768
 1  5.10775497509751  0.04889932653265  1.89002347304730
 1  4.49679720002000  4.75425589298930 -0.20369035173517
 1  5.46013263606361  3.42636535573557  0.38500502370237
 1  4.30908032543254  4.02965847394739  1.22508381228123
 1  1.75835166716672  5.18609853945394  0.81931171807181
 1 -7.76026879847985 -2.50807680218022  1.07405209920992
 1 -7.22189783408341 -3.94991275717572  1.80040240814081
 1 -7.07155533953395 -3.65242300580058  0.05296688588859
 1 -6.79009635133513 -0.80645097639764  0.08879080698070
 1 -5.17588243004300  1.38576277317732 -0.96697054515452
 1 -6.19041087078708  0.43814144244424 -1.90401708020802
 1 -4.51933042854285 -0.04386754055406 -1.87677889058906
 1 -3.61711159045905  6.34181683748375  1.10633833783378
 1 -4.14643232073207  4.45434456665667  0.88495063286329
 1  0.18536310161016  6.76960892079208  1.67747047954796
 1 -1.68291967526753  7.11786848234823  1.38048730513051
 1 -0.43353416581658  7.07982648314831  0.06390272447245
 1 -3.35335563136314  6.35408129122912 -1.36314413051305
 1 -5.20217204030403  6.37929067006701 -0.78374351605161
 1 -4.63578809990999  4.77191868416842 -1.59225896429643
 1  3.55073037953795 -4.76375060526053  1.98680731773177
 1  8.15768301300130 -1.67460811311131  1.46135629822982

