%nproc=4
%Mem=4GB
# td=(NStates=1) B3LYP/SVP 

TD

0 1
 8 -4.51036115691569 -4.64186426762676  2.02429779337934
 8  2.93033363146315 -4.73679822902290  1.31866979877988
 8  6.83227360876088 -1.48039558065807  1.98040826132613
 8  3.74487622042204 -3.13464258945895 -0.05638277987799
 8  7.54474322632263 -0.76433781308131 -0.11991156045605
 8 -2.97098742754275  2.40181757925793 -0.24512941754175
 7 -0.33027740944094 -0.53011236103610 -0.67554619081908
 7  1.60133781648165  1.83422580138014 -0.47325898799880
 7 -3.36263320632063 -3.18331737853785  0.68982745404540
 7 -0.72293369626963  2.91983240144014 -0.24380940484048
 6  0.65890712311231 -2.48431386968697 -1.34774685778578
 6  0.98771770557056 -1.05512546364636 -1.01494404970497
 6 -0.73452777787779 -2.55150904030403 -1.27320752015202
 6 -1.29727183338334 -1.37686132803280 -0.84267573347335
 6  3.85416335763576  1.45285977127713 -0.36374259065907
 6  2.57669836283628  0.77703903570357 -0.59398095669567
 6  2.19277628192819 -0.46929307510751 -1.04158640364036
 6  3.61288512541254  2.79185719391939  0.04047327442744
 6  1.56844799729973 -3.49672493829383 -1.88672887388739
 6 -5.45630496569657 -2.57188909850985  1.41504144414441
 6 -3.65904796769677 -1.88831389338934  0.08681246624662
 6  2.17740200040004  2.98541496969697 -0.18848632563256
 6 -5.01228742504250 -1.51199670287029  0.29605824472447
 6  5.19471794989499  0.79173884388439 -0.43822687908791
 6 -2.69593055525553 -1.10448722032203 -0.54456487088709
 6 -1.50172811051105 -3.89570407270727 -1.74711795549555
 6 -4.44310177697770 -3.54878338403840  1.40312942754275
 6  1.98488896489649 -4.57682990269027 -0.92766562236224
 6  5.39208908520852 -0.07262332623262  0.83791189728973
 6  4.64696048224822  3.72030326162616  0.65517770157016
 6  1.34950619201920  4.12363677117712  0.20598071757176
 6 -6.83895502610261 -3.09881726152615  1.20139960606061
 6 -5.77698630113011 -0.56867159705971 -0.21930340474047
 6 -0.07820280928093  4.07428209980998  0.17250587618762
 6 -0.99350031173117  5.13970506350635  0.46779140774077
 6 -2.27420274647465  4.65133125592559  0.41630303320332
 6  2.92665550685069 -3.97729434853485  0.14694609360936
 6 -5.48882354315432  0.39967519611961 -1.34184525152515
 6  6.72903546974698 -0.81244952905291  0.75070819341934
 6 -3.61625738503850  5.29192549074908  0.50837165226523
 6 -2.04938837513751  3.19764195549555 -0.03081215641564
 6 -0.48474261176118  6.57933180118012  0.88235332513251
 6 -4.27879641654165  5.50680908580858 -0.79829060476048
 1 -0.54611217611761  0.27314301990199 -0.15543609690969
 1  2.87850186478648 -1.19651165326533 -0.98369787838784
 1  2.51730298119812 -3.01819652655266 -2.45766820152015
 1  0.77926470577058 -3.95833775137514 -2.71051341784178
 1 -5.61816362256226 -2.18145653475348  2.41863402390239
 1  5.45937624782478 -0.02549783328333 -1.26185933893389
 1  5.95788775437544  1.64270858015802 -0.44927622722272
 1 -3.04816291199120 -0.04667017081708 -0.65071797739774
 1  0.55928225992599  1.87609879287929 -0.45573504560456
 1 -1.38493408460846 -4.83605570977098 -1.04602540824082
 1 -2.62105573527353 -3.60499820182018 -1.96322564276428
 1 -1.07625757685769 -4.13645181958196 -2.72665626862686
 1 -2.39679343714371 -3.76501264966497  0.69390663766377
 1  1.13920972767277 -5.07522000450045 -0.28213193069307
 1  2.40018920472047 -5.36169887838784 -1.38001251515151
 1  4.69710413141314 -0.91385743684368  0.92217280348035
 1  5.16740093969397  0.44215865246525  1.79072354305431
 1  4.84297181748175  4.76604707210721  0.33450346764677
 1  5.81219784258426  3.27932065126513  0.65341186438644
 1  4.43591300870087  3.77495300340034  1.78578988288829
 1  1.99323515551555  5.04869479907991  0.84546433333333
 1 -7.57966073767377 -2.49958595309531  1.47782247624762
 1 -6.86361200550055 -3.88841660756076  1.86645901380138
 1 -7.25536372037204 -3.47813557705771  0.33395498469847
 1 -6.79390673237324 -0.51022135343534  0.25229715761576
 1 -4.95340018181818  1.32719691659166 -1.07772162026203
 1 -6.34685651535153  0.54854248254825 -1.78155483398340
 1 -4.74397289278928 -0.23597675147515 -1.89134034673467
 1 -3.29422930223022  6.16012866866687  1.02829053305331
 1 -4.18569624712471  4.73513264546455  1.33864600240024
 1  0.25605017031703  6.51987394729473  1.71903463596360
 1 -1.40201158445845  7.16549324482448  1.46179543594359
 1 -0.09245005740574  7.07286578707871 -0.03626729252925
 1 -3.69211950775078  6.40242612571257 -1.29731754785479
 1 -5.20297212031203  5.94841758275828 -0.66010115181518
 1 -4.38097261836184  4.49463095539554 -1.51810154855486
 1  3.81308661516152 -4.57987221742174  1.84361299829983
 1  7.60280752545254 -2.19064971727173  1.78062822542254

