%nproc=4
%Mem=4GB
# td=(NStates=1) B3LYP/SVP 

TD

0 1
 8 -4.51419153995400 -4.72922300350035  1.88878424202420
 8  3.00613121122112 -4.72134668386839  1.49176710851085
 8  6.98710909230923 -1.81209875097510  1.76198641914191
 8  3.92158389118912 -3.10318944414441  0.12432529092909
 8  7.78379713171317 -0.49295067436744  0.06297672837284
 8 -3.06844717351735  2.46839423692369 -0.31611651625162
 7 -0.29736411811181 -0.55894524432443 -0.56710534673467
 7  1.60297798049805  1.85374775357536 -0.57918958105811
 7 -3.42764970797080 -3.09265831263126  0.65306377767777
 7 -0.72322372527253  2.94983540174017 -0.26479150305031
 6  0.56049728212821 -2.44060949924992 -1.35902798589859
 6  0.88704763856386 -1.11440139123912 -0.94293684898490
 6 -0.77775210031003 -2.69002289168917 -1.25825602500250
 6 -1.41923402960296 -1.41850549244925 -0.82995446134613
 6  3.79612755405541  1.35246973227323 -0.43639985638564
 6  2.53983467646765  0.83099443124312 -0.69480103870387
 6  2.14635163946395 -0.44725087088709 -0.91804404940494
 6  3.54556839373937  2.69569757795780 -0.08572934583458
 6  1.64143529602960 -3.48176344214421 -1.77210741174117
 6 -5.63182251745175 -2.64503641324132  1.24625456545655
 6 -3.68199026192619 -1.78151321332133  0.15218900390039
 6  2.15223948414841  2.98857528572857 -0.13957143414341
 6 -5.06783297959796 -1.55656115931593  0.28261690059006
 6  5.10440891899190  0.72368203820382 -0.46278933533353
 6 -2.68520948314831 -1.04780155175518 -0.44923533793379
 6 -1.49186712441244 -3.89255375767577 -1.72286553025303
 6 -4.50251771857186 -3.64314281998200  1.29058817341734
 6  2.04532500850085 -4.45550777047705 -0.78328118391839
 6  5.38558843514351 -0.23099916381638  0.71300940704070
 6  4.51469725592559  3.74189542084208  0.25511769556956
 6  1.38835007640764  4.14185859335934  0.10566068556856
 6 -7.04447557815782 -3.26769414921492  1.03314278037804
 6 -5.82856145864586 -0.56069079897990 -0.19685115951595
 6 -0.02997798679868  3.98111278287829  0.18136676227623
 6 -0.95514647634763  5.20263135613561  0.54349897849785
 6 -2.21001632783278  4.61342746554655  0.44517592049205
 6  3.04696753805381 -3.95099171827183  0.36332773177318
 6 -5.34335899669967  0.55550077867787 -1.22892395939594
 6  6.79645221142114 -0.80386867096710  0.75377850045005
 6 -3.62554831413141  5.22589888808881  0.65096591169117
 6 -2.08965240154015  3.24143633493349 -0.05690476567657
 6 -0.52642678017802  6.56200006800680  1.01963705350535
 6 -4.23463200010001  5.76122452735274 -0.68007878357836
 1 -0.27533509840984  0.41071677727773 -0.22084263756376
 1  2.87214122872287 -1.18251025312531 -0.97770727932793
 1  2.53446469736974 -2.85976068296830 -2.24212664736474
 1  1.08549532883288 -4.04248616621662 -2.53274564106411
 1 -5.54116592279228 -2.04050243934393  2.23469563006301
 1  5.22881319151915 -0.14504978847885 -1.28529168216822
 1  5.97018898449845  1.34193850315031 -0.83241454105411
 1 -2.83990208590859  0.05037953415342 -0.51196410201020
 1  0.58559489118912  1.96624780778078 -0.65426489858986
 1 -1.40875646684669 -4.72736484068407 -1.15483628932893
 1 -2.42428605830583 -3.69086678867887 -1.89402872307231
 1 -1.24927487858786 -4.36479465386539 -2.64388799179918
 1 -2.51917567536754 -3.54047019541954  0.73410065706571
 1  1.13712951965197 -4.84635711821182 -0.20583430093009
 1  2.52539172497250 -5.48380108860886 -1.16318083198320
 1  4.66948136913691 -1.19994604570457  0.57570815701570
 1  5.26125032463246  0.35896033263326  1.78754322502250
 1  4.72866038633863  4.64876534393439 -0.42791277397740
 1  5.57288391119112  3.41648436763676  0.20989751295130
 1  4.29780919831983  4.20387589568957  1.34039534343434
 1  1.68765459745975  5.14336426602660  0.51255104200420
 1 -7.74642741434143 -2.48022401690169  1.25319001300130
 1 -7.15289093339334 -4.06325409130913  1.95363773167317
 1 -6.97649583358336 -3.82282004550455  0.11855344454445
 1 -7.00286762846285 -0.54415474677468 -0.14608268036804
 1 -4.99281412321232  1.55138933583358 -0.77437128522852
 1 -6.16842867256726  0.90210783908391 -1.84273095159516
 1 -4.47146564206421  0.38904575077508 -2.00144135683568
 1 -3.55498537783778  6.00292294809481  1.60493819781978
 1 -4.22287996549655  4.27152628482848  0.89375151295130
 1  0.02329689498950  6.36028798869887  1.99632236473647
 1 -1.44539592289229  7.39006570207021  1.14273352975298
 1  0.25820500810081  7.00071857235724  0.42127846204620
 1 -3.64810510631063  6.74038992209221 -1.13359117521752
 1 -5.43234505760576  5.78984172517252 -0.68937407910791
 1 -4.07267178827883  4.91782327462746 -1.37799753815382
 1  3.75897120362036 -4.16969119931993  2.00547918491849
 1  8.00192743744374 -1.90411106340634  1.92467262986299

