%nproc=4
%Mem=4GB
# td=(NStates=1) B3LYP/SVP 

TD

0 1
 8 -4.50801092189219 -4.66160624182418  1.87918328192819
 8  3.07428802690269 -5.04377892709271  1.27777570937094
 8  7.24407478887889 -1.43347088818882  1.83272349284929
 8  3.69153088588859 -3.15629475467547  0.28700155855586
 8  7.58142689468947 -0.46161754105411 -0.19153872317232
 8 -2.96495682448245  2.42515991349135 -0.15090999559956
 7 -0.31380576227623 -0.55454480428043 -0.66602523872387
 7  1.48246592929293  1.83788616741674 -0.40390205230523
 7 -3.40779772277228 -3.09937898469847  0.58513698499850
 7 -0.74014541744174  3.01673209140914 -0.10652567646765
 6  0.60727195959596 -2.47810324862486 -1.43840592369237
 6  0.89331826562656 -1.15649560066007 -0.97840039533953
 6 -0.77905223032303 -2.67881177057706 -1.25489568896890
 6 -1.26144825102510 -1.46922056395640 -0.71857332323232
 6  3.72854079537954  1.34789927522752 -0.27679389578958
 6  2.44368506150615  0.75102643444344 -0.48976053465347
 6  2.23726073037304 -0.52456860266027 -0.79645189018902
 6  3.49849368626863  2.69605761396140  0.00277950505050
 6  1.66085723822382 -3.53906917271727 -1.89351955295530
 6 -5.59579891509151 -2.53664557415742  1.31595153515352
 6 -3.66424848774878 -1.88451351335134  0.13014679967997
 6  2.07774203440344  2.92893932213221 -0.12256973397340
 6 -5.02287848414841 -1.53636914011401  0.27243588248825
 6  5.05282376047605  0.61995166516652 -0.47391044744474
 6 -2.70256121832183 -1.12518929052905 -0.56201661606161
 6 -1.53863180088009 -3.91093559585959 -1.74356760046005
 6 -4.50489795659566 -3.61099960566057  1.34223333793379
 6  2.05025550155016 -4.54952717241724 -0.90884374017402
 6  5.43324320062006 -0.11833789768977  0.84331243734373
 6  4.47521330753075  3.69487071837184  0.30101228502850
 6  1.30365160656066  4.14409881738174  0.13437355685569
 6 -6.99567069766977 -3.04813219301930  1.09952941904190
 6 -5.82422102460246 -0.52344707460746 -0.29381085548555
 6 -0.02843783278328  4.11885655725573  0.19314794039404
 6 -0.98262922462246  5.21490258325833  0.52695732433243
 6 -2.17354268046805  4.76452257505751  0.35735713861386
 6  2.99687252855286 -4.13716033513351  0.25453685268527
 6 -5.47512217301730  0.33318854745475 -1.31016208320832
 6  6.93535610181018 -0.72212049614961  0.77734085668567
 6 -3.55508126742674  5.40285658385839  0.50645146024602
 6 -2.06556999329933  3.26185837713771  0.03468439323932
 6 -0.49446358385839  6.56445031303130  0.95729081888189
 6 -4.20541907880788  5.71800020492049 -0.78210898659866
 1 -0.46875444034403  0.36283198879888 -0.15371592489249
 1  3.14826884148415 -1.24713671577158 -0.86087559615962
 1  2.50520177107711 -2.79739444634463 -2.34457689238924
 1  1.11720850015002 -3.98114003160316 -2.67703006950695
 1 -5.58537034323432 -2.08853724282428  2.51770393089309
 1  5.02776308650865 -0.27361264476448 -1.35660881388139
 1  5.89863182878288  1.36040034933493 -0.69946124572457
 1 -2.98847694339434 -0.07185268906891 -0.82200510611061
 1  0.45513184488449  1.97805898889889 -0.31548102020202
 1 -1.47070266146615 -4.78387049124912 -0.90287109280928
 1 -2.60115374507451 -3.90967866986699 -1.77069638983898
 1 -1.00379033013301 -4.22616079047905 -2.70238384138414
 1 -2.35230898869887 -3.51286743514351  0.72832007900790
 1  1.20683649034903 -5.09190167266727 -0.44059777727773
 1  2.63885307110711 -5.34999770827083 -1.40719523342334
 1  4.91370579157916 -1.20735678677868  0.71520210641064
 1  5.19122332193219  0.67467190379038  1.59104357505751
 1  4.50909843014301  4.59634010141014 -0.35475545824583
 1  5.48419504230423  3.30640335953595  0.13354987818782
 1  4.48440785818582  4.16013152125213  1.28294959885989
 1  1.90318615061506  5.13993392299230  0.39969975687569
 1 -7.80240301190119 -2.14920091459146  1.30310500450045
 1 -7.14709035333533 -3.86186395229523  1.78650101800180
 1 -7.06125430943094 -3.57030479397940  0.11344293349335
 1 -6.92894023572357 -0.61682201350135  0.19752168006801
 1 -4.77519236103610  1.33670786768677 -0.84072792089209
 1 -6.35792762246225  0.89188681698170 -1.86916359485949
 1 -4.87076557205720  0.00981782798280 -2.21094230693069
 1 -3.74378425772577  6.32162481828183  1.10159786378638
 1 -4.31278895639564  4.80895002720272  1.13530566836684
 1  0.40262482778278  6.44300626052605  1.70030276277628
 1 -1.43141452475248  7.11196789228923  1.31447070347035
 1 -0.07040785318532  7.18225672617262  0.06238257245725
 1 -3.73290358615862  6.59248513161316 -1.38009582568257
 1 -5.16626844994499  6.21864460546055 -0.63390853255326
 1 -4.29424394549455  4.85233672597260 -1.45437517591759
 1  3.49413471997200 -4.57479170937094  2.02801143814381
 1  8.13477072177218 -1.73754440674067  1.71250141274127

