%nproc=4
%Mem=4GB
# td=(NStates=1) B3LYP/SVP 

TD

0 1
 8 -4.58334845564556 -4.59982006320632  2.06864222782278
 8  2.83844444254425 -4.80324487368737  1.39121705350535
 8  7.19812019341934 -1.42765030613061  1.76519674017402
 8  3.75695742854285 -3.10936006120612  0.07587044544454
 8  7.67129588158816 -0.66324770407041 -0.28452802210221
 8 -3.14614494329433  2.53028042554255 -0.10617552215222
 7 -0.28556293799380 -0.58384773457346 -0.60848948514851
 7  1.57023470617062  1.72317469626963 -0.33652531463146
 7 -3.50283722672267 -3.16375542234223  0.53915238653865
 7 -0.79028043094309  2.98015843404340 -0.10155517941794
 6  0.73402463486349 -2.47246268456846 -1.37268935203520
 6  0.99233816761676 -1.15912586368637 -0.92696525182518
 6 -0.68068239333933 -2.72554644404440 -1.14705490489049
 6 -1.28939104530453 -1.50430407230723 -0.71437290319032
 6  3.84552249354936  1.42989747504750 -0.39650586698670
 6  2.53228392139214  0.82405373717372 -0.53025458405841
 6  2.25676268056806 -0.50928707450745 -0.93928617361736
 6  3.59655349224923  2.75176318451845  0.06161538863886
 6  1.66694784728473 -3.51078634443444 -1.86350655165517
 6 -5.63786312151215 -2.52530444004400  1.28900884088409
 6 -3.65055711861186 -1.85747080908091  0.01587537253725
 6  2.08215247544755  2.93039946814681  0.06468899189919
 6 -5.03311950825082 -1.54591009420942  0.22769140804080
 6  5.09950842894289  0.72478214821482 -0.50538359475948
 6 -2.69509047124712 -1.13633040464046 -0.56835725012501
 6 -1.37292523022302 -3.95671017331733 -1.58871211491149
 6 -4.52149961676168 -3.60128863456346  1.39635875047505
 6  1.97222769876988 -4.54746696639664 -0.80641349714971
 6  5.54922479877988 -0.07780384428443  0.76414452055206
 6  4.52030781698170  3.77360859215922  0.40452263606361
 6  1.34491573297330  3.97194160166017  0.28991911141114
 6 -6.94629576017602 -3.11952933273327  0.95880534663466
 6 -5.76374497699770 -0.58332306220622 -0.29691116551655
 6 -0.11748673767377  4.01223589518952  0.14871349694969
 6 -0.96975793749375  5.09599069206921  0.57178180678068
 6 -2.23428875507551  4.66286240904090  0.37780918381838
 6  2.92138497979798 -4.08728534763476  0.27777917691769
 6 -5.49926458725873  0.46317154575458 -1.40551161816182
 6  6.91167373357336 -0.68521680578058  0.66913003560356
 6 -3.57972373167317  5.39299559775978  0.55683649874988
 6 -2.14356779307931  3.27024921622162  0.05669659445945
 6 -0.53607774527453  6.49769363736374  0.84510960076008
 6 -4.17347588448845  5.76152455735574 -0.80817159285929
 1 -0.38171573647365  0.31480718631863 -0.17174772807281
 1  3.16808082268227 -0.90844284638464 -1.28685819441944
 1  2.62137338823882 -3.09346405330533 -2.15670810551055
 1  1.19557633693369 -3.88838075567557 -2.66265863236324
 1 -5.86405821202120 -1.93976236533653  2.28986114661466
 1  5.46456676687669  0.03327804430443 -1.54430758375838
 1  5.89315128072807  1.47690199949995 -0.64135543514351
 1 -2.98026612231223 -0.10300580438044 -0.82496540214021
 1  0.42336866856686  1.92991417441744 -0.45338481058106
 1 -1.23207879907991 -4.96590869506951 -0.93713451915192
 1 -2.47667129682968 -3.94126182818282 -1.73006232643264
 1 -1.24489444054405 -4.33382155655566 -2.74166776977698
 1 -2.56277003480348 -3.64202035043504  0.59429667666767
 1  0.96085189188919 -4.88015049754975 -0.61503522102210
 1  2.53111229702970 -5.56352906140614 -1.38809332323232
 1  4.65318973997400 -0.97237328842884  0.64778536473647
 1  5.57955215481548  0.42706714331433  1.58584305500550
 1  4.40621814211421  4.61599206660666 -0.07028701140114
 1  5.46582320512051  3.50807352655266 -0.04678815561556
 1  4.52037145454545  3.87222273037304  1.39196049995000
 1  1.89751558355836  4.92299222882288  0.61118090499050
 1 -7.85705847744774 -2.42772876737674  0.94099879387939
 1 -7.15433107740774 -3.97929569546955  1.56675904380438
 1 -7.00946913091309 -3.63665142864286 -0.09226763756376
 1 -6.86190353205320 -0.45105543684368 -0.00999907200720
 1 -4.97071191299130  1.59234343124312 -1.20984483258326
 1 -6.46831866156616  0.68757638593859 -1.87893457195720
 1 -4.93951244674467 -0.02647580138014 -2.19339055175518
 1 -3.56178605790579  6.38868152395240  1.00100780478048
 1 -4.34072174967497  4.75542467466747  1.14162630043004
 1 -0.00036547124712  6.75876783668367  1.79374210671067
 1 -1.54565594889489  7.22787948344835  0.90443970037004
 1  0.06167535513551  6.89423792429243  0.04554088828883
 1 -3.56706700250025  6.47657354045405 -1.43952176827683
 1 -5.06501832493249  6.27482022302230 -0.37974311601160
 1 -4.21051557265727  5.06440793309331 -1.42921265966597
 1  3.76834214071407 -4.70751498169817  1.81589022602260
 1  8.09312655735573 -1.97168782108211  1.45902606520652

