%nproc=4
%Mem=4GB
# td=(NStates=1) B3LYP/SVP 

TD

0 1
 8 -4.52584270507051 -4.69048913011301  1.92308767236724
 8  3.10753135123512 -4.77516206540654  1.24673260506051
 8  6.94488486988699 -1.57662520362036  1.81212143264326
 8  3.80668240104010 -3.06465559075908  0.04747760616062
 8  7.45070382238224 -0.48630000930093 -0.09486905620562
 8 -3.03410373917392  2.47931532903290 -0.13120802540254
 7 -0.28533291499150 -0.60798014781478 -0.60836947314731
 7  1.53119080178018  1.82520489928993 -0.32744440654065
 7 -3.38623556655666 -3.12363140994099  0.79063753505351
 7 -0.74316571947195  2.96123654185419 -0.13956898079808
 6  0.63805503790379 -2.51912735103510 -1.38723080618062
 6  0.92341127492749 -1.24205415651565 -0.97775033033303
 6 -0.77153147824782 -2.70117400680068 -1.23516371577158
 6 -1.32848495469547 -1.42226586848685 -0.70054152005201
 6  3.71559950125013  1.38000248554855 -0.42762897929793
 6  2.37593828682868  0.72425375717572 -0.59708126672667
 6  2.16181318561856 -0.59054520032003 -0.83503574857486
 6  3.51828566546655  2.70370837903790  0.06464569166917
 6  1.63465461796180 -3.51676694249425 -1.95408560956096
 6 -5.66631596679668 -2.65682759235924  1.24441438143814
 6 -3.59185124802480 -1.82338740074007  0.16686047104710
 6  2.13871813201320  2.87981440964096  0.01664418741874
 6 -5.03331952825283 -1.49518502170217  0.39683832273227
 6  5.09406788488849  0.61292096209621 -0.43896695309531
 6 -2.68214917711771 -1.07891466306631 -0.44174458885889
 6 -1.52158009570957 -3.96443094539454 -1.60363360706071
 6 -4.55279274607461 -3.63459196489649  1.33642275687569
 6  2.23654413041304 -4.56750897059706 -0.97247010281028
 6  5.36402627892789 -0.20503656755676  0.84264237033703
 6  4.66095188138814  3.74604583588359  0.44830701450145
 6  1.40547178857886  4.11905631313131  0.15407552705271
 6 -7.02252338293829 -3.14544192399240  0.86508597469747
 6 -5.81936053855386 -0.55293002290229 -0.17039851425143
 6 -0.03103809280928  4.07118178977898  0.12925155075508
 6 -0.95031599329933  5.20354144714471  0.41570619921992
 6 -2.23120844704470  4.71495761856186  0.43050445334533
 6  3.11875471677168 -3.97504412351235  0.06101750075008
 6 -5.35328998979898  0.47492272087209 -1.14360542754275
 6  6.71085365156516 -0.70414869896990  0.79080220282028
 6 -3.51247700700070  5.46505280348035  0.50283109820982
 6 -2.08090152645265  3.23340553185318  0.02252317711771
 6 -0.43190732823282  6.63924779277928  0.75339042884288
 6 -4.28179671657166  5.76330473537354 -0.84128490419042
 1 -0.51361892679268  0.30692639823982 -0.09361991529153
 1  3.03201721632163 -1.20091209330933 -0.74264377297730
 1  2.41195244614461 -2.95795050195019 -2.39698213291329
 1  1.16976375567557 -3.96704862246225 -2.75671803830383
 1 -5.77068887508751 -2.12093048214821  2.22533469396940
 1  5.00547085728573 -0.12802808630863 -1.22982613561356
 1  5.94500646624663  1.48188249754975 -0.61581288088809
 1 -2.95052314801480 -0.09629513331333 -0.42584549014901
 1  0.36865319701970  1.79293047604761 -0.55022449454945
 1 -1.44690028122812 -4.95039714391439 -0.83274408010801
 1 -2.63498712841284 -3.81896959895990 -1.94369368956896
 1 -0.99292924402440 -4.18969714411441 -2.58664226722672
 1 -2.61530528832883 -3.68754490289029  0.62702994999500
 1  1.54464027072707 -5.15024750725072 -0.67370108760876
 1  3.02423160896090 -5.27448015651565 -1.43913842774277
 1  4.63774819581958 -1.12266831793179  1.02137272347235
 1  5.27638183778378  0.35012944954495  1.76941141184118
 1  4.61517903820382  4.60863133053305 -0.24749473217322
 1  5.71708833163316  3.21348406760676  0.43409993319332
 1  4.33585300270027  4.16815232333233  1.39406070997100
 1  2.04604043604360  5.04738466806681  0.11392117901790
 1 -7.83291606320632 -2.45164115861586  0.72707740174017
 1 -7.06371201550155 -4.08328609450945  1.55024739263926
 1 -6.91356954095410 -3.65863362686269 -0.00029844064406
 1 -6.88069541124112 -0.37142747404740  0.07669959785979
 1 -5.06806164796480  1.54825902280228 -0.78789263736374
 1 -6.28695052475248  0.78966659495950 -1.70560723922392
 1 -4.51339983548355  0.00840768696870 -1.78133934663466
 1 -3.47032691199120  6.32161481728173  1.08600630463046
 1 -4.18761643914391  4.94907403960396  1.04431656945695
 1 -0.02249768446845  6.83057501740174  1.72914564706471
 1 -1.53784516781678  7.35867256275628  0.72124138053805
 1  0.00437962556256  7.10430893139314 -0.14928859465947
 1 -3.48500879667967  6.04961084418442 -1.75196301240124
 1 -5.21787361046105  6.18561130213021 -0.82443758545855
 1 -4.35574009510951  4.69860135243524 -1.20627036543654
 1  3.67451275777578 -4.24032826302630  1.83213185018502
 1  7.87370461516152 -2.01952260456046  1.72670283288329

