%nproc=4
%Mem=4GB
# td=(NStates=1) B3LYP/SVP 

TD

0 1
 8 -4.57584770557056 -4.77153723492349  1.83537890149015
 8  3.00998159625963 -5.07213176237624  1.26845477727773
 8  7.07365774717472 -1.51091863296330  1.79452967346735
 8  3.81041277407741 -3.23428255345535  0.15980883928393
 8  7.51017976997700 -0.75512689198920 -0.27492706200620
 8 -2.98708903770377  2.58145554305431 -0.25521042564256
 7 -0.22841722342234 -0.60639998979898 -0.31698033423342
 7  1.59148683138314  1.79183156195620 -0.27782944504450
 7 -3.48671561456146 -3.20793984078408  0.69998847014701
 7 -0.73203460636064  3.00301071927193 -0.05304032793279
 6  0.69187041944194 -2.47432287058706 -1.24494657775778
 6  0.97942687648765 -1.09423937503750 -0.80450300560056
 6 -0.68479280438044 -2.59951384078408 -1.19004920432043
 6 -1.28350045624562 -1.43013665556556 -0.59427089298930
 6  3.72758069936994  1.47372185748575 -0.32541875827583
 6  2.44287498049805  0.83736506830683 -0.42062362096210
 6  2.12259926422642 -0.51561770757076 -0.76342858785879
 6  3.60401423832383  2.77442545074507 -0.03877465036504
 6  1.73440459295930 -3.36043130893089 -1.81031123212321
 6 -5.66673600880088 -2.70317222682268  1.23767370737074
 6 -3.64686674957496 -1.87097215921592  0.09347313231323
 6  2.10967522772277  3.00771719991999 -0.00087756475648
 6 -5.13613981028103 -1.57599310251025  0.36176481538154
 6  5.07800627872787  0.71390106010601 -0.49055211161116
 6 -2.63765472767277 -1.08389516111611 -0.27637805220522
 6 -1.46262420012001 -3.87647214951495 -1.70653389708971
 6 -4.56841430823082 -3.68558706440644  1.31394050865087
 6  2.08574905090509 -4.65016723642364 -1.01247410321032
 6  5.45256513281328 -0.12944900880088  0.80387849394940
 6  4.61053683988399  3.81814304560456  0.18777096089609
 6  1.37323856525653  4.24458886638664  0.20042016151615
 6 -7.05272640324032 -3.24788216801680  0.83912337843784
 6 -5.88633723622362 -0.58938366826683 -0.33469494389439
 6 -0.03804879387939  4.17991266286629  0.14210283588359
 6 -0.92820378207821  5.25964705770577  0.47041166976698
 6 -2.25044037023702  4.70215633843384  0.29802120502050
 6  3.06513935523552 -4.20129674877488  0.15536693569357
 6 -5.33122778357836  0.46287151575158 -1.24600566756676
 6  6.78670123632363 -0.79053733783378  0.65026814941494
 6 -3.56623238253825  5.47856415461546  0.50238105320532
 6 -2.03554699099910  3.31033322462246 -0.02342141734173
 6 -0.46511064856486  6.77714158215822  0.65453054285429
 6 -4.43325186208621  5.69799820472047 -0.74630540624062
 1 -0.36639420432043  0.40960666626663 -0.09996054935494
 1  2.80609462406241 -1.19588159025903 -1.11772128072807
 1  2.82033328422842 -2.93859856675668 -2.25679811451145
 1  1.43133991329133 -3.58284020162016 -2.78792115861586
 1 -5.98256006220622 -2.34374276337634  2.39388154865487
 1  4.98451876207621 -0.12195747924792 -1.23799695269527
 1  5.88088005360536  1.52023633293329 -0.70421172077208
 1 -3.03180127582758 -0.08361386518652 -0.44151705730573
 1  0.46725305700570  1.70308149114912 -0.44525399749975
 1 -1.55593118431843 -4.62546465066507 -0.81564236993699
 1 -2.57166079577958 -3.63906160816082 -1.86839615981598
 1 -1.14003395449545 -4.37896607100710 -2.64096769976998
 1 -2.43211696949695 -3.42883903230323  1.12073932093209
 1  1.18214402110211 -5.17722020452045 -0.52567628512851
 1  2.70888007380738 -5.45783849234923 -1.48702321622162
 1  4.70624504550455 -0.90800685178518  0.79948053425343
 1  5.44106830643064  0.55930036663666  1.76513098379838
 1  4.91134865516552  4.75518598599860 -0.62152213491349
 1  5.51265788858886  3.25893861306131  0.34362088528853
 1  4.24398381578158  4.69580508860886  1.02154345824582
 1  1.98391422342234  5.00674060366037  0.59323911081108
 1 -7.65816858845885 -2.46272226672667  1.08823351735173
 1 -7.21142678697870 -4.16153391929193  1.56273864176418
 1 -7.11790997499750 -3.58179594309431 -0.20692910371037
 1 -6.91677901960196 -0.69745007630763 -0.02843091519152
 1 -4.96372121392139  1.41495569246925 -0.64335818391839
 1 -6.28296012571257  0.89615724402440 -1.98857553605361
 1 -4.43157165266527  0.24349119531953 -1.93677489018902
 1 -3.66041592089209  6.33963661946195  1.22308001200120
 1 -4.18627630513051  4.62123125532553  1.13861599939994
 1  0.21089565486549  6.78555051495150  1.40789352185219
 1 -1.35037642094209  7.40738743424342  0.91010026642664
 1 -0.02083289568957  7.16137463796380 -0.40164383018302
 1 -3.92014231003100  6.36799268236824 -1.30026784288429
 1 -5.40765258835884  6.22666540754075 -0.45250039173917
 1 -4.60734525562556  4.73830532283228 -1.25706544494449
 1  3.74628993549355 -4.93146737693769  1.87573621062106
 1  7.85985323002300 -1.92474312661266  1.50397055965597

