%nproc=4
%Mem=4GB
# td=(NStates=1) B3LYP/SVP 

TD

0 1
 8 -4.49957007780778 -4.68831891309131  1.91099646324632
 8  3.03740433853385 -4.77475202440244  1.31902983478348
 8  7.10585096649665 -1.50342788388839  1.78618883938394
 8  3.84799653245325 -3.16595572077208  0.01983484188419
 8  7.47347609960996 -0.75222660196020 -0.22528209750975
 8 -3.07604793359336  2.52075947344734 -0.24718962356236
 7 -0.27188156985699 -0.57344669446945 -0.56700533673367
 7  1.45978366106611  1.77574995379538 -0.17526918901890
 7 -3.45008195119512 -3.06523557035704  0.65027349864986
 7 -0.83954535743574  2.91704212241224  0.03202817891789
 6  0.64163539593959 -2.50660609890989 -1.37886997009701
 6  0.96106504030403 -1.22285223632363 -0.88505106040604
 6 -0.79577390249025 -2.68387227662766 -1.26482668206821
 6 -1.26898900510051 -1.44317795969597 -0.79304076997700
 6  3.63464140544054  1.39747423272327 -0.32247846424642
 6  2.38427912091209  0.81550288208821 -0.54886644524452
 6  2.22245925022502 -0.54837098289829 -0.76688893389339
 6  3.48081191809181  2.70928893709371  0.11882110921092
 6  1.64746589908991 -3.55343060886089 -1.81144134513451
 6 -5.55813514871487 -2.60647255685569  1.38496843684368
 6 -3.66618868176818 -1.78444350635064  0.13262704770477
 6  2.11180544074407  2.97549397759776  0.11651417441744
 6 -5.05895209150915 -1.51198670187019  0.41007964686469
 6  5.02160063816382  0.72053172317232 -0.46253931033103
 6 -2.61155211741174 -1.14257102870287 -0.42464287868787
 6 -1.51787972567257 -3.84444894719472 -1.78012125582558
 6 -4.48591605840584 -3.58458696439644  1.33864297889789
 6  2.12562303830383 -4.57209942964296 -0.97342019781978
 6  5.43599347564756 -0.05645170907091  0.71592969906991
 6  4.51221700790079  3.71216244754475  0.43010519431943
 6  1.26848809020902  4.13234764226423  0.31049116861686
 6 -6.98399953055306 -3.11528890869087  1.12714218031803
 6 -5.77401600410041 -0.59567429732973 -0.21784325872587
 6 -0.03268825782578  4.05065973757376  0.25737436303630
 6 -0.91824278597860  5.17120821382138  0.44607923652365
 6 -2.21985731193119  4.78716483928393  0.37784918781878
 6  3.09000184148415 -4.04828144724472  0.11085248424842
 6 -5.29238389918992  0.37832306090609 -1.37261832883288
 6  6.80565313151315 -0.72479076317632  0.69212233483348
 6 -3.58372413171317  5.38155445364536  0.38979979507951
 6 -2.12679611591159  3.25090728202820 -0.03670274547455
 6 -0.45179931743174  6.63042691069107  0.74573966376638
 6 -4.13458199509951  5.79151755665567 -0.98428920462046
 1 -0.42403996889689  0.15974167976798  0.08626807350735
 1  2.97857187178718 -1.12365436753675 -0.93284279287929
 1  2.64809606050605 -3.28410311721172 -2.16342877757776
 1  1.19767654695470 -3.89119103670367 -2.77375974247425
 1 -5.40512231843184 -2.22358074717472  2.28540070057006
 1  5.03511382158216  0.09200391689169 -1.46781993499350
 1  5.82461442704270  1.18598290759076 -0.62465376497650
 1 -2.83799189488949  0.00083457965797 -0.68941184678468
 1  0.47297362906291  1.73812499549955 -0.35626509860986
 1 -1.74681027222722 -4.67404950915092 -1.12721352705271
 1 -2.62597622732273 -3.47237493949395 -2.13485280548055
 1 -1.11001095219522 -4.19049722412241 -2.80600420342034
 1 -2.49716347414742 -3.61100724912491  0.44114136113611
 1  1.12097790449045 -5.04375685818582 -0.47476119361936
 1  2.77651683748375 -5.36314902340234 -1.43508802270227
 1  4.61307572857286 -0.91626767786779  0.93204379057906
 1  5.54004820442044  0.57799223582358  1.68794326502650
 1  4.33964148444844  4.61193166056606 -0.05062504520452
 1  5.39887651045105  3.33250596979698  0.39761628482848
 1  4.43202261966197  4.01492700080008  1.53774507840784
 1  1.83927975997600  4.97704763436344  0.46931671857186
 1 -7.85293806540654 -2.51926792129213  1.56856155015501
 1 -7.04026967126713 -4.20598836473647  1.48183055095510
 1 -6.87492567656766 -3.33178094159416 -0.04556296709671
 1 -6.83682102380238 -0.66392672397240 -0.09808788088809
 1 -4.70090493229323  1.18390258715872 -0.90400424852485
 1 -6.31179300900090  0.71406903520352 -1.81277795629563
 1 -4.55812430793079 -0.08249140294029 -2.17463867656766
 1 -3.50556043534354  6.19533218901890  1.23227093109311
 1 -4.32815049254926  4.62355148734873  0.80787292509251
 1  0.20846541184118  6.46514847474748  1.51030376287629
 1 -1.48642002530253  7.11053774927493  0.86552580898090
 1  0.19335852345235  7.11183968446845  0.03238957315732
 1 -3.46438673447345  6.51242712581258 -1.63637145324532
 1 -5.22429425252525  6.12552529352935 -0.87129227092709
 1 -4.10004452555256  4.87671916421642 -1.66031576997700
 1  3.66423172967297 -4.34591882208221  1.80671930893089
 1  7.97825507020702 -1.96242689498950  1.53765392799280

