%nproc=4
%Mem=4GB
# td=(NStates=1) B3LYP/SVP 

TD

0 1
 8 -4.62217233803380 -4.71657173837384  1.85899126272627
 8  2.99135973407341 -4.76362091129113  1.41098903070307
 8  7.01881226262626 -1.62106964806481  1.66584680518052
 8  3.80786251905191 -2.99783890909091  0.15214807320732
 8  7.59791854385439 -0.69981136043604 -0.29815938523852
 8 -3.00605093389339  2.46702409990999 -0.30755566016602
 7 -0.27769215091509 -0.58480783058306 -0.56897553375338
 7  1.58608629132913  1.88853123192319 -0.27756941904190
 7 -3.34073101610161 -3.06789583638364  0.65919439073907
 7 -0.73217462036204  2.87400781898190 -0.08954397829783
 6  0.64381561396140 -2.47932337063706 -1.27014909800980
 6  0.89150808460846 -1.13929388048805 -0.89354190949095
 6 -0.72567689278928 -2.68464235363536 -1.24194439383938
 6 -1.32605471167117 -1.40216385828583 -0.78845031093109
 6  3.72353029432943  1.42848733403340 -0.36539275567557
 6  2.50428112111211  0.79599093089309 -0.53954551315132
 6  2.22611961626163 -0.57813395919592 -0.78953119811981
 6  3.62800663756376  2.76493450165017  0.06967619471947
 6  1.59485063756376 -3.45649091489149 -1.80121032203220
 6 -5.60350968616862 -2.54477638723872  1.22639257925793
 6 -3.65178724162416 -1.84659972197220  0.11096488148815
 6  2.13574783498350  3.05709213741374  0.01012353535354
 6 -5.09240543684368 -1.46336183938394  0.28002664156416
 6  5.04912339043904  0.66483615361536 -0.54032708910891
 6 -2.75154611681168 -1.10007677927793 -0.52452286668667
 6 -1.45744368206821 -3.92517702000200 -1.61467471117112
 6 -4.50457792459246 -3.67546605230523  1.33917303190319
 6  2.15047552355236 -4.57772999269927 -0.81192404820482
 6  5.42330220652065 -0.16092215611561  0.66704481058106
 6  4.61424721092109  3.77325855715572  0.52879506330633
 6  1.31844308570857  4.16097050455045  0.28420854035404
 6 -7.00037116771677 -3.13753113291329  1.04529399549955
 6 -5.81273987648765 -0.54072880278028 -0.30375184958496
 6 -0.08662365136514  4.04551922352235  0.29226785238524
 6 -0.98866982868287  5.15877697069707  0.67479210781078
 6 -2.25487081328133  4.69064518731873  0.39673107600760
 6  3.07472031333133 -3.98634525362536  0.28708010701070
 6 -5.30686534733473  0.62305753435344 -1.24551561856186
 6  6.77391995819582 -0.89296758085809  0.52103522612261
 6 -3.54935069436944  5.31662796099610  0.41807262236224
 6 -2.06760019631963  3.16143833513351 -0.09348842404240
 6 -0.54023816131613  6.56721058905891  0.88083317311731
 6 -4.38180671757176  5.48445685058506 -0.95468624432443
 1 -0.51563912881288  0.40036574217422 -0.24882543584358
 1  3.00468448304830 -1.15045704780478 -0.98902841144114
 1  2.51574282518252 -2.86338104500450 -2.13103553825383
 1  1.28662544184418 -4.00452236983698 -2.66418878537854
 1 -5.60596240244024 -2.14616300540054  2.26627878837884
 1  4.88811912211221  0.12678739523952 -1.51143429642964
 1  5.80672263786379  1.37694200350035 -0.92444374397440
 1 -3.02783087878788  0.08755325152515 -0.76675958155816
 1  0.54051038273827  1.86256743974397 -0.65152462456246
 1 -1.38009360056006 -4.78251035523552 -0.88336914261426
 1 -2.49623325302530 -3.63485118711871 -1.71954127432743
 1 -0.81422137323732 -4.19441761616162 -2.59313291629163
 1 -2.25804956275628 -3.34513066146615  0.62012925992599
 1  1.38966477317732 -5.06432891539154 -0.27715143264326
 1  2.74016320212021 -5.31962467096710 -1.20323483738374
 1  4.51532595359536 -0.97176322742274  0.89650023622362
 1  5.50215441504150  0.54311874847485  1.57759222992299
 1  4.57537505780578  4.52654312171217 -0.10121010371037
 1  5.53333995679568  3.57262998219822  0.41533805700570
 1  4.56378579597960  3.83333884198420  1.54067537143714
 1  1.92106793879388  5.12860278987899  0.41506129302930
 1 -7.85006777837784 -2.18528452295230  1.14646934093409
 1 -7.08152379667967 -3.83584135003500  1.75720808870887
 1 -7.04588277227723 -3.57979574307431  0.06428801800180
 1 -6.83869121082108 -0.46761709300930  0.07087901580158
 1 -4.82657749954995  1.37202139903990 -0.52921676977698
 1 -6.22875470517052  0.91325895419542 -1.70379705820582
 1 -4.52169066456646  0.27638448464846 -1.91988320102010
 1 -3.60015989528953  6.23806646244624  0.99723742774277
 1 -4.36258393589359  4.73948308050805  0.79736187398740
 1 -0.13602903760376  6.63788574847485  1.89638237073707
 1 -1.36230761406141  7.09846654215422  1.21009026542654
 1 -0.04663547594759  7.03958245874587  0.05164149834983
 1 -3.55007530333033  5.97254313741374 -1.50617843394339
 1 -5.28584040714071  5.96050879187919 -1.04960010171017
 1 -4.50416493759376  4.41047253955396 -1.44814455285529
 1  3.66752205870587 -4.27091132133213  2.13483212021202
 1  7.83143038773877 -1.92403305560556  1.27227739033903

