%nproc=4
%Mem=4GB
# td=(NStates=1) B3LYP/SVP 

TD

0 1
 8 -4.45652577337734 -4.52433251445145  2.13347871147115
 8  2.87569816791679 -4.71764631383138  1.32202013381338
 8  7.09371975337534 -1.56138367946795  1.74961518201820
 8  3.81228296109611 -3.14983410861086 -0.01665880748075
 8  7.68461721372137 -0.52175355465547  0.01626205690569
 8 -3.10308063686369  2.48574597209721 -0.28214311891189
 7 -0.26156053775378 -0.70090944074407 -0.64339297549755
 7  1.61803948664866  1.80523290209021 -0.48150981308131
 7 -3.41035797879788 -3.00731977877788  0.68665713701370
 7 -0.76335773867387  2.95202562076208 -0.20061508540854
 6  0.64430566296630 -2.54545998429843 -1.44522660576058
 6  0.99073800760076 -1.18722867396740 -0.95647820312031
 6 -0.74965929102910 -2.69372326172617 -1.33026322572257
 6 -1.36841894809481 -1.52139578147815 -0.78183964986499
 6  3.80660860216022  1.33398788408841 -0.36578279467947
 6  2.47645833883388  0.79816114791479 -0.66534809340934
 6  2.22397940224022 -0.48389453525353 -0.98212045704570
 6  3.59532336923692  2.69171717991799 -0.03394416731673
 6  1.60870202270227 -3.48596386218622 -1.92214241524152
 6 -5.64766410161016 -2.49113102270227  1.29422936293629
 6 -3.69513157605761 -1.79608467046705 -0.03781999699970
 6  2.15731999219922  3.00841726992699 -0.15902337933793
 6 -5.05791198749875 -1.45543104630463  0.25674431333133
 6  5.11097957605761  0.65847551755176 -0.38817187358736
 6 -2.71849281148115 -1.06268303990399 -0.51073148754875
 6 -1.42445038273827 -4.00242474477448 -1.61055429912991
 6 -4.55565303210321 -3.51187969366937  1.46074518911891
 6  2.11040151615162 -4.52572479217922 -0.88079093489349
 6  5.37875775207521 -0.15641170507051  0.83231133723372
 6  4.56119190539054  3.76756798809881  0.43447563136314
 6  1.34025526692669  4.09365377287729  0.17347746724672
 6 -6.98091922252225 -3.11585896569657  1.08436790289029
 6 -5.80926952945295 -0.55389011891189 -0.37609908430843
 6 -0.00571556055606  4.01924659625963  0.20908953455346
 6 -1.02753371507151  5.08808990199020  0.60492512111211
 6 -2.24725005120512  4.66756287908791  0.48976037893789
 6  3.03290613191319 -4.04870148924893  0.19593099209921
 6 -5.34744940574057  0.41258648724872 -1.32553362036204
 6  6.79838240444044 -0.69440772487249  0.81675479807981
 6 -3.55847160646065  5.29872617081708  0.60374118921892
 6 -2.12187562386239  3.24951714301430 -0.02827190239024
 6 -0.54796893439344  6.46779064706471  1.03371846164616
 6 -4.39593813071307  5.65562396729673 -0.71495227092709
 1 -0.40119768466847  0.18822452805281 -0.19429998329833
 1  3.11005502010201 -1.12094409650965 -1.13928343694369
 1  2.46068731963196 -3.11885659255926 -2.29188162286229
 1  1.42575935523552 -4.11241315891589 -2.70357272377238
 1 -5.51989379557956 -2.04644303340334  2.24431659215922
 1  5.15233554375437 -0.10348563206321 -1.22767592059206
 1  5.86860882648265  1.30040434973497 -0.60213151275127
 1 -2.89939803550355  0.00172466866687 -0.67243014861486
 1  0.56010234193419  1.84391557455746 -0.49672914501450
 1 -1.64836042724272 -4.55202730693069 -0.52670347604760
 1 -2.34487811751175 -3.92411011301130 -2.11095041524152
 1 -0.71674162526253 -4.93283145754576 -2.21480508350835
 1 -2.41420517831783 -3.36789293769377  0.66822406940694
 1  1.17148295499550 -4.73756623912391 -0.37824154165417
 1  2.69478866466647 -5.36201891039104 -1.41452596649665
 1  4.56568098909891 -1.06757280838084  0.81902248844884
 1  5.08744294389439  0.40554499109911  1.75862033273327
 1  4.86349386968697  4.78875934333433 -0.02872285498550
 1  5.52918954175418  3.29309202840284  0.44171069426943
 1  4.23076249364937  3.85210071817182  1.49768107200720
 1  1.81731756375638  4.85290522012201  0.40184997189719
 1 -7.66548932053205 -2.30280627512751  1.14986968096810
 1 -7.25477112141214 -3.78489625552555  1.94644701260126
 1 -7.00908909290929 -3.55576333983398  0.10709229842984
 1 -6.80040738243824 -0.51922225352535 -0.25999407150715
 1 -4.90744558635864  1.36707090399040 -0.86280012811281
 1 -6.14991682138214  0.88293592189219 -1.90195687418742
 1 -4.57997649314932  0.13691053725373 -2.17454866756676
 1 -3.41696157545755  6.24605726152615  1.05705340934093
 1 -4.22183986148615  4.59565869806981  1.38917105490549
 1  0.38838340364036  6.44192615251525  1.59350208270827
 1 -1.47735911921192  7.26848354385439  1.54653390979098
 1 -0.16462727512751  7.09840834133413 -0.00455412121212
 1 -3.83948424422442  6.32061794489449 -1.46425424152415
 1 -5.43037486058606  5.94480722172217 -0.34698984068407
 1 -4.42554707580758  4.86140763306331 -1.26693643204320
 1  3.51869717621762 -4.32949717991799  2.10769940694069
 1  8.08486573127313 -1.92213286558656  1.65059522212221

