%nproc=4
%Mem=4GB
# td=(NStates=1) B3LYP/SVP 

TD

0 1
 8 -4.42533265406541 -4.74401448264826  1.91120648424842
 8  3.08200879897990 -4.75510005920592  1.27109504130413
 8  7.09842022342234 -1.59675721682168  1.88402862336234
 8  3.78143987678768 -3.09119824502450 -0.16416355795580
 8  7.65389414141414 -0.40290166946695  0.04889532023202
 8 -2.96684701350135  2.47685508300830 -0.41002590719072
 7 -0.26237061876188 -0.51687103690369 -0.70896953315332
 7  1.54524220692069  1.66091847064706 -0.39017067916792
 7 -3.39021596459646 -3.13803285008501  0.65745421672167
 7 -0.73513491639164  2.88225864406441 -0.12438746264626
 6  0.50000123252325 -2.45167060536054 -1.49931201430143
 6  0.91637057085709 -1.14723467456746 -1.03665622092209
 6 -0.89439376447645 -2.60458434783478 -1.35617581698170
 6 -1.34077618381838 -1.43981762366237 -0.73222468836884
 6  3.81917985928593  1.47310179547955 -0.40514673107311
 6  2.54934562756276  0.76992832463246 -0.57576913551355
 6  2.22792979727973 -0.55471161696170 -0.95321756675668
 6  3.55306914381438  2.74041204940494  0.14755398249825
 6  1.53799495199520 -3.52025729152915 -1.81096129712971
 6 -5.55232456765677 -2.60574248384838  1.38205814581458
 6 -3.68936099899990 -1.84405946794679  0.10228401340134
 6  2.15951021122112  2.92814924312431 -0.01854933193319
 6 -5.13652984928493 -1.49889539273927  0.47295593449345
 6  5.12323080118012  0.67980765076508 -0.35282833923392
 6 -2.66984794699470 -0.98953572517252 -0.39761017541754
 6 -1.68156609430943 -3.80547504980498 -1.81421466516652
 6 -4.44824229102910 -3.72322082778278  1.36520563516352
 6  1.96664714071407 -4.63810603030303 -0.80773362916292
 6  5.50303017931793 -0.14934099799980  0.84179228532853
 6  4.52658844504450  3.70946217751775  0.58499068286829
 6  1.27395863726373  4.04931933943394  0.25143526302630
 6 -6.84455558615862 -3.17793517331733  1.22516198229823
 6 -5.83574217671767 -0.50575530543054 -0.06156763116312
 6 -0.11948693769377  4.03194786638664  0.16092471807181
 6 -0.98635959765977  5.12477357035704  0.51638626722672
 6 -2.23784911111111  4.69767589038904  0.35412681558156
 6  2.98753159445945 -4.02761938103810  0.07178857785779
 6 -5.53729839063906  0.46400162876288 -1.13370443744374
 6  6.76695926212621 -0.72169045314531  0.89564268686869
 6 -3.55334109340934  5.36805310351035  0.33643445854585
 6 -2.05541897819782  3.21753394469447 -0.04488356355636
 6 -0.42554669216922  6.44495836383638  0.84331942174217
 6 -4.20518905580558  5.85890429532953 -1.01923269896990
 1 -0.15342290719072  0.42938864446445 -0.10552110541054
 1  3.08445245984598 -1.15190719281928 -1.04078358695870
 1  2.40897214811481 -3.17133184008401 -2.17757019171917
 1  1.21807858715872 -3.99055097269727 -2.81649401590159
 1 -5.47755956215622 -2.29889827892789  2.37705986648665
 1  5.05721603180318 -0.06074135763576 -1.18036118911891
 1  6.19339130473047  1.29297360666067 -0.52090338993899
 1 -2.81513960966097  0.09889438563856 -0.52452535813581
 1  0.46432276397640  1.74219540254025 -0.69920939303930
 1 -1.78360395159516 -4.67308941314131 -1.23070387608761
 1 -2.78675230493049 -3.64968267026703 -1.98620794099410
 1 -1.06202615371537 -4.38571674607461 -2.66365996899690
 1 -2.44065782358236 -3.60547669606961  0.74087133413341
 1  1.23518932563256 -5.04945742824282 -0.30395411291129
 1  2.32800198599860 -5.35110781928193 -1.24026854075407
 1  4.91831625262526 -1.01017706880688  1.12636322252225
 1  5.46363056265627  0.57976241284128  1.78364283498350
 1  4.81825934623462  4.48174864226423 -0.28747873057306
 1  5.55740236303630  3.21328404760476  0.53834035723572
 1  4.22725214261426  4.38348385648565  1.64938624252425
 1  1.88342417441744  4.83027295689569  0.81142092899290
 1 -7.75902867446745 -2.57104309880988  1.14869956395640
 1 -7.10032567686769 -4.00599836573657  1.98437080498050
 1 -6.84843302730273 -3.58236600010001  0.10756234543454
 1 -6.95576291799180 -0.62368269956996  0.28350027792779
 1 -5.24217905970597  1.45382957985799 -0.73425727382738
 1 -6.41783361306131  0.81870949924993 -1.51784846334633
 1 -4.91390988648865  0.12781962816282 -1.84710592329233
 1 -3.56433631293129  6.25930858665867  0.92615031903190
 1 -4.20521819931993  4.63856298849885  0.62613475127513
 1  0.32216678197820  6.49994195409541  1.75060779327933
 1 -1.29804118741874  7.10347704320432  1.03183243964396
 1  0.05312450005000  6.76075457595760 -0.10881454725473
 1 -3.50812110791079  6.58844472757276 -1.51472928902890
 1 -5.12065388848885  6.22085482648265 -0.71472661436144
 1 -4.41883640474047  5.02831432373237 -1.90119985838584
 1  4.06586189268927 -4.39931416161616  1.56389502650265
 1  7.98797604230423 -1.72561321362136  1.90867102970297

