%nproc=4
%Mem=4GB
# td=(NStates=1) B3LYP/SVP 

TD

0 1
 8 -4.47114723552355 -4.72856293749375  1.88788415201520
 8  2.98906950505051 -4.96270081928193  1.21935986778678
 8  7.04925530693069 -1.54417195829583  1.92612283278328
 8  3.76696842964296 -3.18948807400740  0.05722858125813
 8  7.76620537253725 -0.46888826812681  0.04487491819182
 8 -3.04792512131213  2.48064546204620 -0.28426333093309
 7 -0.24298868056806 -0.72773212301230 -0.53085172137214
 7  1.54304198689869  1.78962134093409 -0.28002966506651
 7 -3.48276521952195 -3.14754380118012  0.55925439673967
 7 -0.70022142504250  2.92285270347035 -0.03837886178618
 6  0.60055128752875 -2.46626206450645 -1.42980506360636
 6  0.97101603540354 -1.18741869296930 -1.07944049934993
 6 -0.80627495259526 -2.70537442684268 -1.38218841824182
 6 -1.34367647384738 -1.50689433133313 -0.74385585148515
 6  3.74622256355636  1.42560704600460 -0.35797201360136
 6  2.51290198319832  0.78651998379838 -0.52554411301130
 6  2.21232823712371 -0.50980712651265 -0.87465971097110
 6  3.58866270317032  2.71931994019402 -0.06255702860286
 6  1.61779293179318 -3.53052831863186 -1.88350855185519
 6 -5.55562489768977 -2.54746665626563  1.45205514551455
 6 -3.64680674357436 -1.82043710571057  0.10091387638764
 6  2.10585484568457  3.04233066126613  0.10535305830583
 6 -5.09747594389439 -1.56783228642864  0.34992363126313
 6  5.04656313441344  0.71211088108811 -0.44708776517652
 6 -2.67021798399840 -1.02543931553155 -0.35861627602760
 6 -1.52712064976498 -3.91591609390939 -1.88158140184018
 6 -4.48574604140414 -3.62701120682068  1.33688280288029
 6  2.09872034803480 -4.63609582928293 -0.96527938373837
 6  5.41379125542554 -0.20888695259526  0.79247735383538
 6  4.50922670887089  3.74265549684969  0.27626981078108
 6  1.33644488588859  4.18062246974697  0.17635775527553
 6 -6.89309043964396 -3.02260964076408  1.21327079317932
 6 -5.79980858335834 -0.56308103800380 -0.17438891329133
 6 -0.01572656165617  4.13662833443344  0.17970659625963
 6 -0.99063002470247  5.24537563056306  0.46635126372637
 6 -2.19511483768377  4.76498262106211  0.30383178607861
 6  3.02229507080708 -4.06438305740574  0.19804120312031
 6 -5.50416507730773  0.47963319191919 -1.17443851085109
 6  6.88477104330433 -0.72776106020602  0.86276939953995
 6 -3.58281404070407  5.33989028722872  0.44869568466847
 6 -2.09946338263826  3.25498769006901  0.05310623542354
 6 -0.56724086158616  6.61781564956496  0.78075316511651
 6 -4.21081961886189  5.76720512541254 -0.92145292099210
 1 -0.61721928682868  0.23472917851785 -0.40668122142214
 1  2.90698471307131 -1.12034403650365 -1.12474198279828
 1  2.57109836073607 -2.88877358425843 -2.00944337903790
 1  1.17118389768977 -3.97222914051405 -2.70161252775277
 1 -5.48506031223122 -2.13362175127513  2.51450361086109
 1  5.00052036223622  0.06578129462946 -1.46838999199920
 1  5.86039800540054  1.61851616091609 -0.50445174477448
 1 -2.84538263396340  0.15171966816682 -0.32228513411341
 1  0.52385871757176  1.66504768776878 -0.41735120722072
 1 -1.64016960816082 -4.92348445264526 -1.10924172987299
 1 -2.60867449714972 -3.82072977497750 -2.38711803200320
 1 -1.06246619771977 -4.27718589298930 -2.81661526452645
 1 -2.58101185898590 -3.70655680408041  0.51569881688169
 1  1.11286709340934 -5.06682916541654 -0.49024274177418
 1  2.58223740954095 -5.25646835533553 -1.71174568846885
 1  4.81703612461246 -1.09249530063006  0.82239282548255
 1  5.16272047164717  0.32867730433043  1.69707417811781
 1  4.73989150945095  4.55269573697370 -0.48545852855286
 1  5.48283490629063  3.39174189338934  0.63091961516152
 1  4.24207362476248  4.32393790189019  1.35956726062606
 1  1.93385921792179  4.96310624022402  0.48002778967897
 1 -7.56013878547855 -2.06500249474947  1.33700839483948
 1 -7.08145378967897 -3.86059382528253  1.98533090099010
 1 -7.07370555455546 -3.37489525302530  0.25615720492049
 1 -6.80181752345234 -0.42891322262226  0.11348327622762
 1 -5.09373421522152  1.41489568646865 -0.70799464756476
 1 -6.64059588928893  0.64124175247525 -1.42827950645064
 1 -4.79547804330433  0.06559340554055 -2.15730694339434
 1 -3.79040892019202  6.11281393719372  1.07851555555556
 1 -4.22141981948195  4.65527465966597  0.87714985278528
 1 -0.07161259595960  6.74988694859486  1.79421215371537
 1 -1.52116349964997  7.15234192969297  0.93906316271627
 1 -0.16217703010301  7.17608610911091 -0.08602226802680
 1 -3.80226052185219  6.80220610371037 -1.37645546164616
 1 -5.25755757885789  6.09488222922292 -0.50591573327333
 1 -4.09161368246825  4.73433492579258 -1.41585132353235
 1  3.39174448094810 -4.46698092829283  1.97293593059306
 1  7.79224646934694 -2.12277292959296  1.71867202980298

