%nproc=4
%Mem=4GB
# td=(NStates=1) B3LYP/SVP 

TD

0 1
 8 -4.62322244304430 -4.81207128832883  1.87953331693169
 8  2.77665826392639 -4.93023757295730  1.24997292909291
 8  7.20029041044104 -1.56223376447645  1.79392961346135
 8  3.76760849364937 -3.16976610181018  0.16153901230123
 8  7.80090884288429 -0.36227760706071 -0.04496406570657
 8 -2.98468879767977  2.43897129462946 -0.26952185678568
 7 -0.35744012571257 -0.64094344414441 -0.54827346354635
 7  1.50769845254525  1.79091146994699 -0.39857151925193
 7 -3.53697064006401 -3.22713175997600  0.53999247054705
 7 -0.72414381728173  2.93513393159316 -0.18391341524152
 6  0.67207844024402 -2.48955439373937 -1.36962904600460
 6  0.85613454725473 -1.15956590769077 -0.87239979527953
 6 -0.76585091019102 -2.65633952335234 -1.31086128552855
 6 -1.27166927312731 -1.51350499239924 -0.74750621652165
 6  3.84152209350935  1.46164064936494 -0.31926814321432
 6  2.48100879387939  0.73165449724972 -0.51815337393739
 6  2.21823882818282 -0.54735088088809 -0.78341058605861
 6  3.60937477437744  2.75844385258526 -0.07036780968097
 6  1.74119527202720 -3.40687595339534 -1.94818501950195
 6 -5.64881421662166 -2.57131904150415  1.46451639163916
 6 -3.68275033793379 -1.91161622362236  0.07040082508251
 6  2.14273853405341  2.99887631583158 -0.16143362036204
 6 -5.07808400470047 -1.49488499169917  0.47852649154915
 6  5.16954543264326  0.66440611061106 -0.34947800420042
 6 -2.71317227942794 -1.13683045464546 -0.47086750115012
 6 -1.51999993769377 -3.75038954125413 -1.89336257995800
 6 -4.50116758355836 -3.72490099579958  1.32718183278328
 6  2.08135861186119 -4.55829804950495 -0.87618047384738
 6  5.50284016031603 -0.13800986488649  0.91608971507151
 6  4.55511129732973  3.86500773207321  0.27310949474947
 6  1.34528576997700  4.11095550305031  0.12979309880988
 6 -6.98382951355136 -3.04394177397740  1.18735820192019
 6 -5.85727432993299 -0.60520525042504 -0.13974544894489
 6 -0.00506549554955  4.11388606020602  0.12977160276028
 6 -1.00338129982998  5.24811590459046  0.53083771237124
 6 -2.18487381358136  4.63782990579058  0.27147855075508
 6  2.96110895219522 -4.12753937303730  0.21912331133113
 6 -5.58431309210921  0.47306253485349 -1.21598266526653
 6  6.92414498069807 -0.70812909700970  0.77397051965197
 6 -3.48002376167617  5.40140643884388  0.52281309640964
 6 -2.10369380568057  3.20229242054205 -0.06527560276028
 6 -0.55306944444444  6.62223609160916  0.97101219101910
 6 -4.17266580348035  5.72648105300530 -0.81631240694069
 1 -0.68169573447345  0.32459816541654 -0.21152170547055
 1  3.13660767536754 -1.21850385248525 -1.05554506310631
 1  2.50174142504250 -2.79455416231623 -2.43524595929593
 1  1.26008278757876 -4.16801871947195 -2.73338570507051
 1 -5.63927573377338 -2.18886727582758  2.42715487598760
 1  4.97018732893289  0.05650036653665 -1.21654480748075
 1  6.04499646524652  1.32769707900790 -0.58784008360836
 1 -2.99755785148515  0.02050654685469 -0.55768867446745
 1  0.46289262096210  1.91922310531053 -0.67392686478648
 1 -1.64421001220122 -4.73394549874988 -1.24900570627063
 1 -2.49831346104610 -3.56882458445845 -1.88214753495349
 1 -1.16169612071207 -4.19651782618262 -3.02419602260226
 1 -2.61992575037504 -3.65318146654666  0.34749199619962
 1  1.11608741544154 -5.02413489598960 -0.45644936243624
 1  2.67028621442144 -5.21980468896890 -1.37118163206321
 1  4.69596401740174 -0.91086713781378  1.07636822302230
 1  5.34523872347235  0.43806824342434  1.86695116581658
 1  4.48569608990899  4.81906237363736 -0.23599358205821
 1  5.64405102790279  3.46730945014501  0.05823234643464
 1  4.76567598499850  4.17552306040604  1.31579288318832
 1  1.93934976697670  5.13404333393339  0.31038082498250
 1 -7.80234300590059 -2.51337733223322  1.01413610761076
 1 -7.32298794309431 -3.89134690059006  1.95662803070307
 1 -7.01694987898790 -3.50134789828983  0.12713430263026
 1 -6.95140248194819 -0.40777110841084  0.26830875877588
 1 -5.03394823662366  1.23797799469947 -0.73479732783278
 1 -6.55533736343634  0.78372600090009 -1.90969764826483
 1 -4.62646114161416  0.14499134533453 -1.90132134483448
 1 -3.41149102840284  6.25834849064906  1.04191189518952
 1 -4.22968064556456  4.83438257045705  1.04796693449345
 1  0.00204476977698  6.59925188508851  1.86221895439544
 1 -1.37502888618862  7.28223491899190  0.97906716311631
 1  0.15583477107711  6.98929743024302  0.09189552375238
 1 -3.73484378017802  6.54355023812381 -1.44405222132213
 1 -5.09856167926793  6.31382412341234 -0.60960610231023
 1 -4.51684620572057  4.84310580288029 -1.44894463286329
 1  3.38093339983998 -4.52834706490649  2.01087972497250
 1  8.13897114181418 -1.72198285058506  1.90889105170517

