%nproc=4
%Mem=4GB
# td=(NStates=1) B3LYP/SVP 

TD

0 1
 8 -4.63453357415742 -4.82647272847285  1.84348971257126
 8  2.99185978407841 -4.85923047224722  1.33779171097110
 8  7.05354573597360 -1.45786332743274  1.71095131563156
 8  3.67227896069607 -3.01080020522052  0.30667352575258
 8  7.60640939293929 -0.49972135143514 -0.23847341664166
 8 -3.04888521732173  2.50514791229123 -0.14892979757976
 7 -0.23087746944694 -0.62244159395940 -0.62729136533653
 7  1.52570025272527  1.75528790759076 -0.39217087918792
 7 -3.46049299229923 -3.29196824362436  0.65023349464947
 7 -0.74259566246625  2.87808822702270 -0.06960198409841
 6  0.70186141854185 -2.50434587288729 -1.44680676377638
 6  1.00255918971897 -1.19584953605361 -0.97987054235424
 6 -0.74371869696970 -2.73720761016102 -1.24287448684868
 6 -1.23996610281028 -1.55016865876588 -0.69235070097010
 6  3.80930887218722  1.35397988328833 -0.35736195259526
 6  2.48630932393239  0.82212354415442 -0.64307586618662
 6  2.25201220552055 -0.51492763856386 -0.89822206720672
 6  3.57750158705871  2.71254926312631 -0.00150092299230
 6  1.70004115661566 -3.61937720352035 -1.89060926192619
 6 -5.60982031723172 -2.68824073367337  1.30711065106511
 6 -3.66026808970897 -1.84268933093309  0.15467925292529
 6  2.06357061726173  3.00788721692169 -0.00530800780078
 6 -5.10167636393639 -1.53136864006401  0.39084772367237
 6  5.11782026012601  0.70369003900390 -0.46119917631763
 6 -2.63330429262926 -1.17767453905391 -0.36128654305431
 6 -1.51655959365937 -3.88997349964996 -1.73320656435644
 6 -4.56208367516752 -3.75126363206321  1.35718483308331
 6  2.00173064906491 -4.56226844654465 -0.86494935073507
 6  5.41990186648665  0.00780471657166  0.76910501660166
 6  4.63999978617862  3.70071130243024  0.41687387118712
 6  1.33935517691769  4.09779418691869  0.28143826332633
 6 -7.13031416201620 -3.16010339013901  0.91050051615162
 6 -5.79322792529253 -0.57486221612161 -0.11961343574357
 6 -0.05130011901190  4.15661033263326  0.20691931753175
 6 -0.93667462916292  5.19152024502450  0.41787641624162
 6 -2.21107643384338  4.72864898769877  0.26805820872087
 6  2.89193203450345 -3.98016463556356  0.30746214521452
 6 -5.38468312911291  0.45709093769377 -1.17506857385739
 6  6.80720328652865 -0.60888917301730  0.63508663126313
 6 -3.50376613591359  5.46228252645265  0.47104791989199
 6 -2.10701413771377  3.22642483378338  0.09788071287129
 6 -0.43286742424242  6.59549341734173  0.80362545234523
 6 -4.14936347324733  5.98383678857886 -0.86703747944794
 1 -0.35350291519152  0.26588229382938 -0.17748830213021
 1  3.18699271387139 -1.25557755985599 -0.74701421002100
 1  2.72857410831083 -3.14492919981998 -2.23147558225823
 1  1.44481126042604 -3.95629754735474 -2.96952931943194
 1 -5.64594640084008 -2.18411680078008  2.23071523202320
 1  5.24495480568057  0.14934965146515 -1.43434658765877
 1  5.83542550815082  1.62587689698970 -0.72270356995700
 1 -2.87362545824582 -0.10677618141814 -0.76834974057406
 1  0.41231756345635  1.72552373537354 -0.59445891799180
 1 -1.51414700590059 -4.82539464366437 -1.18487929362936
 1 -2.58526215591559 -3.73505120712071 -1.81274059425943
 1 -1.05992594369437 -4.37626580098010 -2.79493309630963
 1 -2.64226798459846 -3.83027917631763  0.23026027302730
 1  1.01360716741674 -4.96410889338934 -0.43606732423242
 1  2.47601678747875 -5.58557126562656 -1.19180369426943
 1  4.70612503350335 -0.81789784088409  0.94663524972497
 1  5.39399359895990  0.51531596819682  1.70124459515952
 1  4.38199571987199  4.50574104150415 -0.24578456115612
 1  5.61324794759476  3.23603632283228  0.21159768296830
 1  4.71890130753075  3.95462097019702  1.50650195409541
 1  1.95061089308931  5.11889181878188  0.65586537343734
 1 -7.73618639023902 -2.29136513101310  1.24504919891989
 1 -7.53062870717072 -4.25191295719572  1.28988135603560
 1 -7.39159734373437 -3.31676944044404 -0.22632104290429
 1 -6.83330067176718 -0.39239957125713  0.08445037293729
 1 -4.60275511731173  1.16966116301630 -0.92466631473147
 1 -6.26869869956996  1.04502213051305 -1.63938061656166
 1 -4.77333582908291 -0.10340349414941 -1.78190940364036
 1 -3.18771865116512  6.27954060986099  1.15269297329733
 1 -4.08189586708671  4.80746987918792  1.00440257805781
 1 -0.32586802150215  6.58929088898890  2.04791752425242
 1 -1.42762414571457  7.30989768526853  0.68273753015302
 1  0.81042022962296  6.90140864136414  0.32453878807881
 1 -3.54211450725073  6.90742662576258 -1.35819363546355
 1 -5.34163598669867  6.20530327132713 -0.69321446314631
 1 -4.31134565566557  5.25114660696070 -1.59412915131513
 1  3.79974528102810 -4.51301553175317  1.89768840584058
 1  8.04088133283328 -1.90075072737274  1.77804796739674

