%nproc=4
%Mem=4GB
# td=(NStates=1) B3LYP/SVP 

TD

0 1
 8 -4.44429455025503 -4.55820590179018  2.07346270987099
 8  2.98800939903990 -4.86655120432043  1.23817174897490
 8  7.02055243664366 -1.66136367746775  1.83902412291229
 8  3.80593232603260 -3.19943906910691  0.03822668106811
 8  7.65272402440244 -0.37625900520052 -0.01904147344734
 8 -3.01384171297130  2.39604700220022 -0.10296520112011
 7 -0.24190857255726 -0.49855920572057 -0.67864650085008
 7  1.49162684538454  1.80025240404040 -0.47262892499250
 7 -3.48870581358136 -3.11465051185119  0.54917338863886
 7 -0.74074547744774  2.90102052025203  0.00488546464646
 6  0.69909114151415 -2.49699513781378 -1.43811589468947
 6  1.02285121892189 -1.17503745484548 -0.97629018431843
 6 -0.78395272037204 -2.64015790519052 -1.46762696209621
 6 -1.31514362056206 -1.53405704760476 -0.85101656755676
 6  3.79247718901890  1.39370385568557 -0.42519873627363
 6  2.46151684468447  0.75872720452045 -0.65302686128613
 6  2.19425642994299 -0.51080722652265 -1.00880312531253
 6  3.57503134003400  2.70238824702470 -0.06023679657966
 6  1.65003615611561 -3.52914818061806 -1.92426262726273
 6 -5.57558689388939 -2.43699560916092  1.37212715271527
 6 -3.60515257815782 -1.79287434943494  0.14895868086809
 6  2.14821908210821  2.90801722992299 -0.01389886688669
 6 -5.06620281658166 -1.45917142034203  0.33045168406841
 6  5.10596907500750  0.56202587258726 -0.51074413081308
 6 -2.67009797199720 -1.13479025062506 -0.41328174257426
 6 -1.43477141484148 -3.87049155145515 -1.73461670537054
 6 -4.44552201900190 -3.56730523622362  1.40927004160416
 6  2.04727520352035 -4.54300652035204 -0.85696855265527
 6  5.43731360766077 -0.13364942884288  0.96880498659866
 6  4.57483326952695  3.71709294059406  0.47973015681568
 6  1.37705894729473  4.01360576807681  0.17104722422242
 6 -7.02085321592159 -2.99767714751475  1.22502196829683
 6 -5.80033863636364 -0.48924365426543 -0.22562403680368
 6 -0.12700768976898  4.09867453905391  0.19004763036304
 6 -1.01869283098310  5.15014610761076  0.51421605020502
 6 -2.30988631483148  4.68909503230323  0.26090749364936
 6  3.01700454175418 -4.07442406150615  0.16287768676868
 6 -5.43875853665367  0.39648487708771 -1.37688875587559
 6  6.89932249844985 -0.67296558065807  0.88081120372037
 6 -3.57233299259926  5.36256255445545  0.49042985808581
 6 -2.16081951825183  3.27096928822882 -0.03191226642664
 6 -0.61007514501450  6.51884575257526  0.93427851765177
 6 -4.35423396029603  5.66742514741474 -0.86616739243924
 1 -0.60388795369537  0.23133883948395 -0.13085363866387
 1  3.03985800040004 -1.20264226632663 -1.06371588018802
 1  2.61919317021702 -2.99421412831283 -2.19497193189319
 1  1.39914669396940 -4.10171208880888 -2.78008037453745
 1 -5.59886169236924 -1.94800318941894  2.46581874237424
 1  5.03143345354535 -0.45068035153515 -1.13244639763976
 1  6.18214017961796  1.09154346364636 -0.84209550915091
 1 -2.96678477417742 -0.10522602640264 -0.72468537413741
 1  0.49739607130713  2.03726490949095 -0.71682115421542
 1 -1.19833542474247 -4.77718982318232 -1.19487029272927
 1 -2.58686231593159 -3.73883158515852 -1.47197651785179
 1 -1.43994394549455 -4.17846602100210 -2.90704430743074
 1 -2.56629038683868 -3.71563771217122  0.41618886588659
 1  1.31477728442844 -5.14277676017602 -0.44246796429643
 1  2.57880706650665 -5.32552526102610 -1.37130164406441
 1  4.93975839683968 -1.15548159925993  0.85507609380938
 1  5.23481768136814  0.48289272587259  1.85711018171817
 1  4.57043456375638  4.80005047244725  0.22344236153615
 1  5.59889651245124  3.42664538373837  0.38280480368037
 1  4.42206162356236  3.77464297239724  1.76136744064406
 1  1.68208404040404  5.12528245784578  0.44915470237024
 1 -7.75422819441944 -2.32558855335534  1.26704139813981
 1 -7.08287393169317 -3.70928869476948  1.95765813371337
 1 -7.11338952295230 -3.47564532803280  0.22545413461346
 1 -6.80296763846385 -0.41770210151015  0.43510543844384
 1 -4.78639348114811  1.32083628052805 -1.11631547964796
 1 -6.18246007570757  0.70871850015002 -2.02194887338734
 1 -4.75912440794079 -0.11972512631263 -1.98188940164016
 1 -3.40143002230223  6.34707736353635  0.98823652765276
 1 -4.08236591409141  4.78647777997800  1.23215535333533
 1 -0.34397983268327  6.51816377627763  2.15806853935394
 1 -1.46294767806781  7.31842853835384  0.74152340874087
 1  0.43604279187919  6.90669917041704  0.41366770097010
 1 -3.52076237203720  6.27049293239324 -1.27704552065207
 1 -5.18049987308731  6.02793553455346 -0.50024516621662
 1 -4.63989851095109  4.77220871317132 -1.64569430783078
 1  3.76826213271327 -4.52958718891889  1.82903154015402
 1  7.87338458315832 -2.15653630593059  1.74986514911491

