%nproc=4
%Mem=4GB
# td=(NStates=1) B3LYP/SVP 

TD

0 1
 8 -4.57304742554255 -4.67289737093709  1.93312867646765
 8  2.91466206430643 -4.88543309250925  1.37860579237924
 8  7.19374975637564 -1.40020756185619  1.73279349984999
 8  3.66458819161916 -3.26804592979298  0.11184404280428
 8  7.61741049304930 -0.59239061836184 -0.22251182048205
 8 -3.09228955775578  2.47645504300430 -0.24614951955196
 7 -0.24923930563056 -0.60185953575358 -0.67295593179318
 7  1.55859354205421  1.78330070887089 -0.31705336743674
 7 -3.43256019901990 -3.21381042784278  0.69359783108311
 7 -0.79705110801080  2.96346676487649 -0.26482150605060
 6  0.68765999839984 -2.40079551785179 -1.29562164526453
 6  0.97524645844584 -1.16204615571557 -0.93069562486249
 6 -0.70970529562956 -2.58189207860786 -1.28625882528253
 6 -1.27283939013901 -1.48481212311231 -0.73815528142814
 6  3.76030397169717  1.36444092939294 -0.39230544694469
 6  2.47957865086509  0.79664099589959 -0.59773133173317
 6  2.17726473077308 -0.47532367816782 -0.88708095309531
 6  3.61615545244524  2.66825483368337  0.03435266236624
 6  1.68824997749775 -3.49869513531353 -1.80485068606861
 6 -5.63252258745875 -2.58132004160416  1.29253919391939
 6 -3.58570063296330 -1.85030009200920  0.21333511851185
 6  2.16154041424142  2.96799322752275  0.00178270127013
 6 -5.01343754005400 -1.46229173237324  0.37312595149515
 6  5.12232071017102  0.67237690769077 -0.44720777717772
 6 -2.62768373057306 -1.07837460906091 -0.40705111951195
 6 -1.59473741144114 -3.78744324662466 -1.79596283998400
 6 -4.54350181698170 -3.63376188188819  1.34376349094909
 6  1.97932840884088 -4.60105232493249 -0.75223807960796
 6  5.48547842414241 -0.05220128402840  0.81338944504450
 6  4.66510229642964  3.69772100340034  0.47909009280928
 6  1.41744298569857  4.09692409990999  0.17365748524852
 6 -6.98187931853185 -3.16464384418442  0.90468993509351
 6 -5.69655825832583 -0.55140987088709 -0.23397487188719
 6 -0.07143213221322  4.07229190079008  0.05215384098410
 6 -1.04800576227623  5.23417451045105  0.37166179477948
 6 -2.24775010121012  4.66968309110911  0.24046544944494
 6  2.97902074337434 -4.13264988408841  0.27367876687669
 6 -5.32996765756576  0.40259548814881 -1.37263833083308
 6  6.86532909910991 -0.68538682278228  0.66779990259026
 6 -3.60718647794779  5.36757305550555  0.56986780188019
 6 -2.12947638393839  3.28125031633163 -0.10993006820682
 6 -0.52713685118512  6.49119298729873  0.97791288108811
 6 -4.36115465236524  5.79399780468047 -0.64519529522952
 1 -0.38772633753375  0.22986869246925  0.09077852455246
 1  2.99575358995900 -1.07434943704370 -0.79660916951695
 1  2.71497274817482 -3.04535924282428 -1.88713114781478
 1  1.25507228652865 -4.00226214381438 -2.85706807330733
 1 -5.60609241544154 -2.37335572467247  2.35035719621962
 1  5.18546885708571 -0.05790107360736 -1.24815796879688
 1  5.86690865646565  1.52202651195119 -0.83833513311331
 1 -3.13684177987799 -0.05736123992399 -0.32507541314131
 1  0.58148448014801  1.74139532253225 -0.64653412551255
 1 -1.57919351055106 -4.62041414561456 -0.97196800250025
 1 -2.67391102080208 -3.65996369836984 -1.80724004420442
 1 -1.33439339043904 -4.18976715111511 -2.87722132513251
 1 -2.61464522232223 -3.99182533093309  0.65266251325133
 1  1.05168097479748 -5.03107559005901 -0.38240195769577
 1  2.38868805460546 -5.64099680818082 -1.16775128902890
 1  4.82030645164516 -0.88953500460046  1.19284987118712
 1  5.60763496309631  0.80018445504550  1.56884135483548
 1  4.53904142444244  4.64670513791379 -0.01385136783678
 1  5.69438606140614  3.41984470367037  0.37952447564756
 1  4.60310972837284  3.92296780488049  1.48161946584658
 1  1.88812464446445  4.88075800540054  0.53341312821282
 1 -7.74829760136014 -2.39551554605461  1.08498319231923
 1 -7.29745538983898 -4.09107687358736  1.48794116201620
 1 -7.03251143514351 -3.32136990049005 -0.26095450625063
 1 -6.64770211191119 -0.25901623292329  0.29964189208921
 1 -4.99268411021102  1.20689488638864 -0.68118196629663
 1 -6.24253608330833  0.50169779807981 -1.89805648414841
 1 -4.42401089658966  0.10227707390739 -2.00057126982698
 1 -3.26029590889089  6.19981263706371  1.18949665366537
 1 -4.32181985948595  4.76124525672567  1.24228636643664
 1  0.10756532183218  6.36736869676968  1.96454918741874
 1 -1.36942832613261  7.16436313181318  1.16205546194619
 1  0.14564375197520  7.29852835333533  0.41508784298430
 1 -3.68895919171917  6.41170705380538 -1.35604342044204
 1 -5.39673149624962  6.40986372737274 -0.35237037873787
 1 -4.47742226332633  4.71963345564556 -1.00084982338234
 1  3.79748505500550 -4.60220445064506  1.73819245624562
 1  8.04682192689269 -1.78938959125913  1.52543270587059

