%nproc=4
%Mem=4GB
# td=(NStates=1) B3LYP/SVP 

TD

0 1
 8 -4.55248536933693 -4.70100018121812  1.92999836343634
 8  2.97816841494149 -4.77859240844084  1.28702663446345
 8  6.96643702510251 -1.56809435053505  1.76998721922192
 8  3.73536526932693 -3.10952007720772  0.10237309570957
 8  7.70353910591059 -0.61591297059706 -0.06622619191919
 8 -3.03978430723072  2.53598099559956 -0.24936984158416
 7 -0.29933431513151 -0.61088043784378 -0.68738737493749
 7  1.55156283898390  1.86604898369837 -0.36453811591159
 7 -3.39797674067407 -3.11587063386339  0.66959543084308
 7 -0.72614401730173  2.97591801000100 -0.26867189108911
 6  0.67074830723072 -2.52711815011501 -1.28308039113911
 6  0.95725465926593 -1.21280123122312 -0.92534508980898
 6 -0.81630595569557 -2.69189307870787 -1.19217941734173
 6 -1.28512061826183 -1.48182182408241 -0.72766423232323
 6  3.77406534783478  1.43119760506051 -0.35550176657666
 6  2.42075276827683  0.83188452025202 -0.57012857145715
 6  2.20434743904390 -0.56161230703070 -0.87844008900890
 6  3.53499733663366  2.79141714991499 -0.00864163706371
 6  1.69616076857686 -3.46270153595360 -1.88292849384939
 6 -5.65415475067507 -2.57351926152615  1.31003094309431
 6 -3.62387445034503 -1.87076213821382  0.06356014101410
 6  2.14364862506251  3.01902833103310 -0.16391386838684
 6 -5.06227242354235 -1.56842234543454  0.25212385128513
 6  5.07739621772177  0.64829449944995 -0.46587964436444
 6 -2.71256221842184 -1.08542531413141 -0.54969538393839
 6 -1.53601153885389 -3.92962746504650 -1.56944018771877
 6 -4.49547701450145 -3.67851635733573  1.37370648524853
 6  2.09260973697370 -4.59816203590359 -0.87943079887989
 6  5.46865674197420 -0.14102016591659  0.88612671877188
 6  4.61104689088909  3.70070130143014  0.31949413321332
 6  1.36591783318332  4.21037544504450  0.14717483698370
 6 -6.89734086468647 -3.22436981678168  1.03762322842284
 6 -5.84938354085409 -0.60380511041104 -0.32926440084008
 6  0.02495750675068  4.13707837943794  0.06261488708871
 6 -0.97922888458846  5.14789588258826  0.47994262286229
 6 -2.28190351655166  4.76878300110011  0.43782518541854
 6  3.04406724802480 -4.11582820192019  0.23965536453645
 6 -5.46703136393639  0.40061529012901 -1.35481654865487
 6  6.78097066326633 -0.78525680978098  0.78392151475147
 6 -3.58559431873187  5.50809710791079  0.76399721482148
 6 -2.03772720902090  3.25535772707271 -0.11421049624963
 6 -0.48078221572157  6.52219608760876  0.85285037483748
 6 -4.25805434233423  5.75893429832983 -0.58951972767277
 1 -0.60537810271027  0.27773347894789 -0.06195674897490
 1  3.07694170877088 -1.26124812691269 -0.92246175477548
 1  2.74963621452145 -2.82202690959096 -2.25977841254125
 1  1.30590737003700 -3.96924884248425 -2.82563492999300
 1 -5.80712251845184 -2.12958134723472  2.22897505800580
 1  5.01430174037404  0.13494821132113 -1.36809996299630
 1  5.92708467406741  1.53226753605360 -0.46319761936194
 1 -2.95146324202420 -0.02812831663166 -0.61478438403840
 1  0.52461879357936  1.89680086308631 -0.27015648774878
 1 -1.60598618981898 -4.80317242144214 -0.80459126482648
 1 -2.50750438013801 -3.59287698969897 -1.90160948114811
 1 -0.94181413251325 -4.45666384078408 -2.28585218821882
 1 -2.50861461926193 -3.74542069046905  0.66653390039004
 1  1.11195700240024 -4.85679816231623 -0.46124984248425
 1  2.68819800560056 -5.30415312381238 -1.62503701760176
 1  4.79839426042604 -1.15589164026403  0.97572815901590
 1  5.27556175577558  0.40932536913691  1.82038650935093
 1  4.85601312161216  4.78029849724973 -0.21889187188719
 1  5.64508113091309  3.22809552875288  0.16833335653565
 1  4.40284970237024  4.17618312641264  1.28455975987599
 1  1.90196602860286  5.25507543714371  0.25254504140414
 1 -7.67018979057906 -2.40513650815081  0.97280197419742
 1 -7.11013665796580 -3.82751051695169  1.92415478337834
 1 -7.17254543854385 -3.95566332983298  0.02198378757876
 1 -6.88108545024502 -0.69425975727573  0.26917884578458
 1 -4.88590343214321  1.27802199909991 -0.99235308340834
 1 -6.26507833753375  0.76155378367837 -1.98983566206621
 1 -4.75296379187919 -0.15969912371237 -2.04530574327433
 1 -3.52574245354535  6.54332698849885  1.32156986098610
 1 -4.21451912941294  4.56977610981098  1.27386952475248
 1  0.30564512981298  6.53997595749575  1.60653338583858
 1 -1.32841422472247  7.25185188068807  1.19782903930393
 1 -0.09694050645065  6.95553405390539 -0.09422308810881
 1 -3.70893118891889  6.49978586168617 -1.13265108120812
 1 -5.30116193929393  6.20218295929593 -0.34547968966897
 1 -4.59067358845884  4.87869936223622 -1.09633937233723
 1  3.63258856535654 -4.72386661686169  2.00948958595860
 1  7.92222946764676 -1.78185883818382  1.71026118871887

