%nproc=4
%Mem=4GB
# td=(NStates=1) B3LYP/SVP 

TD

0 1
 8 -4.56481660246025 -4.77232731393139  1.78766413001300
 8  3.01449204730473 -4.73526807600760  1.32985091689169
 8  6.97407778917892 -1.52614015511551  1.82672289278928
 8  3.59617134993499 -3.02855198039804  0.06901976037604
 8  7.73635238723872 -0.63252463176318 -0.04739430873087
 8 -2.90364069286929  2.40455785328533 -0.12421732633263
 7 -0.26203058475848 -0.60597994779478 -0.57842647884788
 7  1.50987867056706  1.74212659145915 -0.38754041614161
 7 -3.42267921092109 -3.18051709850985  0.51920039133913
 7 -0.65939734263426  2.94264468266827 -0.09161418531853
 6  0.61724295669567 -2.50337577587759 -1.31061314441444
 6  0.91185011881188 -1.21156110721072 -0.98984153945395
 6 -0.78388271337134 -2.78950283968397 -1.20387058645865
 6 -1.33583568976898 -1.42331597349735 -0.75741720762076
 6  3.73436137743774  1.27334181948195 -0.36169238563856
 6  2.45709640264026  0.76757808960896 -0.47747930653065
 6  2.23326033033303 -0.58037418321832 -0.84597684268427
 6  3.55087892479248  2.64481248944894 -0.03609438233823
 6  1.65325647814781 -3.47838310411041 -1.85651585258526
 6 -5.53139247444745 -2.68765067466747  1.21955189518952
 6 -3.62011407430743 -1.87574263626363  0.06891067606761
 6  2.10900516071607  2.94880130833083 -0.04543202020202
 6 -5.07214341064106 -1.58836433963396  0.40612925182518
 6  5.17434591269127  0.67051672167217 -0.53812686908691
 6 -2.66910787298730 -1.00074684628463 -0.38058847324732
 6 -1.50861879957996 -3.98808331063106 -1.74220746444644
 6 -4.45844331113111 -3.66239474517452  1.20387950255025
 6  1.89804028002800 -4.52247446714671 -0.77865072087209
 6  5.54998487478748 -0.00682674657466  0.77549565566557
 6  4.61824761096110  3.78938016931693  0.15231741554155
 6  1.38360960236024  4.10706511401140  0.19441956145615
 6 -7.01285241584158 -3.21728910871087  0.98682814891489
 6 -5.76824542704270 -0.47977270717072 -0.05563703810381
 6 -0.02473746274627  4.08897356895690  0.18859748534853
 6 -0.96590755245525  5.26749784278428  0.45639026762676
 6 -2.25491081728173  4.77342346514651  0.33919532243224
 6  2.93384622592259 -3.98750536963696  0.18709010801080
 6 -5.40216487728773  0.56531175977598 -1.04226529352935
 6  6.84063662986299 -0.63973225732573  0.85482860546055
 6 -3.59089484878488  5.37471376957696  0.49374018911891
 6 -2.05750918721872  3.30011220252025 -0.00369944514451
 6 -0.47950208770877  6.62918678667867  0.89366445624562
 6 -4.33969250615062  5.65577398229823 -0.87329810551055
 1 -0.38819638453845  0.56445215081508 -0.21848240154015
 1  2.99728374297430 -1.27956995909591 -1.17681719031903
 1  2.53656490739074 -3.02114682158216 -2.04805724042404
 1  1.24636141544154 -3.94629654725472 -2.74634700120012
 1 -5.45042684888489 -2.28217660676068  2.20672283278328
 1  5.17494780498050  0.04547926442644 -1.45758891189119
 1  5.88285025062506  1.37352166146615 -0.77639893949395
 1 -2.89318741444144  0.06234073027303 -0.65837874347435
 1  0.41471780348035  1.99327051005101 -0.51153062516252
 1 -1.60422601380138 -4.83042514671467 -0.93973477917792
 1 -2.53439706940694 -3.60227792979298 -1.87956727692769
 1 -1.17002695379538 -4.37656583098310 -2.72129573257326
 1 -2.46564032183218 -3.65070121852185  0.47538478547855
 1  1.04679048574858 -4.82847533003300 -0.23915763326333
 1  2.32562174797480 -5.25472818131813 -1.19057357125713
 1  4.57526194719472 -0.54801085218522  1.01461204740474
 1  5.34778897849785  1.02039647624762  1.57239170987099
 1  4.21770929122912  4.60644111151115 -0.39102908560856
 1  5.76627325012501  3.53971669086909 -0.17707118391839
 1  4.78036745414541  3.93671918001800  1.32260356425643
 1  1.98319415141514  4.98817874747475  0.56433622052205
 1 -7.84975774737474 -2.53027902240224  1.12514720872087
 1 -7.32789843414341 -4.02826059195919  1.66993936183618
 1 -7.20618880288029 -3.51287905140514 -0.15448385918592
 1 -7.04355169686969 -0.50291062236224  0.08707063496350
 1 -4.87433227502750  1.43635783268327 -0.74568841694169
 1 -6.31417324702470  1.22097972627263 -1.46820349884989
 1 -4.68548704420442  0.37938478467847 -1.96876808950895
 1 -3.42658253755376  6.44310696649665  0.96332403640364
 1 -4.21746942444244  4.82393152535254  1.28324046184619
 1  0.31959652495250  6.58039999989999  1.83297603010301
 1 -1.25355673897390  7.33597029252925  1.26311556795680
 1  0.23395258285829  6.70858935943594 -0.05485915171517
 1 -3.72248254405441  6.30229611271127 -1.54846266236624
 1 -5.44209603270327  5.94337707870787 -0.68223336503650
 1 -4.36245076617662  4.56729822212221 -1.33083282168217
 1  3.82186749324933 -4.44677890809081  1.78159679667967
 1  7.86410365506551 -1.76207685998600  1.64599476207621

