%nproc=4
%Mem=4GB
# td=(NStates=1) B3LYP/SVP 

TD

0 1
 8 -4.44211433223322 -4.71610169136914  1.90906627022702
 8  2.83299389748975 -4.83184773397340  1.35195312711271
 8  7.11222160356036 -1.42605014611461  1.80836105660566
 8  3.51456318911891 -2.97534665986599  0.37538039643964
 8  7.62821157315732 -0.63851523082308 -0.22537210651065
 8 -2.81168149694969  2.36174357185719 -0.17688259285929
 7 -0.22904728642864 -0.49170852065207 -0.58457709390939
 7  1.51080876357636  1.82221460026003 -0.40645230733073
 7 -3.40010695369537 -3.17600664746475  0.57853632493249
 7 -0.72555395829583  2.99338975717572 -0.23526855075508
 6  0.58930016241624 -2.33967940624062 -1.41932401550155
 6  0.95018395219522 -1.03528347944794 -0.96986954225423
 6 -0.76143046814681 -2.63351724112411 -1.26561676107611
 6 -1.28796090229023 -1.38211185308531 -0.76463792969297
 6  3.82066000730073  1.38999348464846 -0.31016723312331
 6  2.55763645664566  0.78161949374938 -0.56007756635664
 6  2.16717372167217 -0.47982412821282 -0.88997124212421
 6  3.64142797969797  2.68979698789879 -0.00027079998000
 6  1.52768392089209 -3.43908917471747 -1.82951315231523
 6 -5.63207254245425 -2.68856076567657  1.32796273627363
 6 -3.64085614851485 -1.85856091809181  0.12529631463146
 6  2.12281654185419  2.96944337253725 -0.07342481948195
 6 -5.10733692999300 -1.62956846004600  0.27590622952295
 6  5.13650212831283  0.65801547154715 -0.48554161056106
 6 -2.71235219741974 -1.05991276287629 -0.50462087648765
 6 -1.46119405710571 -3.74707921022102 -1.79884312801280
 6 -4.44961242804280 -3.70310881658166  1.33423253785379
 6  1.82856333233323 -4.50802302200220 -0.76597945374537
 6  5.47177705400540 -0.21190725462546  0.68994710081008
 6  4.62991877807781  3.82824405570557  0.37359954375438
 6  1.40604184558456  4.13107751525153  0.20886100560056
 6 -6.98390952155215 -3.27365474527453  0.93535300140014
 6 -5.84205280778078 -0.65189991989199 -0.18342981738174
 6  0.03456846784678  4.06387105870587  0.09944857045705
 6 -0.93321428312831  5.16201729472947  0.58994362296230
 6 -2.23868919511951  4.67538366116612  0.49447084998500
 6  2.85874871617162 -4.01215783488349  0.31457285628563
 6 -5.42034669546955  0.44316954555456 -1.26625769276928
 6  6.86606917311731 -0.71761004510451  0.74589771237124
 6 -3.55299105840584  5.26062236043604  0.50158097319732
 6 -2.00073350965096  3.20220241154115  0.01066199099910
 6 -0.52560669816982  6.49261312931293  0.77772286208621
 6 -4.24118265516552  5.62391079597960 -0.69517029272927
 1 -0.62190975587559  0.57369307490749 -0.48362891619162
 1  2.95077909250925 -1.17599960206021 -1.18677818641864
 1  2.62522377327733 -3.06191089798980 -2.25126756145615
 1  0.95314209350935 -4.00508242584258 -2.68636100260026
 1 -5.60118192439244 -2.12543093219322  2.29155131563156
 1  5.10109041924192  0.02293701020102 -1.33240639363936
 1  5.96080804640464  1.50379468876888 -0.64303560316032
 1 -2.91729982568257  0.07906240244024 -0.52379528512851
 1  0.48796512821282  1.77542872587259 -0.43399287138714
 1 -1.61960755195519 -4.65335743994399 -1.11904270997100
 1 -2.65345897559756 -3.65634333633363 -1.85777509770977
 1 -1.13162311341134 -4.12422059645965 -2.73478708170817
 1 -2.55847960576058 -3.50662681108111  0.78221546854685
 1  0.99077488418842 -5.01917439993999 -0.23775749324932
 1  2.45014420022002 -5.18990169866987 -1.32941745564556
 1  4.84687910891089 -1.01824787588759  0.69322990919092
 1  5.20673487308731  0.34810924752475  1.63930840154015
 1  4.39570709100910  4.86579704710471 -0.20983096579658
 1  5.54611123392339  3.29892261146115 -0.23153663046305
 1  5.06464588198820  4.00223573167317  1.59048035193519
 1  2.02216804880488  5.04313424302430  0.30670045694569
 1 -7.85124789638964 -2.48419441394139  1.04289898389839
 1 -7.14888053235324 -4.05675344124412  1.68834120202020
 1 -7.12353053705371 -3.72730049354935 -0.13840225102510
 1 -6.90959830153015 -0.32540287158716  0.08108003590359
 1 -4.78580342214221  1.20163436033603 -0.70605445354535
 1 -6.35023685338534  0.97525515381538 -1.71611829032903
 1 -4.91763025852585 -0.02879603340334 -1.89794100680068
 1 -3.39333921322132  6.25120777657766  1.10853855785579
 1 -4.24499217671767  4.55294442664266  0.95253739153915
 1  0.25535010031003  6.80571253115312  1.52444517701770
 1 -1.42851423472347  7.05000169566957  1.11186044244424
 1 -0.10157096949695  6.75570407090709 -0.28174183998400
 1 -3.67823811961196  6.24409029212921 -1.55756357245725
 1 -5.22992481558156  6.07891063206321 -0.54170931263126
 1 -4.26474099519952  4.70162165446545 -1.35632537093709
 1  3.67816312281228 -4.71626585678568  1.96465510251025
 1  8.08547579227923 -1.55842649494950  1.66076623922392

