%nproc=4
%Mem=4GB
# td=(NStates=1) B3LYP/SVP 

TD

0 1
 8 -4.47461758255826 -4.67894797599760  1.86448181178118
 8  2.72676327442744 -4.74351890109011  1.31472940474047
 8  6.97013739513951 -1.63594113521352  1.89369959045905
 8  3.74931666446645 -3.14641376657666  0.04267712611261
 8  7.64701345334533 -0.38849022832283  0.00847127782778
 8 -2.97189751855186  2.48582598009801 -0.16305120972097
 7 -0.24901928362836 -0.53211256105611 -0.64807344354435
 7  1.54738242094209  1.80943332213221 -0.51441310341034
 7 -3.36288323132313 -3.09680872767277  0.66170464176418
 7 -0.66075747864786  2.94113453165317 -0.12725774967497
 6  0.61025225762576 -2.46897233553355 -1.31881396449645
 6  0.96680561436144 -1.14609456055606 -0.95835839113911
 6 -0.79729405450545 -2.66220010941094 -1.25862606200620
 6 -1.24157626382638 -1.42546618851885 -0.73131459735974
 6  3.79718766006601  1.41731621692169 -0.30243646004600
 6  2.53798449144914  0.88624995679568 -0.59652121072107
 6  2.18368537283728 -0.53655980178018 -0.84381662666267
 6  3.60082391929193  2.75246325452545 -0.11165193809381
 6  1.61616276877688 -3.45280054585459 -1.89058925992599
 6 -5.56638597379738 -2.63585549514952  1.37539747974797
 6 -3.56719878277828 -1.81287634963496  0.16975076007601
 6  2.15167942814281  2.96208263646365 -0.14323180018002
 6 -5.07165336163616 -1.53653915711571  0.34312295119512
 6  5.13282176027603  0.72348201820182 -0.30604366076608
 6 -2.65884684688469 -0.97544431603160 -0.50043045744574
 6 -1.49560749844985 -3.85758026032603 -1.76600984468447
 6 -4.37892535933593 -3.67488599429943  1.39730884548455
 6  2.00614109010901 -4.53016523622362 -0.86021887768777
 6  5.33872374867487 -0.37282334623462  0.77431553765377
 6  4.60729651585159  3.90025125642564  0.10764294809481
 6  1.37854909630963  4.15002941044104  0.01614173367337
 6 -7.06689782038204 -3.17898527832783  0.99877934403440
 6 -5.84996359885989 -0.65965069496950 -0.26785826022602
 6 -0.02197718671867  4.14205887748775  0.13265189078908
 6 -0.98466942864286  5.14380547354735  0.51075570417042
 6 -2.21418674487449  4.60426654945495  0.43852525542554
 6  2.96367920922092 -4.01972859195920  0.17033843284328
 6 -5.46633129392939  0.48118334693469 -1.21643271027103
 6  6.82476504270427 -0.79138742284228  0.84880800340034
 6 -3.59251501080108  5.17876417461746  0.52152296739674
 6 -2.07380081638164  3.29840203150315  0.06574749954996
 6 -0.48079221672167  6.52186605460546  0.94165925572557
 6 -4.24604314121412  5.61323972887289 -0.81600237593759
 1 -0.49949751465147  0.43378908450845 -0.16968752205221
 1  3.17125113971397 -1.29458146024602 -1.20840034863486
 1  2.34123537443744 -2.87965267216722 -2.25849828452845
 1  1.36344312361236 -3.94794671227123 -2.80343270977098
 1 -5.54304611081108 -2.24737312641264  2.37679984048405
 1  5.27717802800280  0.14178889538954 -1.11019417241724
 1  5.80254221982198  1.45634994429443 -0.35771707130713
 1 -2.99284738043804  0.07679217541754 -0.42200510611061
 1  0.59944627632763  1.79398058105811 -0.53487295939594
 1 -1.58923451465147 -4.72360446464646 -0.93056386208621
 1 -2.54940857055706 -3.60767846984698 -2.23628294849485
 1 -0.87687763886389 -4.58863703810381 -2.45495909890989
 1 -2.23848760656066 -3.46852300070007  0.64369161616162
 1  0.96910271697170 -4.93596607910791 -0.46416013351335
 1  2.60977016281628 -5.33138584708471 -1.34683919781978
 1  4.71429585058506 -1.47084313541354  0.10629121532153
 1  4.95862006160616 -0.08328389178918  1.90644511521152
 1  4.49553707400740  4.74362482988299 -0.37532751545155
 1  5.59957658045805  3.55055777497750 -0.02671614841484
 1  4.48950836823682  4.14382989108911  1.33407471137114
 1  1.82712854485449  5.11555148474848  0.45940572747275
 1 -7.68745151675168 -2.21482747724772  1.14696939093909
 1 -7.32026767106711 -4.18704647054705  1.68235060296030
 1 -7.27185536953695 -3.55595335883588  0.04077566676668
 1 -6.97185452715271 -0.68118845014501  0.08330025792579
 1 -5.33753859565957  1.43393759065907 -0.28124197229723
 1 -6.26731856155615  0.90431806010601 -1.78637531603160
 1 -4.52338083358336  0.28750559675968 -1.73542475517552
 1 -3.65487536683668  6.14946760256026  1.18932663666367
 1 -4.27244492199220  4.48943807600760  1.11610374817482
 1  0.37740230553055  6.26490845074507  1.70279301180118
 1 -1.16706809010901  7.27455415091509  1.24871412781278
 1  0.18271745934593  6.92121062156216  0.10907724192419
 1 -3.62534283008301  6.61065694879488 -1.26695451155116
 1 -5.35093691679168  5.83469621062106 -0.73823896559656
 1 -4.18879340044004  4.62349384168417 -1.34409414781478
 1  3.33699900640064 -4.51209543974397  2.14148278527853
 1  7.93354059875988 -1.67113776607661  1.78483864646465

