%nproc=4
%Mem=4GB
# td=(NStates=1) B3LYP/SVP 

TD

0 1
 8 -4.49828994979498 -4.74949503070307  1.82242760636064
 8  2.93777437553755 -4.67800234943494  1.25798373017302
 8  6.93674405580558 -1.65405294639464  1.70568078857886
 8  4.08430016281628 -3.14005313051305 -0.03893103470347
 8  7.48891764376438 -0.64009538883888 -0.20490005930593
 8 -2.92142247104710  2.38349574707471 -0.33050795539554
 7 -0.35320970267027 -0.52447179697970 -0.52489112531253
 7  1.54449213191319  1.82500487928793 -0.30134179627963
 7 -3.49794673767377 -3.13400244704470  0.53903237453745
 7 -0.66738814171417  2.94786520472047 -0.12566759065907
 6  0.69408064046405 -2.46473191149115 -1.27289937303730
 6  0.78328726252625 -1.07672762386239 -0.85431798709871
 6 -0.74789911501150 -2.59132302170217 -1.11225142454245
 6 -1.37156926312631 -1.48269191109111 -0.69817128302830
 6  3.77696563786379  1.52162664796480 -0.41478769516952
 6  2.48354904790479  0.81088242004200 -0.54570612921292
 6  2.12538954325433 -0.50106625242524 -0.77088933393339
 6  3.60742457935794  2.77084509270927 -0.06339711261126
 6  1.64087524002400 -3.51491675747575 -1.81504170517052
 6 -5.68576791199120 -2.66851876147615  1.34422436243624
 6 -3.74836689958996 -1.84162922492249  0.00613439843984
 6  2.18971323152315  2.95889231743174  0.09575209820982
 6 -5.12766896319632 -1.56709221242124  0.46787542644264
 6  5.09503798189819  0.65040471047105 -0.35958901530153
 6 -2.75261622382238 -1.00181695329533 -0.42763317771777
 6 -1.46929486718672 -3.85325982828283 -1.68128137183718
 6 -4.58375584238424 -3.70840934663466  1.30562967756776
 6  2.25298577457746 -4.46736895659566 -0.82583543934393
 6  5.37606748304830 -0.09846591049105  0.84917302340234
 6  4.54296008220822  3.96309754105411  0.25253743754375
 6  1.38158940034003  4.07056146364636  0.25163528302830
 6 -7.09465059565957 -3.20660804060406  1.05417488358836
 6 -5.86342494499450 -0.53099782968297 -0.09526100050005
 6 -0.01932692169217  4.04140881248125  0.29933855945595
 6 -0.95042600430043  5.18123921692169  0.57575220382038
 6 -2.17595292149215  4.65770189298930  0.30975237813781
 6  3.08302114341434 -3.93153977307731  0.23080447944794
 6 -5.37853251405140  0.36137136573657 -1.21678274527453
 6  6.70618318451845 -0.83372165626563  0.66306942954295
 6 -3.56922268156816  5.23338963716372  0.36173698879888
 6 -2.02163559985999  3.18051024232423 -0.02384145934593
 6 -0.43766790429043  6.51442531053105  0.93878896869687
 6 -4.04055259215922  5.79273767866787 -1.00350112581258
 1 -0.45035260016002  0.41743744934493  0.07014646134613
 1  3.02742675727573 -1.26895889798980 -0.88545805440544
 1  2.46626787768777 -2.87414212111211 -2.51339377407741
 1  0.94583136243624 -4.13435535313531 -2.54004637113711
 1 -5.85310711691169 -2.52267065616562  2.36826898739874
 1  4.83237354755475  0.10234495099510 -1.30133328632863
 1  5.78326029162916  1.27869217851785 -0.64747604720472
 1 -3.17283537923792 -0.11416692049205 -0.69414231983198
 1  0.50243657535754  1.81730291329133 -0.25147461956196
 1 -1.72870846204620 -4.59644174837484 -0.91168197389739
 1 -2.45943957365737 -3.48365606760676 -2.20635995619562
 1 -1.04691464256426 -4.32808098249825 -2.52277588058806
 1 -2.68823258105811 -3.78235438383838  0.59676692369237
 1  1.43436924362436 -5.32373485598560 -0.54400811831183
 1  3.00597978377838 -5.19360206870687 -1.24590910481048
 1  4.54376879787979 -0.72052810391039  1.01364195039504
 1  5.23158735833583  0.68117255385539  1.62757722842284
 1  4.19097661796180  4.89630009740974 -0.53894387708771
 1  5.61198782158216  3.61161388058806  0.12460898409841
 1  4.37039645704570  4.33262877097710  1.20702200610061
 1  1.88785461746175  4.89521945154515  0.78461824872487
 1 -7.98231100270027 -2.55962195669567  1.17088178217822
 1 -7.26565220952095 -4.06670443634363  1.69312168006801
 1 -7.33048123212321 -3.48444620812081 -0.05811422222222
 1 -6.84012135383538 -0.16859719101910  0.28158008590859
 1 -4.94849969176918  1.32609680658066 -0.88273212131213
 1 -6.39246107580758  0.68901652995300 -1.59198587708771
 1 -4.57614611011101 -0.00460361416142 -1.89141035373537
 1 -3.58608848814881  6.09564222002200  1.10664836883688
 1 -4.31693937143714  4.48119725192519  0.70311244904490
 1 -0.15018045274527  6.52239419931993  2.00442317481748
 1 -1.21663304660466  7.20039673517352  0.66482573897390
 1  0.45329451705171  6.75630413091309  0.16017235143514
 1 -3.20402069786979  6.31126700980098 -1.50391820792079
 1 -5.11086290939094  6.11275401640164 -0.89976511821182
 1 -3.96227074817482  4.84125561786179 -1.79544928332833
 1  3.56273157965797 -4.35936016621662  2.05407404440444
 1  7.79004624932493 -2.18742939523952  1.59295945854585

