%nproc=4
%Mem=4GB
# td=(NStates=1) B3LYP/SVP 

TD

0 1
 8 -4.58412853365337 -4.77861794299430  1.72660802440244
 8  3.00161075917592 -4.79199374857486  1.25187311911191
 8  6.96289667106711 -1.55634317541754  1.78138835933593
 8  3.78333006580658 -3.02595172037204  0.11596445484548
 8  7.45487423942394 -0.77840922022202 -0.24258382768277
 8 -2.94799512831283  2.42020941844184 -0.16461136573657
 7 -0.18965334703470 -0.57264661446145 -0.50143878007801
 7  1.55629331203120  1.85319769856986 -0.23385504760476
 7 -3.46849379237924 -3.04375342214221  0.66255472677268
 7 -0.72949435233523  3.01042146034603 -0.10987601150115
 6  0.65987722012201 -2.41941738003800 -1.20369245234523
 6  1.02284121792179 -1.08649860096010 -0.81734428972897
 6 -0.76331065616562 -2.59815370477048 -1.05609580898090
 6 -1.23978608480848 -1.39802344424442 -0.60277174307431
 6  3.78104604590459  1.39463394869487 -0.47110332673267
 6  2.43887458045805  0.84823615541554 -0.61082264086409
 6  2.26888389268927 -0.48653479927993 -0.89122136713671
 6  3.61352518941894  2.76364437263726 -0.06018679157916
 6  1.57416856935694 -3.46741200700070 -1.82267246824682
 6 -5.63925326052605 -2.69263117271727  1.31719165916592
 6 -3.69975203810381 -1.84636969896990  0.15038882388239
 6  2.18221248144815  3.04566099429943  0.00860338333833
 6 -5.14588078437844 -1.66100160336034  0.32377101600160
 6  5.07743622172217  0.63432310231023 -0.49955301170117
 6 -2.65534649684969 -1.04815158675868 -0.34202461686169
 6 -1.46501443914391 -3.75666016831683 -1.61018426212621
 6 -4.50425789258926 -3.66944545024502  1.31298041264126
 6  2.16937741374137 -4.57025924562456 -0.97032988878888
 6  5.39274915121512 -0.12666873077308  0.81723983008301
 6  4.65744153035303  3.80889212051205  0.29366154995500
 6  1.40061130253025  4.12053646114611  0.32013213271327
 6 -7.07679881048105 -3.16838421822182  0.97066653275328
 6 -5.87988659115912 -0.61434616451645 -0.31021249564957
 6  0.01249626062606  4.11712638423842  0.21695032063206
 6 -0.98244920662066  5.17055814881488  0.49626425502550
 6 -2.23487881408141  4.64840096289629  0.30212161506151
 6  3.09757259855986 -4.08678529762976  0.15809720872087
 6 -5.48028268906891  0.44047927652765 -1.26709777677768
 6  6.70724329052905 -0.88989727382738  0.72467559015902
 6 -3.63198895819582  5.39034533273327  0.45862667776778
 6 -1.98470190649065  3.25009720102010 -0.08810788598860
 6 -0.51024516201620  6.58501236923692  0.76463155295530
 6 -4.31232976987699  5.55491389628963 -0.86595737143714
 1 -0.21292885778578  0.39102480808081  0.02277172387239
 1  3.33262727732773 -1.10514251635164 -1.05089459805981
 1  2.43936518741874 -2.81368607550755 -2.45622805750575
 1  1.09457623692369 -3.88754067166717 -2.64492685918592
 1 -5.68651045724572 -2.31573996309631  2.46364852535253
 1  5.11883219341934 -0.07918320182018 -1.12802595559556
 1  5.98303026862686  1.39813412271227 -0.67486878647865
 1 -2.76677477317732  0.01635613181318 -0.40604350995099
 1  0.42087841954195  2.05650683368337 -0.45703517561756
 1 -1.30348593979398 -4.79987209140914 -1.07521832753275
 1 -2.57514114381438 -3.65478318031803 -1.83128244844484
 1 -1.17025697679768 -4.01054922932293 -2.69319292229223
 1 -2.52481623942394 -3.47641378977898  0.87511475847585
 1  1.37220302700270 -5.03821630413041 -0.37819153665367
 1  2.88356754255426 -5.25158786728673 -1.51354586848685
 1  4.48640306130613 -0.78507455855586  1.33154374057406
 1  5.63500770037004  0.86669110571057  1.60555502620262
 1  4.62305982628263  4.62233270067007 -0.53751373407341
 1  5.62948957175718  3.37624034323432  0.00313683688369
 1  4.67550696809681  4.26867237533753  1.28002930683068
 1  1.94100993299330  5.10710063966397  0.45144493139314
 1 -7.78302107370737 -2.51270726522652  0.98305299929993
 1 -7.32876852115212 -3.86668443434343  1.67191955985599
 1 -7.17782596659666 -3.69169693319332 -0.07594600540054
 1 -7.02437977967797 -0.42496282758276  0.05114704260426
 1 -4.93475831763176  1.20882507940794 -0.59901374947495
 1 -6.11896372607261  0.60218784708471 -1.99885656415642
 1 -4.55579407490749 -0.00106326012601 -1.73250446314631
 1 -3.42914279357936  6.38250090589059  1.03605130913091
 1 -4.25553323082308  4.54309344154415  0.94715685348535
 1  0.05234980028003  6.58761072097210  1.75046777927793
 1 -1.26462784608461  7.41598829432943  1.26360561696170
 1  0.07005619321932  7.06311481198120 -0.04671833763376
 1 -3.86067636343634  6.29940582368237 -1.67760557665767
 1 -5.16298812191219  6.09844258525853 -0.69150429212921
 1 -4.54926944804480  4.67055854815482 -1.44570430883088
 1  3.64307961446145 -4.29390362056206  1.73063170017002
 1  7.98104534923492 -1.97946859915992  1.57415757835784

