%nproc=4
%Mem=4GB
# td=(NStates=1) B3LYP/SVP 

TD

0 1
 8 -4.49599972077208 -4.67017709890989  1.88164352795280
 8  2.88770936903690 -4.74860941014101  1.27469540134013
 8  7.05980636203620 -1.38149569066907  1.88717893839384
 8  3.75736746954695 -3.02445157035704  0.14295715411541
 8  7.54651340334033 -0.80753213251325 -0.22043161246125
 8 -3.00952128092809  2.52566996449645 -0.14105901050105
 7 -0.29903428512851 -0.60856020582058 -0.60184882108211
 7  1.51559924262426  1.78589096789679 -0.29924158625863
 7 -3.48879582258226 -3.12941198799880  0.49935840714071
 7 -0.69264066696670  2.93739415761576 -0.01528655255526
 6  0.58840007240724 -2.48585402370237 -1.31775385848585
 6  0.92973190699070 -1.19492944404440 -1.03570612591259
 6 -0.74669899499950 -2.78116200560056 -1.20309050845085
 6 -1.26085819201920 -1.54110775267527 -0.73839530543054
 6  3.78153609490949  1.42733721902190 -0.43086930333033
 6  2.52785347834783  0.78695002680268 -0.50187174577458
 6  2.20519752405241 -0.55639178497850 -0.85384762976298
 6  3.58626246314631  2.74762277047705 -0.02473324622462
 6  1.57167832033203 -3.43016828262826 -1.84063426442644
 6 -5.59330866606661 -2.63142505210521  1.42141208120812
 6 -3.65162722562256 -1.81752681468147  0.09256304130413
 6  2.17052131233123  2.95834226242624  0.05998852185219
 6 -5.14907110341034 -1.60663616681668  0.29301794069407
 6  5.14888336643664  0.64652432243224 -0.41883493989399
 6 -2.67874883708371 -1.03513028462846 -0.41318173257326
 6 -1.46104404210421 -3.87983248554856 -1.84757800150015
 6 -4.52240970777078 -3.60507901360136  1.39968908350835
 6  2.23494397039704 -4.53344556425643 -0.95872872867287
 6  5.30609048534853 -0.06028209210921  0.79807791389139
 6  4.52392817901790  3.73666489778978  0.38505068886889
 6  1.36555779717972  4.07526193369337  0.30897101660166
 6 -6.97017814841484 -3.15852323212321  1.20498996509651
 6 -5.79668827132713 -0.51480621052105 -0.25968744314431
 6 -0.03734872387239  4.06397106870687  0.26182480808081
 6 -0.93816477817782  5.16416750975097  0.43383801240124
 6 -2.25581090729073  4.72497862066207  0.23639504240424
 6  3.10649349064906 -4.01969858895890  0.12327372637264
 6 -5.35235989678968  0.43364859345935 -1.25165623262326
 6  6.74035660186019 -0.79298758285829  0.73304642724272
 6 -3.56929268856886  5.36110240844084  0.49538035313531
 6 -2.10056349264927  3.20553274457446 -0.00089916511651
 6 -0.52190632813281  6.62620648864887  0.71006609640964
 6 -4.18842737963796  5.74613301820182 -0.78838961466147
 1 -0.36652421732173  0.19671537713771 -0.02756330963096
 1  3.07305131973197 -1.29788179027903 -0.96686619521952
 1  2.43944519541954 -2.99212391929193 -2.19564199889989
 1  1.20261704100410 -3.99499141674167 -2.74761712821282
 1 -5.54485629182918 -2.00427881698170  2.28366052655265
 1  5.16960727092709 -0.11250653415342 -1.16387954095410
 1  6.00048201380138  1.26179048834883 -0.73348464806481
 1 -2.90377847354735 -0.15817132093209 -0.56900980658066
 1  0.45195152685268  1.78694987798780 -0.35757522962296
 1 -1.49478506970697 -4.81697380158016 -0.99573037873787
 1 -2.56942057175718 -3.76369407140714 -2.18272759295930
 1 -0.90260021112111 -4.23117129152915 -2.65815941894189
 1 -2.53119687748775 -3.64362051045104  0.45796304330433
 1  1.39551535823582 -5.30626310881088 -0.59032274977498
 1  2.84888407420742 -5.34086679517952 -1.56596111001100
 1  4.56381080208021 -0.77024307540754  0.87837842404240
 1  5.48052225182518  0.31344578117812  1.79506397709771
 1  4.33202072237224  4.77552802020202 -0.23661364406441
 1  5.62672929572957  3.67022974217422  0.35261178437844
 1  4.39871928932893  3.94919042714271  1.43888519241924
 1  1.92040787278728  5.02203213281328  0.79795958285829
 1 -7.82285505710571 -2.27968396289629  1.19663435743574
 1 -7.14910055435544 -3.89957772367237  1.99538190609061
 1 -7.23559174317432 -3.47064482798280  0.15243683288329
 1 -6.82649999169917 -0.39835016631663  0.01905383328333
 1 -4.97984282608261  1.39732392929293 -0.95690953905390
 1 -6.23499532923292  0.71934956325633 -1.90848752725273
 1 -4.76838533403340 -0.06447960176018 -1.99451066376638
 1 -3.50527040634063  6.14243689948995  1.02136984098410
 1 -4.31009868736874  4.74356348854886  1.08426056385639
 1 -0.00145558025803  6.59907186708671  1.77659039153915
 1 -1.40937232053205  7.23365006050605  0.75374463086309
 1  0.34027321492149  6.88904740524052 -0.11765543134313
 1 -3.93816411221122  6.57425330843084 -1.40256807290729
 1 -5.32103392649265  5.92346508750875 -0.56559170087009
 1 -4.43195771687169  4.78804029632963 -1.46423616201620
 1  3.58474378087809 -4.59766399659966  1.95796443344334
 1  7.83757100180018 -1.60870152245225  1.72638280088009

