%nproc=4
%Mem=4GB
# td=(NStates=1) B3LYP/SVP 

TD

0 1
 8 -4.69205932673267 -4.78552863406341  1.86012137573757
 8  2.82604320242024 -4.96610115931593  1.24280221202120
 8  7.10608098949895 -1.24481202230223  1.98162838333833
 8  3.56568830163016 -3.16342546774677  0.14383724212421
 8  7.64590334233423 -0.53752513181318 -0.09870944024402
 8 -2.90480080888089  2.42382978047805 -0.10255516011601
 7 -0.28434281598160 -0.49110846064606 -0.66374501070107
 7  1.57556523922392  1.84768714751475 -0.33847550965097
 7 -3.45657260026003 -3.17844689148915  0.63989246054605
 7 -0.65715711861186  2.94696511471147 -0.09537456135614
 6  0.62538377077708 -2.40589602790279 -1.43076515961596
 6  0.85648458225823 -1.15807575867587 -0.96356891219122
 6 -0.79886421152115 -2.60887477687769 -1.29093929332933
 6 -1.34150625682568 -1.46367000890089 -0.73313477937794
 6  3.82758069936994  1.48872335763576 -0.38465468186819
 6  2.50466115911591  0.78019935173517 -0.63264482308231
 6  2.23010001430143 -0.55053119891989 -0.94290653565357
 6  3.61654549144915  2.84368237643764 -0.13773454635464
 6  1.55532668516852 -3.33988925472547 -1.99948014901490
 6 -5.59163849904991 -2.61315322492249  1.33994393439344
 6 -3.65827789068907 -1.91266632863286  0.07863164816482
 6  2.13625788598860  2.98469489768977 -0.06248372537254
 6 -5.01032722902290 -1.56923242644264  0.36862550145014
 6  5.14722320042004  0.71660133013301 -0.41341439783978
 6 -2.64947590979098 -1.06573334493449 -0.29684009840984
 6 -1.52651058875888 -3.88408291059106 -1.67025026872687
 6 -4.50288775557556 -3.66298480418042  1.38013712831283
 6  1.88364884088409 -4.51394361406141 -0.95075793159316
 6  5.32372224852485 -0.16158222212221  0.80377848394839
 6  4.68396418261826  3.81650288158816  0.29078126192619
 6  1.41802304370437  4.19188359585959  0.17368748824883
 6 -6.89373050365036 -3.16826420622062  1.01899136523652
 6 -5.84891349384938 -0.58092282218222 -0.12268374277428
 6  0.04906991799180  4.08188285988599  0.07519614521452
 6 -0.97396835853585  5.23410450345034  0.45125975457546
 6 -2.12987831403140  4.62630875367537  0.41601300420042
 6  2.84247708900890 -4.13037965706571  0.21874327332733
 6 -5.30226488728873  0.35703093169317 -1.22822388938894
 6  6.80652321852185 -0.68711699579958  0.85812893549355
 6 -3.52841860116012  5.27248354655466  0.51292210731073
 6 -1.97246068236824  3.22201439273927 -0.01304037923792
 6 -0.43409754725473  6.54656852485249  0.83659874967497
 6 -4.23420195709571  5.44798320322032 -0.83681445714571
 1 -0.35432299719972  0.35291099669967 -0.17757831113111
 1  2.96857087168717 -1.23439544164416 -0.95758526712671
 1  2.41606285718572 -2.87689239613961 -2.30017245194519
 1  1.21471825112511 -3.85787770537054 -2.91261362786279
 1 -5.58885069126913 -2.19333772287229  2.35922808330833
 1  5.07392770297030  0.22970768726873 -1.49012216521652
 1  6.01027299289929  1.36861117041704 -0.41578287788779
 1 -2.87436553225323  0.12064656085609 -0.16600950655066
 1  0.76211254295430  1.69890107310731 -0.28331780388039
 1 -1.20380597179718 -4.70016212041204 -1.01991279697970
 1 -2.67296092579258 -3.88401610361036 -1.60660998119812
 1 -1.24609456055606 -3.91583975837584 -2.91355495849585
 1 -2.62395615341534 -3.73173932233223  0.51041828882888
 1  0.99244505120512 -4.83353583608361 -0.47258097559756
 1  2.31366055185519 -5.34525723422342 -1.53653816771677
 1  4.69234365536554 -1.15758180928093  0.97849843604360
 1  4.98630282988299  0.44177861446145  1.61634610531053
 1  4.56111363166317  4.78070853825383 -0.34753473617362
 1  5.61017764056406  3.32986570577058  0.26396291949195
 1  4.46677609500950  4.06843235133513  1.42583388728873
 1  1.92369820182018  4.89620955055506  0.86605639253925
 1 -7.75208798039804 -2.31163715821582  0.73415810981098
 1 -7.19617526182618 -3.91534930083008  1.77295966386639
 1 -6.93416160016002 -3.89456722022202  0.18202979217922
 1 -6.94120146184618 -0.53763409470947  0.03750567846785
 1 -4.51778662046205  0.96129032593259 -0.89819366746675
 1 -6.11137296699670  0.96025365366537 -1.45491216971697
 1 -4.90644914041404 -0.27288044184418 -2.10647185988599
 1 -3.43623350265027  6.37790044584458  0.86409411341134
 1 -4.24483216071607  4.79040817301730  1.09965210301030
 1  0.19520408570857  6.29229118901890  1.62177490999100
 1 -1.20210159345935  7.29139583508351  1.40500975737574
 1 -0.13003381578158  7.29184768526853 -0.20485415121512
 1 -3.83045334113411  6.04230011311131 -1.46437425352535
 1 -5.18561038413841  5.98066080708071 -0.56293143484348
 1 -4.29201372247225  4.52490398269827 -1.30568030643064
 1  3.50104541104110 -4.47042127232723  1.89397803480348
 1  8.12011925662566 -1.53342399469947  1.85615577817782

