%nproc=4
%Mem=4GB
# td=(NStates=1) B3LYP/SVP 

TD

0 1
 8 -4.36158627942794 -4.77467754895490  1.90545590919092
 8  3.03170376847685 -4.92788733793379  1.21120905270527
 8  7.07420780218022 -1.54869241034103  1.87830805130513
 8  3.89686141894189 -3.25289441464146  0.10740359875988
 8  7.49948870087009 -0.71254263356336 -0.21361093039304
 8 -3.00223055185519  2.53478087558756 -0.33193809840984
 7 -0.27117149884989 -0.48467781758176 -0.57293592979298
 7  1.58907659035904  1.77523990279028 -0.44388605070507
 7 -3.42449939293929 -3.12355140194019  0.66098456975698
 7 -0.83561496439644  2.97788820702070 -0.15174019791979
 6  0.62065329772977 -2.33103854215422 -1.37242932603260
 6  0.95105403920392 -1.07363731483148 -0.89166172147215
 6 -0.74113843894389 -2.54883877327733 -1.21562176157616
 6 -1.31292339853985 -1.36810045194519 -0.64100556645665
 6  3.84259220052005  1.41181566686669 -0.27769398579858
 6  2.60286097909791  0.84259559135914 -0.60519207780778
 6  2.20549755405541 -0.44467061286129 -0.78274051905191
 6  3.55402923982398  2.77030503870387  0.13345257235724
 6  1.60660181268127 -3.43393865966597 -1.91261146214621
 6 -5.60120945614562 -2.62700461006101  1.28960890089009
 6 -3.62150421332133 -1.82334739673967  0.16410019501950
 6  2.13399765996600  2.98253468166817 -0.04294177117712
 6 -4.99624582088209 -1.49422492569257  0.40608924782478
 6  5.07737621572157  0.63598326832683 -0.29263231963196
 6 -2.64479544174417 -1.00580735233523 -0.42180259465947
 6 -1.53588152585259 -3.76224072637264 -1.78997224092409
 6 -4.38610607740774 -3.68851735743574  1.37773688828883
 6  2.00724120012001 -4.49651187088709 -0.91058391419142
 6  5.31655153145315 -0.29789585348535  0.86656476257626
 6  4.57648343454345  3.77077830913091  0.34499668346835
 6  1.28837007840784  4.11101550905091  0.14735485498550
 6 -6.96924805540554 -3.08525590539054  1.13559302540254
 6 -5.80050865336534 -0.65814054395440 -0.18139961436144
 6 -0.10436542554255  4.11540621222122  0.09297792339234
 6 -0.99599056075608  5.23490458345835  0.38568319691969
 6 -2.19341466766677  4.67154327712771  0.35444684758476
 6  3.02864570587059 -4.12209882898290  0.13121452045205
 6 -5.44927958875888  0.41178640724072 -1.24760582758276
 6  6.69164173037304 -0.89748803290329  0.77896101870187
 6 -3.59608536783678  5.23807010521052  0.46009682478248
 6 -2.12018545484548  3.35485767706771 -0.06311538673867
 6 -0.68992312981298  6.64715858385839  0.82220731053105
 6 -4.18927746464646  5.65096350125013 -0.90003077877788
 1 -0.36391395629563  0.40978668426843 -0.09873042634263
 1  2.96945095969597 -1.32218422052205 -0.81987149574958
 1  2.45176642754275 -2.89286399329933 -2.09024145884588
 1  1.34461124042404 -3.86694861246125 -2.94024639113911
 1 -5.57285909210921 -2.12588097719772  2.37596975747575
 1  4.93878418861886 -0.10572585608561 -1.09565271827183
 1  6.08077004260426  1.25449975927593 -0.31618291789179
 1 -2.83538163386339  0.11388588478848 -0.38381128672867
 1  0.56439277097710  1.67818900190019 -0.57924739683968
 1 -1.55457104830483 -4.56312841704170 -1.09780058575858
 1 -2.43236686638664 -3.39978768076808 -2.09266858705871
 1 -1.12754270537054 -4.03781195559556 -2.76098970197020
 1 -2.56044980278028 -3.65903205160516  0.54597184418442
 1  1.23820962766277 -4.87295977847785 -0.46863058055806
 1  2.31352053785379 -5.61253396189619 -1.22666718061806
 1  4.47136155715572 -1.03847989908991  0.89889047524752
 1  5.30146434603460  0.11779621622162  2.00380485118512
 1  4.77026454675468  4.53748421582158 -0.53018300100010
 1  5.51842846564656  3.57807052625263  0.27130365356536
 1  4.48637805520552  4.02187769586959  1.37904920882088
 1  1.70173600560056  5.11014094369437  0.54502428932893
 1 -7.85406817841784 -2.37444343884388  1.25837053105311
 1 -7.14326997129713 -3.91670943684368  1.89675204310431
 1 -7.09739792379238 -3.58343610711071  0.11280286948695
 1 -6.94608194989499 -0.75755608690869  0.03283521142114
 1 -4.96911175297530  1.18012220912091 -0.74214806290629
 1 -6.26092792249225  0.89091671997200 -1.73225990449045
 1 -4.77848634413441 -0.01803495729573 -1.95313652635264
 1 -3.54732461176118  6.16356901270127  1.11110881488149
 1 -4.26044372187219  4.53331246344634  1.19232136993699
 1  0.10733529882988  6.49229118901890  1.78103083558356
 1 -1.56075745904591  7.23336003150315  1.09059831623162
 1 -0.01672248464846  7.43732223272327  0.23382971717172
 1 -3.41065136093609  6.02151803490349 -1.40082789888989
 1 -5.06750857395740  6.34722746374637 -0.68183332503250
 1 -4.65784030513051  4.71115260756076 -1.49994973337334
 1  3.76738204470447 -4.83410764096410  1.68743738073807
 1  8.07520476517652 -1.85360601290129  1.72164232683268

