%nproc=4
%Mem=4GB
# td=(NStates=1) B3LYP/SVP 

TD

0 1
 8 -4.64073419421942 -4.76915699689969  1.75142050565057
 8  2.91512211031103 -4.93994854405441  1.19120705250525
 8  7.08271865326533 -1.72648018911891  1.75679590009001
 8  3.76862859565957 -3.13735286048605  0.09942280068007
 8  7.61322007400740 -0.42497387668767 -0.05246481578158
 8 -3.04895522432243  2.42171956945695 -0.27366227082708
 7 -0.26525090679068 -0.67080643044304 -0.51013965016502
 7  1.60453813651365  1.84868724752475 -0.38963062516252
 7 -3.44383132613261 -3.18446749354936  0.67692616391639
 7 -0.69449085198520  2.94690510871087 -0.14703972787279
 6  0.67861909430943 -2.37589302760276 -1.38466054915492
 6  0.94890382418242 -1.08570852195220 -0.90746330163016
 6 -0.77839216431643 -2.57769165856586 -1.21326152555256
 6 -1.28772087828783 -1.50021366326633 -0.66394786068607
 6  3.77916585788579  1.39566405170517 -0.37747396379638
 6  2.57532822582258  0.81582291409141 -0.65816737533753
 6  2.21511851615162 -0.48929507530753 -0.80179242424242
 6  3.55702953985399  2.79248725692569  0.06730595769577
 6  1.62514366686669 -3.44930019581958 -1.86718691969197
 6 -5.59396873207321 -2.61299320892089  1.32426236623662
 6 -3.64100616351635 -1.81646670867087  0.27398118311831
 6  2.11578583878388  3.03334976317632 -0.04573205020502
 6 -5.08744494079408 -1.55743124632463  0.38113675257526
 6  5.16753523162316  0.73529319931993 -0.35194825122512
 6 -2.57870883308331 -1.04406117771777 -0.27937835223522
 6 -1.48849678737874 -3.85800030233023 -1.70724396809681
 6 -4.54575204200420 -3.70198870457046  1.27900701530153
 6  2.05608608460846 -4.52790501020102 -0.91318417421742
 6  5.38023790009001 -0.13729979387939  0.83511161726173
 6  4.57198298449845  3.91504273557356  0.22997518131813
 6  1.34114535593559  4.18596300380038  0.14957507700770
 6 -7.04069520012001 -3.06741412121212  1.09743921002100
 6 -5.84429303180318 -0.55559028892889 -0.15186666106611
 6 -0.06995198419842  4.09426409800980  0.10945957155716
 6 -1.00948190989099  5.13963505650565  0.48566319491949
 6 -2.28289361556156  4.75636175897590  0.30966236913691
 6  3.05098794009401 -4.11330794989499  0.10504190319032
 6 -5.40623528432843  0.38895412401240 -1.16732779977998
 6  6.82310487668767 -0.71901018511851  0.83369649224922
 6 -3.57460321962196  5.36827312551255  0.51051186628663
 6 -2.07929136543654  3.15913810511051 -0.04989406460646
 6 -0.48593273077308  6.47554142214221  0.83276836663666
 6 -4.23617215411541  5.64668307320732 -0.90307108280828
 1 -0.44604216911691  0.19032473807381 -0.06867742104210
 1  3.18745275987599 -1.19174117621762 -1.07885739433943
 1  2.46355760666067 -3.04618932583258 -2.51894432913291
 1  1.04637141644164 -4.03528544614461 -2.67189955645565
 1 -5.63797560376038 -2.09265765486549  2.29393155365536
 1  5.11065137533753  0.14296901340134 -1.33747690069007
 1  6.01890385598560  1.54752906220622 -0.40116141574157
 1 -2.79132722842284  0.02798729492949 -0.59228213381338
 1  0.63980031173117  1.72617380038004 -0.69631910401040
 1 -1.55617120832083 -4.60938304250425 -1.03676448214822
 1 -2.43034666436644 -3.44969267126713 -2.15885520572057
 1 -1.14559451055106 -4.20048822322232 -2.70272387538754
 1 -2.57899165696570 -3.61009715811581  0.46261350835084
 1  1.18883469016902 -5.04875735823582 -0.37131084858486
 1  2.62158134393439 -5.51327403590359 -1.34258877277728
 1  4.45100952195220 -1.08033408450845  0.87023760996100
 1  5.47705190479048  0.41449588618862  1.91116558725873
 1  4.12995051535153  4.88682915031503 -0.08860884358436
 1  5.74045066786679  3.68543126232623 -0.13988746554655
 1  5.01059047644764  3.89067457555756  1.44485578947895
 1  1.43195902790279  5.30956088568857  0.31498128502850
 1 -7.56422919451945 -2.19417541204120  1.53900859485949
 1 -7.49158480278028 -3.97357512341234  1.75759812771277
 1 -7.16862504650465 -3.12687045054506 -0.01553996479648
 1 -6.92565990769077 -0.30827115841584 -0.13624169626963
 1 -4.86276111791179  1.26278047494749 -0.83704755285529
 1 -6.26375820552055  0.83451107940794 -1.72586926542654
 1 -4.62744123962396 -0.08263141694169 -1.78776998969897
 1 -3.33961384068407  6.29021167696770  0.84913261726173
 1 -4.12005968346835  4.71444057625763  1.10756289408941
 1  0.42143670897090  6.47612957285729  1.59582231473147
 1 -1.24573595689569  7.08319501500150  1.39677893429343
 1 -0.15457627002700  6.96020452095209 -0.02673633943394
 1 -3.37324762056206  6.22956883998400 -1.43676149224923
 1 -5.14063588668867  6.15486822782278 -0.95024016571657
 1 -4.17304182528253  4.67982947524752 -1.59757949634964
 1  3.51575688218822 -4.74357858805881  1.91948058505851
 1  8.04398164286429 -2.00352100440044  1.60450061266127

