%nproc=4
%Mem=4GB
# td=(NStates=1) B3LYP/SVP 

TD

0 1
 8 -4.56726684748475 -4.84285436663666  1.69601496509651
 8  3.02102270037004 -5.09287383658366  1.32683061486149
 8  7.01488186958696 -1.40054759585959  1.80541076157616
 8  3.61611334413441 -3.01567069226923  0.26914977337734
 8  7.49411816381638 -0.84263564286429 -0.41151072037204
 8 -2.85556588538854  2.39852725022502 -0.21159606420642
 7 -0.27441182288229 -0.50822017181718 -0.61368000420042
 7  1.54506218891889  1.84104648344834 -0.28951061316132
 7 -3.43272021502150 -3.20169921672167  0.56329480078008
 7 -0.68791019391939  2.90546096429643 -0.09429445334533
 6  0.72629386178618 -2.46510194849485 -1.33984606770677
 6  0.91701063486349 -1.17325727682768 -0.92598515381538
 6 -0.66415074017402 -2.69494338373837 -1.23054325372537
 6 -1.27082918911891 -1.46183982588259 -0.65668713461346
 6  3.82738067936794  1.47996248154815 -0.35686190259026
 6  2.48768946194619  0.85194652645265 -0.53633519211921
 6  2.07823482778278 -0.44089023482348 -0.90752299729973
 6  3.65157899479948  2.83265127332733 -0.02050282318232
 6  1.66129728222822 -3.42083734953495 -1.83074327532753
 6 -5.63454278947895 -2.57803971357136  1.29366930693069
 6 -3.64495655855586 -1.84940000200020  0.18680246524652
 6  2.11904616481648  3.01252768096810  0.02930545354535
 6 -5.10102629892989 -1.53491899509951  0.41514015291529
 6  5.08490696879688  0.75978564856486 -0.45464852125213
 6 -2.58386934913491 -1.09324609620962 -0.35726614101410
 6 -1.53385132283228 -3.83599810211021 -1.73537678137814
 6 -4.58522598939894 -3.78017652335234  1.22780189478948
 6  2.06328680468047 -4.48346056575658 -0.75274813061306
 6  5.39155903220322 -0.04281034493449  0.74330243634363
 6  4.58715450165016  3.91213244454445  0.26036822062206
 6  1.36049729112911  4.21324573207321  0.21147126662666
 6 -7.05334646524653 -3.08820620042004  0.95170463656366
 6 -5.91196979947995 -0.58026275617562 -0.13833530793079
 6 -0.05427041604160  4.08027269886989  0.27305593119312
 6 -0.95170613231323  5.27756884988499  0.56619124772477
 6 -2.19878520472047  4.72819894269427  0.36832823572357
 6  3.02769561086109 -4.11688830793079  0.35952735173517
 6 -5.43668832963296  0.47390261886189 -1.15394646164616
 6  6.78051061726173 -0.82909119321932  0.61876499909991
 6 -3.53407916721672  5.35496179437944  0.38042885798580
 6 -1.98185162146215  3.29355154645465  0.03585451025103
 6 -0.51233537103710  6.66647051505150  0.88418350815082
 6 -4.19212774967497  5.49339774467447 -0.99018979467947
 1 -0.36244380928093  0.35378108370837  0.01913135983598
 1  2.95943995859586 -1.10850285238524 -1.13680318891889
 1  2.46619787068707 -2.87096180308031 -2.33143557825783
 1  1.35460223952395 -4.14054597219722 -2.64956732323232
 1 -5.72611441764176 -2.45191358045805  2.33282544304430
 1  4.99162947314731  0.00026474297430 -1.12916606960696
 1  5.95077704330433  1.51475578487849 -0.82072337193719
 1 -2.92288038373837 -0.09219472327233 -0.63575648124812
 1  0.45722205390539  1.83819500250025 -0.48701817391739
 1 -1.69763535473547 -4.65239734393439 -0.93805461116112
 1 -2.33907753745375 -3.38553625562556 -2.22021134133413
 1 -0.97901785288529 -4.38541671607161 -2.50495409840984
 1 -2.48204196199620 -3.81829797819782  0.45372261926193
 1  1.06363216991699 -4.86531901440144 -0.24307802530253
 1  2.49853903970397 -5.49527223572357 -1.20863537743774
 1  4.48960338133813 -0.92572862396240  0.90599118531853
 1  5.28235243484349  0.57140157675768  1.60796526722672
 1  4.42436995729573  4.74134460186019 -0.37545752845285
 1  5.66348297109711  3.49914263346335  0.11710823402340
 1  4.50877029442944  4.19505501360136  1.35632693659366
 1  1.70289612161216  5.26295622522252  0.41543133003300
 1 -7.80718348994900 -2.11044703920392  1.11202589658966
 1 -7.50256590089009 -3.88551631753175  1.63356572447245
 1 -7.08346653065307 -3.36188395189519 -0.03419182998300
 1 -6.98036537823782 -0.49361969326933  0.10404233213321
 1 -4.65834067586759  1.03113731063106 -0.49921376947695
 1 -6.11521335103510  1.01333896219622 -1.63950062856286
 1 -4.77597609310931 -0.06363951775177 -1.70814202690269
 1 -3.62437231653165  6.34080673647365  1.03660136413641
 1 -4.31760943844384  4.59067820002000  1.04228636643664
 1 -0.11203663836384  6.82146410631063  1.98120085258526
 1 -1.43666504980498  7.25996269176918  0.95093434983498
 1  0.23103229082908  7.17147564806481  0.25993232743274
 1 -3.45648594439444  5.84650053315331 -1.67099491559156
 1 -5.24765658875888  5.82688542954295 -1.05873101480148
 1 -4.37458197929793  4.33229472177218 -1.48944868326833
 1  3.91658696519652 -4.93959819001900  1.83169180618062
 1  7.88888613331333 -2.23071372367237  1.77330749334934

