%nproc=4
%Mem=4GB
# td=(NStates=1) B3LYP/SVP 

TD

0 1
 8 -4.59907002780278 -4.76567664886489  1.87977334093409
 8  2.80106070417042 -4.62276682588259  1.51287921972197
 8  7.07244762616262 -1.71075861696170  1.54410463096310
 8  3.79897162996300 -3.09437856305631  0.10902376077608
 8  7.66960571257126 -0.45366674597460 -0.09526909620962
 8 -3.04677500630063  2.53080047754775 -0.29387429202920
 7 -0.32941732343234 -0.61705105490549 -0.63925256145615
 7  1.58638632133213  1.79414179297930 -0.31129279137914
 7 -3.53314025702570 -3.17728677547755  0.54576304760476
 7 -0.75073647654765  2.94656507470747 -0.09782480638064
 6  0.68113934633463 -2.47390282858286 -1.35443752685269
 6  0.99040797459746 -1.14138408950895 -0.90829338463846
 6 -0.72782710781078 -2.67781167056706 -1.42764296369637
 6 -1.31037314351435 -1.53189683158316 -0.85423688958896
 6  3.87264520582058  1.46131061636164 -0.27828404480448
 6  2.45626631963196  0.76891822362236 -0.43102466106611
 6  2.27483448774877 -0.55997214301430 -0.77717996299630
 6  3.55202903980398  2.75795380358036  0.16542576967697
 6  1.76588774127413 -3.49613487928793 -1.90304050505051
 6 -5.54617395259526 -2.60661257085709  1.46998693869387
 6 -3.66053811671167 -1.91126618861886  0.12234601960196
 6  2.10879513971397  2.93914034223422  0.11548407140714
 6 -5.09639583588359 -1.52334783798380  0.36987562646265
 6  4.97612609070907  0.71082075207521 -0.56288934533453
 6 -2.64470543274327 -1.15849262086209 -0.43129354375438
 6 -1.49612755045505 -3.79960446274627 -1.96014925862586
 6 -4.54777224402440 -3.60188869456946  1.33173228782878
 6  2.21448192419242 -4.55442766246625 -0.85472832863286
 6  5.35540541684168 -0.25609167306731  0.65762386848685
 6  4.61752753895389  3.77837906920692  0.54983716751675
 6  1.40845208660866  4.14241864936494  0.37925804530453
 6 -6.98672980358036 -3.26604398419842  1.14288375447545
 6 -5.87590619311931 -0.43190792069207 -0.03486496089609
 6 -0.00822581158116  4.02010668226823  0.19979860546055
 6 -0.96176713841384  5.21898299129913  0.45583021162116
 6 -2.24666999319932  4.75837195999600  0.33732513541354
 6  2.91537437873787 -3.95424204330433  0.33144454345435
 6 -5.38292295309531  0.49660488908891 -1.13139420642064
 6  6.80128269446945 -0.76729501360136  0.62366548914891
 6 -3.61816757605761  5.35243154135414  0.43745456055606
 6 -2.11280471677168  3.33306549784978 -0.07571664686469
 6 -0.45361949944994  6.59203307130713  0.67922301210121
 6 -4.20992952985299  5.60677908280828 -0.96694747044704
 1 -0.43130069496950  0.30084579017902 -0.18882943624362
 1  3.31836585118512 -1.14687668976898 -1.13772328092809
 1  2.47713896479648 -2.75253996089609 -2.29414184888489
 1  1.13494027332733 -4.02451436903690 -2.70894326082608
 1 -5.39814162036204 -2.24921331043104  2.37060922142214
 1  4.66786709690969  0.14938965546555 -1.41789494249425
 1  5.80399236483648  1.27924223352335 -0.48909020862086
 1 -2.92128022372237 -0.08776428022802 -0.43802670827083
 1  0.52897922962296  1.80430161316132 -0.29823929602960
 1 -1.31209680088009 -4.84262636683668 -1.45233603930393
 1 -2.65236886658666 -3.60343804580458 -2.08173749394940
 1 -0.95592554365437 -4.24578275267527 -2.97092069506951
 1 -2.74886864466447 -3.66122227062706  0.49751699869987
 1  1.25598140484048 -4.99569205170517 -0.36156987448745
 1  2.82879206500650 -5.21530423892389 -1.40936545044504
 1  4.76420084108411 -1.18184423552355  0.77304789098910
 1  5.24579877947795  0.21618605520552  1.77802227292729
 1  4.72080960126013  4.60788125552555 -0.32310229292929
 1  5.59235585838584  3.28635135433543  0.87130365356536
 1  4.28017743514352  4.40675618371837  1.35113641754175
 1  1.80328616061606  5.18672860246025  0.43171295819582
 1 -7.82960573217322 -2.62049804430443  1.35582027602760
 1 -7.16189183348335 -4.09437720362036  1.50552292019202
 1 -7.05722390639064 -3.57559532303230  0.14071566076608
 1 -6.98201554325432 -0.69593992529253  0.18903083098310
 1 -4.80721556335634  1.33510770767077 -0.51217506560656
 1 -6.26901873157316  0.99813744204420 -1.41696837533753
 1 -4.83128162366237 -0.02858601240124 -2.13939515221522
 1 -3.37781766106611  6.21267392319232  1.05646335033503
 1 -4.29170684818482  4.73493262546255  0.98718085588559
 1  0.46438100340034  6.51874383428343  1.36185891839184
 1 -1.44973635693569  7.31616831233123  1.26263551995200
 1 -0.07800861326133  7.07381588208821 -0.30319398519852
 1 -3.46467676347635  6.26586246934693 -1.52563037913791
 1 -5.43008483158316  5.84131687268727 -0.86171131283128
 1 -4.23754827592759  4.65592708500850 -1.41813155155516
 1  3.35949125562556 -4.25390962116212  2.18118675567557
 1  7.96160340504050 -2.11453210551055  1.39720988358836

