%nproc=4
%Mem=4GB
# td=(NStates=1) B3LYP/SVP 

TD

0 1
 8 -4.51380150095010 -4.72527260846085  1.96586194979498
 8  2.97832843094309 -4.83628817801780  1.26151408320832
 8  7.16700708210821 -1.48786632773277  1.93518373887389
 8  3.81042277507751 -3.21747087228723 -0.01037817941794
 8  7.54093284528453 -0.67987936723672 -0.10736030533053
 8 -2.97235756455646  2.55626302380238 -0.29050395499550
 7 -0.30793517521752 -0.62404175397540 -0.63188182438244
 7  1.50133781648165  1.83559593839384 -0.36486814891489
 7 -3.41970891389139 -3.07190623742374  0.80131860316032
 7 -0.72178358125813  2.93165358355836 -0.16431145504550
 6  0.62910414281428 -2.45638107640764 -1.46341842494249
 6  0.88680761456146 -1.09026897799780 -0.96380893619362
 6 -0.84627895299530 -2.67182107150715 -1.30707090649065
 6 -1.33795590179018 -1.51452509440944 -0.75845731163116
 6  3.71554949624963  1.32308679397940 -0.25353156955696
 6  2.47444813781378  0.84663599539954 -0.50393195179518
 6  2.13580058435844 -0.47372351815182 -0.88075032003200
 6  3.53252708960896  2.74353236143614 -0.06900767366737
 6  1.66296744924492 -3.41853711951195 -1.88804900590059
 6 -5.58978831403140 -2.58615052465247  1.31192113211321
 6 -3.55689775267527 -1.77332239423942  0.10717450245025
 6  2.20233449364936  3.00374680288029 -0.05139261626163
 6 -5.03252944924492 -1.48239374257426  0.34060269916992
 6  5.06459493759376  0.69608927892789 -0.34546760316032
 6 -2.62548351055106 -1.03243001460146 -0.50126054045405
 6 -1.68571650935093 -3.93901840414041 -1.67700094379438
 6 -4.52844031083108 -3.59948845454545  1.37438655325533
 6  2.13738421442144 -4.47365958565857 -0.94785764156416
 6  5.41168104440444 -0.16439250315031  0.90584869096910
 6  4.54448023422342  3.90417164846485  0.17138932273227
 6  1.40021126252625  4.11387579507951  0.10272039153915
 6 -6.95969710031003 -3.24447182698270  0.97582704880488
 6 -5.71400000250025 -0.52800753065307 -0.12361383578358
 6  0.01517652865287  4.03141781338134  0.16792541814181
 6 -0.91134209590959  5.15147624062406  0.50679530813081
 6 -2.14604993119312  4.70064618741874  0.27473887678768
 6  2.96605944724472 -4.07031365046505  0.17793919291929
 6 -5.48471313211321  0.38491371997200 -1.27025809280928
 6  6.73996656285629 -0.76780506460646  0.86971009360936
 6 -3.62195795509551  5.43103940214021  0.51389220432043
 6 -2.01812524882488  3.31422361366137 -0.00539961516152
 6 -0.53683782128213  6.53800766876688  1.01685677547755
 6 -4.34550308720872  5.48337674257426 -0.77555833153315
 1 -0.30575814071407  0.22189789538954 -0.11002155545555
 1  3.04762877747775 -1.08745074717472 -0.74378388698870
 1  2.62592384328433 -2.67531223812381 -2.28651108580858
 1  1.35103188248825 -3.91044296189619 -2.72896526302630
 1 -5.65329713591359 -2.17301569066907  2.25002716321632
 1  5.18384869506951 -0.04334961846185 -1.16362951595160
 1  5.89358132373237  1.39142345164516 -0.65894719431943
 1 -2.92488058375838 -0.05370087388739 -0.99808271387139
 1  0.28780511221122  1.73180436343634 -0.53428290039004
 1 -1.84762035323532 -4.74218632283228 -0.91520232593259
 1 -2.60695432513251 -3.65457315931593 -2.17358667886789
 1 -1.31954190529053 -4.40360853525353 -2.51342494549455
 1 -2.51616537433743 -3.55473162156216  0.93804105110511
 1  1.42255806250625 -5.13016549904990 -0.68201191869187
 1  3.03442262806281 -5.04294700320032 -1.56968148204821
 1  4.68755317631763 -1.01038708980898  1.18188877507751
 1  5.40104430403040  0.52953739033903  1.63944841554155
 1  4.40938845914591  4.59365983338334 -0.35531551425143
 1  5.65624224702470  3.36830955015502  0.04922144534453
 1  4.57409682708271  4.11160666876688  1.27812911681168
 1  1.81279711171117  5.03482341194119  0.54375416231623
 1 -7.79015178677868 -2.36282227672767  1.12805749974998
 1 -7.13926957125713 -4.18734650055005  1.47457982588259
 1 -6.85468365236524 -3.49144690819082 -0.12067047784778
 1 -6.77573491519152 -0.46867719901990  0.27344927282728
 1 -5.04672951475147  1.40386458335834 -0.91487533563356
 1 -6.45029685938594  0.91954958325833 -1.68489516801680
 1 -4.67627612311231 -0.09298245204520 -2.07594880758076
 1 -3.61167104640464  6.43289594539454  1.07891559555956
 1 -4.23359103660366  4.60214934713471  1.17773991179118
 1  0.37380194549455  6.47589954985498  1.89407213971397
 1 -1.32367375067507  7.08323501900190  1.41109036543654
 1  0.02126131373137  7.15067356785678  0.17772410661066
 1 -3.67083737953795  6.25391127422742 -1.59277709380938
 1 -5.28014983808381  6.11628436943694 -0.95908104980498
 1 -4.50718523962396  4.45702719501950 -1.40467020542054
 1  3.51280658715872 -4.59018324852485  2.01759039603960
 1  7.99744698939894 -2.12157280958096  1.65905606820682

