%nproc=4
%Mem=4GB
# td=(NStates=1) B3LYP/SVP 

TD

0 1
 8 -4.31510163096310 -4.75427550875088  1.86262162576258
 8  2.73700429852985 -4.79305385458546  1.33562149394939
 8  6.95916629802980 -1.61346888798880  1.93576379687969
 8  3.53756548934893 -3.28084720992099  0.07482034043404
 8  7.64092284428443 -0.52345372467247  0.06601703240324
 8 -3.03007333613361  2.51300869836984 -0.27861276587659
 7 -0.26627100880088 -0.54325367516752 -0.58610724692469
 7  1.57866554925493  1.76363874267427 -0.45402706480648
 7 -3.31158810181018 -3.12882192899290  0.61675014631463
 7 -0.69125052795280  2.99290970917092 -0.04565958985899
 6  0.60151138353835 -2.50519595789579 -1.49404148724872
 6  0.96140507430743 -1.14219417051705 -1.03241579687969
 6 -0.77311163626363 -2.63898778817882 -1.45810601000100
 6 -1.27096920312031 -1.38669231113111 -0.78066953285329
 6  3.78241618291829  1.45253973927393 -0.38833504990499
 6  2.52615330833083  0.84613594539454 -0.67878943754375
 6  2.17834483878388 -0.54900104590459 -0.95994823982398
 6  3.58192202910291  2.73280128832883 -0.07319809270927
 6  1.64802595509551 -3.50226549234923 -1.89702990399040
 6 -5.52179151435144 -2.69125103470347  1.36832677267727
 6 -3.59592165506551 -1.81262632463246  0.24216800180018
 6  2.15165942614261  2.94581100930093 -0.09427690469047
 6 -5.02231842814281 -1.60239574277428  0.42048068696870
 6  5.17788626672667  0.68581825182518 -0.33892694909491
 6 -2.68335929812981 -1.03585035663566 -0.44259467386739
 6 -1.43578151585159 -3.83575807810781 -1.84435767946795
 6 -4.40320778757876 -3.72366087178718  1.31512062666267
 6  1.84089456545655 -4.61291351105111 -0.89847270307031
 6  5.41145102140214 -0.16257232113211  0.94861296739674
 6  4.56711249744975  3.83780501180118  0.29706188998900
 6  1.40787202860286  4.08028243574357  0.20026014551455
 6 -6.82777390799080 -3.35008238803880  1.01954142024202
 6 -5.81524012651265 -0.57447217711771 -0.06133760816082
 6 -0.08467345634563  4.09333400500050  0.24304292989299
 6 -0.96337729942994  5.32218331133113  0.46729135773577
 6 -2.27605293149315  4.86736285908591  0.23455485838584
 6  2.83147598889889 -4.13048966806681  0.17312871187119
 6 -5.40589525032503  0.51720694929493 -0.95465653265327
 6  6.79130169636964 -0.76079436353635  0.84869799239924
 6 -3.52816857615762  5.51730802900290  0.52805362046205
 6 -2.06611004730473  3.33404559585959 -0.12464153935394
 6 -0.38766290379038  6.66303017101710  0.75811090089009
 6 -4.47363590049005  5.59604800970097 -0.77210798649865
 1 -0.24745231013101  0.48897460306031 -0.05545609890989
 1  3.08950296489649 -1.26230823292329 -1.13795330393039
 1  2.77559881078108 -3.24499920682068 -2.27922035673567
 1  1.30055683498350 -3.95704762236224 -2.71838420492049
 1 -5.24302610881088 -2.26934532363236  2.47246940744074
 1  4.93911422162216 -0.00964624812481 -1.17719087208721
 1  5.87205917151715  1.39395370467047 -0.52576387598760
 1 -2.87174527022702  0.16095059125913 -0.51828473407341
 1  0.46584291599160  1.97591877487749 -0.63544301640164
 1 -1.42566815801580 -4.67393949814981 -1.09991079677968
 1 -2.68826245594559 -3.67898560056006 -1.94156347654765
 1 -0.88855880698070 -4.17225539993999 -2.86630023302330
 1 -2.38828258605861 -3.48741488988899  0.79376662366237
 1  1.11926773347335 -5.14685716821682 -0.42861657915792
 1  2.42712189798980 -5.40285299379938 -1.30901541544154
 1  4.72138655965597 -1.05851190229023  0.86072665886589
 1  5.23740794039404  0.47971240784078  1.81210568126813
 1  4.10843836413641  4.72005247264727 -0.36852683538354
 1  5.59865648844885  3.45933865306531  0.01695821902190
 1  4.55369478687869  3.85697120522052  1.44716602050205
 1  1.93937976997700  4.96376630623062  0.66441622852285
 1 -7.73049582118212 -2.70504649914991  0.99569426342634
 1 -6.90817646194620 -3.94160192609261  2.02749511741174
 1 -6.88964714871487 -4.09890765426543 -0.08387679847985
 1 -6.77698504020402 -0.79064939623962  0.36855878377838
 1 -4.80054489628963  1.27329152605261 -0.57188103620362
 1 -6.26465829552955  0.76956458475848 -1.49980665916592
 1 -4.42330082558256  0.20225707190719 -1.59693090579058
 1 -3.32539241854185  6.38523117891789  1.14331203520352
 1 -4.05386306380638  4.66757588978898  1.21692383018302
 1  0.28374293959396  6.44311627152715  1.70202293479348
 1 -1.07866925022502  7.43620031553155  0.90625988238824
 1  0.41630081768177  7.06288478897890 -0.14640830663066
 1 -4.21945224102410  6.13481936503650 -1.80929874597460
 1 -5.47450927402740  6.12930567156716 -0.51026616831683
 1 -4.75068959005901  4.60527201950195 -1.23604334273427
 1  3.32588789528953 -4.56296052625262  2.13497213421342
 1  7.80856810151015 -2.04601525382538  1.86261642424242

