%nproc=4
%Mem=4GB
# td=(NStates=1) B3LYP/SVP 

TD

0 1
 8 -4.53500362116212 -4.67104718591859  1.83957932153215
 8  2.98269886798680 -4.71571612081208  1.34288222002200
 8  7.02059244064406 -1.51026856795680  1.85330555105511
 8  4.05664739753975 -3.26135526072607 -0.08229537113711
 8  7.77192594459446 -0.37768914821482 -0.07656722602260
 8 -3.00431075987599  2.41971936943694 -0.38059296389639
 7 -0.29286366806681 -0.56118546834683 -0.43606224242424
 7  1.57895557825783  1.79697207600760 -0.33718538063806
 7 -3.46496343934393 -3.01085013181318  0.55458392969297
 7 -0.75090649354936  2.85131554975498 -0.01861688558856
 6  0.57596882928293 -2.40555599389939 -1.27359944304430
 6  0.90915984978498 -1.14835478657866 -0.83591614691469
 6 -0.77938226332633 -2.61478536793679 -1.13559375877588
 6 -1.33504561076108 -1.40125376727673 -0.62992445834583
 6  3.81401934323432  1.38791327662766 -0.36628284468447
 6  2.46976766976698  0.80568189999000 -0.60376193479348
 6  2.19291629592959 -0.54647079287929 -0.82442468746875
 6  3.58592242914291  2.74919292749275  0.00006923402340
 6  1.57092824532453 -3.39748501430143 -1.80429063006301
 6 -5.62225156035604 -2.56771868146815  1.36080602060206
 6 -3.65886794969497 -1.72632769476948  0.04584836983698
 6  2.13225748594860  2.98430485868587 -0.01273875087509
 6 -5.13219941624162 -1.49246474967497  0.35962460136014
 6  5.05404388248825  0.65285495549555 -0.43573663006301
 6 -2.71875283748375 -0.86102287388739 -0.45802621702170
 6 -1.56241417911791 -3.71572607490749 -1.74279752345235
 6 -4.47773524032403 -3.61183968966897  1.25673478807881
 6  1.96753722972297 -4.58423064276428 -0.88687154295430
 6  5.38721859815982 -0.27390345424542  0.64601270737074
 6  4.55349113531353  3.82875410671067  0.25905808960896
 6  1.32231347274727  4.05034944244424  0.30609072857286
 6 -7.01802293289329 -3.16337371717172  1.12149161526153
 6 -5.91159976247625 -0.63091782168217 -0.23090456485649
 6 -0.03888887788779  3.90615528712871  0.28503712931293
 6 -0.97122808450845  5.04928602160216  0.59088371697170
 6 -2.19688501470147  4.66466258905891  0.41122252515251
 6  3.09476231753175 -4.06976359545955  0.15325672467247
 6 -5.59955461626163  0.44718994759476 -1.26679774677468
 6  6.90446301250125 -0.68242652675268  0.66943006560656
 6 -3.63827958725873  5.21848814701470  0.38534935003500
 6 -2.05128856515652  3.12022421372137  0.02187311211121
 6 -0.51410554805481  6.47428129612961  0.87804289408941
 6 -4.02973151005100  5.58812721762176 -1.03422419811981
 1 -0.32958052295230  0.43708941454145 -0.06304685798580
 1  3.13694770937094 -1.16057805990599 -1.12640214881488
 1  2.60276152705271 -3.13620832773277 -2.23711614631463
 1  1.22590937023702 -3.98694061166117 -2.74566693319332
 1 -5.46960876707671 -2.23588197729773  2.42522468296830
 1  5.21771208140814  0.22743746024603 -1.46042919591959
 1  6.16535850145014  1.26304061336134 -0.59554085368537
 1 -3.04633272897290  0.01377587378738 -0.77439034463446
 1  0.56429276097610  1.72258344134413 -0.38092756485649
 1 -1.53952954415442 -4.72911501570157 -1.01822262796280
 1 -2.61154478417842 -3.28561626362636 -1.95803512371237
 1 -1.26445639673967 -3.81386956135614 -2.79971357435744
 1 -2.50869462726273 -3.35579172757276  0.50436768376838
 1  1.27964377107711 -5.06662914541454 -0.35859957745775
 1  2.21790097589759 -5.72280498899890 -1.26625113901390
 1  4.86563098409841 -1.33359941104110  0.72691327752775
 1  5.10800500010001  0.07629206580658  1.66459092979298
 1  4.69288680898090  4.74120458785879 -0.44458444114411
 1  5.60146676947695  3.21938465766577  0.05553207640764
 1  4.30589000640064  3.99923543164316  1.39216051995199
 1  1.85759159115912  4.88366829642964  0.77121690859086
 1 -7.67685045664567 -2.40772676717672  1.32003669766977
 1 -7.14109975427543 -3.90490825672567  1.75258762666267
 1 -7.19438762276228 -3.71298906240624 -0.04517292809281
 1 -7.00371771347135 -0.53583391469147  0.36024795269527
 1 -5.09422426422642  1.22472666956696 -0.87504135223522
 1 -6.65198702840284  0.99453708200820 -1.47094377287729
 1 -4.97127562306231  0.15894274047405 -2.07220843354335
 1 -3.82761264056406  6.08754140994099  1.00481818581858
 1 -4.29744742224222  4.52659179137914  0.92324446224622
 1  0.11238580388039  6.56320828072807  1.75648838133813
 1 -1.48238962226223  7.11319801530153  1.12882213861386
 1  0.09588877647765  6.91269977047705  0.02469880408041
 1 -3.39610990679068  6.09734561766177 -1.45941375747575
 1 -5.00841266436644  6.06196893789379 -1.16661180288029
 1 -3.99278379947995  4.65952744504451 -1.60447018541854
 1  3.62736804330433 -4.47004123432343  2.04170280728073
 1  7.98182542724272 -1.69726037833783  1.84473463606361

