%nproc=4
%Mem=4GB
# td=(NStates=1) B3LYP/SVP 

TD

0 1
 8 -4.52022214301430 -4.62200228142814  1.87837320092009
 8  2.88283888198820 -4.87208175737574  1.29233716551655
 8  7.02163254465447 -1.46540408150815  1.93192341284128
 8  3.82386411921192 -3.12698182338234  0.12498535693569
 8  7.54800355235523 -0.71345272457246 -0.21640120942094
 8 -3.03075340414041  2.38663606110611 -0.03273817841784
 7 -0.32069645134513 -0.51893124292429 -0.67149578577858
 7  1.53622130483048  1.81817419621962 -0.36004766686669
 7 -3.45229217221722 -3.03044209100910  0.53518198949895
 7 -0.71563296619662  2.84587500570057  0.01460643674367
 6  0.66130736313631 -2.42184762306231 -1.29602168526853
 6  0.95896483028303 -1.05710566166617 -1.00468302360236
 6 -0.70991531663166 -2.70374426382638 -1.32344254365437
 6 -1.30608271447145 -1.52838648054805 -0.85856732263226
 6  3.81846978827883  1.47271175647565 -0.37707392379238
 6  2.54209490249025  0.77978931073107 -0.54860641924192
 6  2.24296130043004 -0.47809395519552 -0.80849309430943
 6  3.53413725062506  2.72258026622662  0.09285851295130
 6  1.67642879537954 -3.51389665546555 -1.81629183018302
 6 -5.52758209340934 -2.43577548714872  1.41182112211221
 6 -3.68941100400040 -1.86045110711071 -0.07514372937294
 6  2.13091735193519  3.01880830903090 -0.05330280728073
 6 -5.00788698499850 -1.44352985618562  0.37185582448245
 6  5.09518799689969  0.72919258925893 -0.48944200060006
 6 -2.66718768096810 -1.07035380698070 -0.50873128752875
 6 -1.41973991169117 -3.86619112141214 -1.85595883958396
 6 -4.46825429222922 -3.54856336203620  1.36700581518152
 6  2.12558303430343 -4.57670989068907 -0.82291514731473
 6  5.41192106840684 -0.28816488038804  0.71013912001200
 6  4.55106089228923  3.84897612891289  0.37583976777678
 6  1.33742498389839  4.18310271777178  0.24799491899190
 6 -6.94307543814381 -2.96192357215722  1.27941740784078
 6 -5.85671427392739 -0.53829855975598 -0.30091156555656
 6 -0.04614960396040  4.05149982158216  0.24976360196020
 6 -0.96964792649265  5.12598369136914  0.51445607420742
 6 -2.25135046124612  4.67624374717472  0.45491689458946
 6  3.01157399869987 -3.97201382048205  0.29249064806481
 6 -5.42257691849185  0.43354858345835 -1.47567863486349
 6  6.73744631083108 -0.83832211631163  0.69193231583158
 6 -3.59975573487349  5.25271156935694  0.50528134323432
 6 -2.05813925022502  3.16079827112711  0.06878780358036
 6 -0.50420455795580  6.54664853285329  0.71767685748575
 6 -4.30227876477648  5.40793919881988 -0.78778955465547
 1 -0.52843040794079  0.34102980858086 -0.18357891119112
 1  3.16944095869587 -1.10146214831483 -0.82699220782078
 1  2.52686393729373 -2.91767647454746 -2.42190462516252
 1  1.11838861816182 -4.01187310491049 -2.61083344984499
 1 -5.33666547274728 -1.95715410451045  2.54524668516852
 1  5.20332064226423  0.27542225872587 -1.36033918691869
 1  5.96190815641564  1.38527283658366 -0.53647494709471
 1 -2.65900399609961 -0.03223872767277 -0.68797170277028
 1  0.43334966666667  1.79915109810981 -0.54222369446945
 1 -1.58879447064706 -4.82633473767377 -1.21646245194519
 1 -2.63901753145314 -3.56321402340234 -1.98801812201220
 1 -1.24472442354235 -4.19176735113511 -3.04537814081408
 1 -2.57409116691669 -3.62633878227823  0.57438468546855
 1  1.28370417711771 -5.11438392089209 -0.40815453295330
 1  2.69357854365437 -5.15583829232923 -1.40704521842184
 1  4.69788420942094 -1.15068111921192  0.59306989318932
 1  5.11634583418342  0.09069350595060  1.64769924062406
 1  4.24720224052405  4.64518498589859 -0.09258924162416
 1  5.41373799659966  3.44191691089109 -0.14897837463746
 1  4.88339775717572  3.99445495359536  1.52134343824382
 1  1.58303413541354  4.99020895049505  0.58027781468147
 1 -7.53841661326133 -2.12642863736374  1.52299699369937
 1 -7.09509515381538 -3.88053581948195  1.83834620252025
 1 -7.01676986098610 -3.39004676817682  0.40062165136514
 1 -6.86087342904290 -0.61883221452145  0.28831075897590
 1 -4.99753459525953  1.42836703360336 -0.88049189728973
 1 -6.39203103280328  0.74953258155816 -1.91243792229223
 1 -4.73384187968797 -0.10282343614361 -2.25684689738974
 1 -3.71974185348535  6.18701135693569  1.13512121612161
 1 -4.19906758425843  4.54726385858586  1.08670080788079
 1  0.09217378267827  6.83340530043004  1.70615334783478
 1 -1.63359474277428  7.10700739623962  0.63909316571657
 1  0.03210239783978  7.14330283078308 -0.04713837963796
 1 -3.68860915671567  5.84136001910191 -1.61134895099510
 1 -5.39137096019602  5.93094583558356 -0.78076321802180
 1 -4.58635315641564  4.35503699599960 -1.26600633903390
 1  3.52261756825683 -4.42490672087209  1.87986662366237
 1  8.11771901660166 -1.46898755105511  1.76170633323332

