%nproc=4
%Mem=4GB
# td=(NStates=1) B3LYP/SVP 

TD

0 1
 8 -4.43944406520652 -4.78181826302630  1.76693205680568
 8  2.93056365446545 -4.92071662086209  1.16776470827083
 8  6.86353673507351 -1.67657519861986  1.98259848034803
 8  3.82127386018602 -3.10835996119612  0.08522138053805
 8  7.58081683368337 -0.63574495379538  0.15501593229323
 8 -3.03160348914892  2.53418081558156 -0.24555946054605
 7 -0.31076545824582 -0.60344969476948 -0.65283391959196
 7  1.47299498219822  1.84841722052205 -0.55246690879088
 7 -3.28926586958696 -3.06382542934293  0.73772224352435
 7 -0.81322272517252  3.01102152035204 -0.29859488338834
 6  0.64211544394439 -2.45819125742574 -1.35491757485749
 6  0.94249318311831 -1.12804275537554 -1.01360391569157
 6 -0.77171149624962 -2.81870575997600 -1.25246544594459
 6 -1.34349645584558 -1.50607424932493 -0.82294376027603
 6  3.81585952725273  1.40740522582258 -0.29593580998100
 6  2.48182887588759  0.86991832363236 -0.68318987758776
 6  2.19783678797880 -0.48431457725773 -0.95745799079908
 6  3.55044888178818  2.83314132233223 -0.13915468836884
 6  1.62753390589059 -3.47444271007101 -1.89787998899890
 6 -5.56412574777478 -2.63114502410241  1.44620456045605
 6 -3.63693575647565 -1.83674873687369  0.22458624362436
 6  2.10011427162716  2.92823925212521 -0.10374785178518
 6 -5.07808400470047 -1.57501300450045  0.53789242814281
 6  5.08990746884689  0.67917758775878 -0.34625768216822
 6 -2.74396535873587 -1.07295406700670 -0.36505692009201
 6 -1.51021895959596 -3.93878838113811 -1.70962420612061
 6 -4.41318878567857 -3.70486899259926  1.34812392699270
 6  2.10551102710271 -4.47196941664166 -1.03380623642364
 6  5.39541941824182 -0.20001606550655  0.85326343244324
 6  4.62375816201620  3.82383361466147  0.22844502830283
 6  1.31889313071307  4.06766117361736  0.25297541704170
 6 -6.83888501910191 -3.30715809560956  1.10114958105811
 6 -5.79589819231923 -0.63000773067307 -0.11848332273227
 6 -0.07926291529153  4.08554322592259  0.13788241384138
 6 -0.97850881258126  5.22701379437944  0.45680030863086
 6 -2.28979430563056  4.75373149594959  0.38395979887989
 6  3.00862370367037 -4.02339895899590  0.09106050505051
 6 -5.40735539633963  0.38674390299030 -1.08454952195220
 6  6.74487705390539 -0.83101138523852  0.87411053365337
 6 -3.53021878117812  5.58007430563056  0.48379919501950
 6 -2.09411284758476  3.38072026332633 -0.13400247544754
 6 -0.44158829632963  6.61947581558156  0.94033912371237
 6 -4.16121465836584  5.91388979387939 -0.89156993269327
 1 -0.35878344324432  0.23559926552655 -0.16646720002000
 1  3.01343535813581 -1.11315331743174 -1.07193670227023
 1  2.61873312421242 -2.89855456235624 -2.37361979667967
 1  1.20613739303930 -3.81274319191919 -2.76816918341834
 1 -5.64193599979998 -2.35081347044704  2.52346450695069
 1  5.21106141634163  0.15603031953195 -1.37386053905391
 1  5.96023798939894  1.26251056035604 -0.47798909850985
 1 -2.77676577227723 -0.06544204800480 -0.69458236383638
 1  0.45215154685469  2.07977916091609 -0.62192166426643
 1 -1.68658424962496 -4.71275337953795 -0.95313611931193
 1 -2.67915154485449 -3.92821052305231 -1.92248156835684
 1 -1.00662061316132 -4.46548472287229 -2.56903050605061
 1 -2.40502426022602 -3.38593474187419  0.86931417841784
 1  1.18259406610661 -5.00299278177818 -0.57901161866187
 1  2.61681086688669 -5.46373908240824 -1.37691220512051
 1  4.60743516451645 -0.97828387948795  1.03703428962896
 1  5.35868006760676  0.42787722432243  1.79490396109611
 1  4.76011353165317  4.58400886828683 -0.62296227892789
 1  5.64871149394939  3.28459117831783  0.79624614781478
 1  4.07211662906291  4.36798230633063  1.10986229012901
 1  1.79983581558156  5.04225415501550  0.81743153005301
 1 -7.69426219781978 -2.72738873337334  1.37429212321232
 1 -6.90950659495950 -4.14422218811881  1.66656902480248
 1 -6.69676786078608 -3.63620138363836 -0.06714512531253
 1 -6.79851719341934 -0.51743207450745  0.12395432333233
 1 -4.79016385818582  1.10344454135414 -0.66027987608761
 1 -6.10780260996100  0.80962859115912 -1.70124680318032
 1 -4.83051154665467 -0.16764991879188 -1.92792400510051
 1 -3.38733861316132  6.57080973677368  0.81499920392039
 1 -4.24523220072007  5.07316644884488  1.01143328112811
 1  0.21394595989599  6.56853881378138  1.92111484398440
 1 -1.18361974527453  7.16514320982098  1.30616987338734
 1  0.03272245984598  7.15515401590159  0.19303563776378
 1 -3.62761305710571  6.54365024812481 -1.49885770187019
 1 -5.19373119621962  6.41176391739174 -0.38646378807881
 1 -4.49291381248125  4.83012450475048 -1.42577231563156
 1  3.62515782228223 -4.71650588078808  1.87962659965997
 1  7.68204544924492 -2.10014066636664  2.26463662626263

