%nproc=4
%Mem=4GB
# td=(NStates=1) B3LYP/SVP 

TD

0 1
 8 -4.34859498029803 -4.81201128232823  1.89842520612061
 8  2.77315791389139 -4.81430597979798  1.18634656645665
 8  7.09500988238824 -1.44698223932393  1.82771299179918
 8  3.74142587538754 -3.20124925012501  0.00238309670967
 8  7.41676042804280 -0.73894527382738 -0.15992556185619
 8 -2.95450577937794  2.47901529902990 -0.18731363596360
 7 -0.30106448814881 -0.52475182498250 -0.56806544274427
 7  1.50759844254425  1.87072945174517 -0.20627228932893
 7 -3.37299424242424 -3.10525957275728  0.60060853215322
 7 -0.72251365426543  2.94875529372937  0.06374135023502
 6  0.62513374577458 -2.37726316461646 -1.33335541864186
 6  0.88515744954495 -1.16414636573657 -0.91517407270727
 6 -0.79547387248725 -2.65211910131013 -1.23309350875087
 6 -1.28468057425743 -1.46565020692069 -0.79210067596760
 6  3.73653159445945  1.47861234653465 -0.27296351275127
 6  2.40398109110911  0.89964129592959 -0.54339589818982
 6  2.19687669196920 -0.49784593039304 -0.79097134213421
 6  3.58401223812381  2.84205221342134  0.07228645574557
 6  1.62828398089809 -3.41288655445545 -1.92455265626563
 6 -5.48942827802780 -2.81634354395440  1.38717865786579
 6 -3.59783184608461 -1.82724778677868  0.15150893589359
 6  2.17360162036204  3.03829025722572  0.03283580658066
 6 -5.07565376167617 -1.58001350455045  0.45694433333333
 6  4.99924840294029  0.68075774577458 -0.32412546894689
 6 -2.65568653085309 -1.05364213581358 -0.37394780918092
 6 -1.60074801250125 -3.82350685298530 -1.69471271497150
 6 -4.28646611341134 -3.73626213191319  1.30406952155216
 6  2.03794427042704 -4.60700291999200 -1.04021687748775
 6  5.36788666496650 -0.13937000090009  0.87179528562856
 6  4.69284507070707  3.78098933023302  0.33797598139814
 6  1.35664690609061  4.06318072557256  0.36273639313931
 6 -6.85365649624963 -3.34266164596460  1.14032349844984
 6 -5.81520012251225 -0.60075480538054 -0.18167964236424
 6 -0.07502249124912  4.06721139273927  0.25088371397140
 6 -0.96443740544054  5.24517561056106  0.53689831843184
 6 -2.25289061526153  4.75559168196820  0.32552395529553
 6  2.81762460376038 -4.02680930003000  0.11678307730773
 6 -5.51199586038604  0.41001623022302 -1.22896396339634
 6  6.73233579977998 -0.81197948204820  0.75856897949795
 6 -3.57849360866087  5.46058235643564  0.18956977207721
 6 -2.02953638993899  3.28406059735974 -0.00806988218822
 6 -0.36225036253625  6.52578644664466  0.67378246804680
 6 -4.10670920782078  5.73759216411641 -1.11669244494449
 1 -0.45212277717772  0.29920562616262 -0.20522107540754
 1  3.14724873947395 -1.10581258335834 -0.93996350495049
 1  2.44318556945695 -2.91763647054705 -2.51062349704971
 1  1.15370214951495 -3.81891380898090 -2.80797316381638
 1 -5.29833163936394 -2.22249063816382  2.47632979347935
 1  5.04809511971197  0.12928764526453 -1.31716486948695
 1  5.83159512511251  1.49070337963796 -0.41932323192319
 1 -2.89698779447945 -0.03039854365437 -0.66110901650165
 1  0.49204553625363  2.02280346334633 -0.49774924702470
 1 -1.97113270447045 -4.72211431563156 -1.05452625832583
 1 -2.57695132483248 -3.31216891889189 -1.96917623782378
 1 -1.24660461156116 -4.35690386478648 -2.65431903490349
 1 -2.39534329212921 -3.43872002040204  0.46416366336634
 1  1.05804161086109 -5.05996847934793 -0.59215293279328
 1  2.46275546134613 -5.64862757125713 -1.25092960686069
 1  4.75272969396940 -1.14509056015602  0.94134472067207
 1  5.37174137373737  0.36427086368637  1.85019949064906
 1  4.57695521582158  4.64438490589059 -0.50105008770877
 1  5.46498312111211  3.33178589778978  0.05303182638264
 1  4.92299171657166  4.22796830493049  1.42397370127013
 1  1.73317914991499  5.19523945354535  0.51259104600460
 1 -7.64556732833283 -2.63180917541754  1.53802849684969
 1 -7.04243988828883 -4.23929169506951  1.62292466036604
 1 -6.90769895389539 -3.44320208370837 -0.05905431623162
 1 -6.89784712641264 -0.51618194949495  0.19239116701670
 1 -4.60576541834183  1.20156435333533 -0.94645849394940
 1 -6.53908573827383  0.73256088438844 -1.62787946644665
 1 -5.03318181368137 -0.29311246504650 -2.10327153985399
 1 -3.70816069536954  6.46279893569357  0.93630133413341
 1 -4.47806548404840  5.04301343354335  0.73312545034503
 1  0.28125269056906  6.64332629252925  1.59439217171717
 1 -1.06377776107611  7.38648534403440  0.77893715011501
 1  0.20897008460846  6.82347084758476 -0.20097376317632
 1 -3.67418771457146  6.59430531363136 -1.85055287138714
 1 -5.25702752585259  5.98539128012801 -1.11621676337634
 1 -3.94036855795579  4.89073056535654 -1.82211194959496
 1  3.40276558305831 -4.60147437763776  1.73386202320232
 1  7.91779902460246 -1.85200585288529  1.82056221882188

