%nproc=4
%Mem=4GB
# td=(NStates=1) B3LYP/SVP 

TD

0 1
 8 -4.55708582938294 -4.75654573577358  1.69297466106611
 8  2.69391999009901 -4.67029157835784  1.55403333513351
 8  7.16467684908491 -1.46299384048405  1.70284050455046
 8  3.79647137993799 -3.29764889008901  0.19662252065207
 8  7.49995874787479 -0.59828120742074 -0.29879944924492
 8 -3.05954628342834  2.49805720322032 -0.40098500310031
 7 -0.26920130183018 -0.57845719551955 -0.57638627482748
 7  1.52058974167417  1.80648302710271 -0.33134479657966
 7 -3.36023296629663 -3.17074612141214  0.64189266056606
 7 -0.72547395029503  2.90782120032003  0.02304728082808
 6  0.61525275767577 -2.47860329862986 -1.44260634373437
 6  0.84981391519152 -1.25572552365237 -1.00749330463046
 6 -0.72134645974597 -2.63829771917192 -1.29863006240624
 6 -1.27335944214421 -1.41992563446345 -0.73387485338534
 6  3.77041498279828  1.47556204150415 -0.26424264066407
 6  2.47300799379938  0.81476280808081 -0.58691024962496
 6  2.25828283258326 -0.56038218401840 -0.78762100710071
 6  3.62531636853685  2.77627563576358  0.03308253535354
 6  1.52950410291029 -3.54026929272927 -1.91601180218022
 6 -5.55292462766277 -2.57432934253425  1.37926786678668
 6 -3.59655171807181 -1.87860292229223  0.13248703370337
 6  2.11597585778578  2.96476290449045  0.00550307330733
 6 -5.01462765906591 -1.54310981418142  0.34174281318132
 6  5.09766824492449  0.69995966596660 -0.39425248164816
 6 -2.70174113631363 -1.05694246584658 -0.48803921832183
 6 -1.56976491419142 -3.65429993229323 -2.01083432713271
 6 -4.46723419021902 -3.65879438513851  1.26545566016602
 6  2.07306778277828 -4.49519173887389 -0.75482833863386
 6  5.42456233253325 -0.05135119901990  0.82752085818582
 6  4.59589537573757  3.80727195849585  0.26364854865487
 6  1.34092533393339  4.15664007150715  0.43088320782078
 6 -6.87437856845685 -3.26791417121712  1.20607007310731
 6 -5.83892249474948 -0.56462119201920 -0.19502097649765
 6 -0.10936592559256  4.02085675727573  0.33085171077108
 6 -0.99987094879488  5.13934502750275  0.46431105970597
 6 -2.21586691289129  4.62535865866587  0.39100050295030
 6  2.93392623392339 -4.14127074617462  0.40170156915692
 6 -5.38482314311431  0.54073930253025 -1.14601566856686
 6  6.79062162836284 -0.74422270637064  0.64994811741174
 6 -3.55843160246025  5.35630192839284  0.44451526662666
 6 -2.05116855315532  3.24919711101110 -0.04776385158516
 6 -0.45110924842484  6.47649151715172  0.85339042884288
 6 -4.14684322122212  5.64850325522552 -0.91918269396940
 1 -0.26504406930693  0.36515222082208 -0.19888044134414
 1  3.04041805640564 -1.18320032213221 -1.15068457705771
 1  2.35431668256826 -2.92901760866087 -2.36862929762976
 1  1.14619139843984 -4.13579549714971 -2.67558992549255
 1 -5.57535934213421 -1.98978736783678  2.41371353185319
 1  5.06286659685969 -0.08743402690269 -1.39419257225723
 1  5.95749771537154  1.26323063236324 -0.50731203080308
 1 -2.96533462916292  0.01818631483148 -0.59849275487549
 1  0.56340267196720  1.85377656065607 -0.55240471257126
 1 -1.70818640984098 -4.64024612881288 -1.34168497419742
 1 -2.60347397709771 -3.35957365936594 -2.42704202440244
 1 -1.04839479057906 -4.14899307370737 -2.80749435243524
 1 -2.55211896969697 -3.68126427482748  0.44106135313531
 1  1.25226103280328 -4.97172965546555 -0.40692440994099
 1  2.69893907970797 -5.32522523102310 -1.27011152505251
 1  4.66755117611761 -0.84594064516452  1.28974956115612
 1  5.50639483908391  0.65922035863586  1.72258672937294
 1  4.73577109740974  4.57302777017702 -0.66772675537554
 1  5.59911653445345  3.48721144034403  0.37911443464346
 1  4.47576699409941  4.32158766686669  1.26825812971297
 1  1.89002483448345  4.96543647324732  0.80553033993399
 1 -7.67457022862286 -2.54266026052605  1.02342703670367
 1 -6.93682932723272 -3.99007677357736  2.02592496039604
 1 -6.96161434543454 -3.83587135063506  0.30347193639364
 1 -6.80788813051305 -0.54306463776378  0.41381330923092
 1 -4.91845668746875  1.52118631553155 -0.63032688078808
 1 -6.05695752545254  0.83457108540854 -1.76912359085909
 1 -4.53339183468347  0.22917976417642 -1.74875608830883
 1 -3.46646652595260  6.30111276707671  1.10383808780878
 1 -4.32638031553155  4.69112824502450  1.00571270907091
 1  0.10001456675668  6.41611357125713  1.49047177967797
 1 -1.38203958725873  7.23749044454445  1.13309256565657
 1  0.04425361296130  6.78147664816482 -0.07527119291929
 1 -3.45717601340134  6.20562644574457 -1.54027184328433
 1 -5.26468829192919  6.36598933993399 -0.70947608930893
 1 -4.30699522062206  4.71570306260626 -1.47655739413941
 1  3.60107541404140 -4.33384761496150  2.02581121812181
 1  8.11419866456646 -1.58552920522052  1.38199836243624

