%nproc=4
%Mem=4GB
# td=(NStates=1) B3LYP/SVP 

TD

0 1
 8 -4.57615773657366 -4.77791787298730  1.84447981158116
 8  3.13302390049005 -4.50431498069807  1.40625855765577
 8  7.08925930733073 -1.55250279137914  1.83778399889989
 8  3.88277000980098 -3.13584270947095 -0.27547468906891
 8  7.54822357435744 -0.77188856815682 -0.21548111741174
 8 -2.98661899069907  2.42502990049005 -0.26809171377138
 7 -0.30403478517852 -0.61976132593259 -0.54018265446545
 7  1.60165784848485  1.81499387818782 -0.42516417851785
 7 -3.56033297629763 -3.22051109790979  0.69581805310531
 7 -0.69781118401840  2.92149256745675 -0.07803282718272
 6  0.71565279767977 -2.48163360166017 -1.31591367446745
 6  0.90174910871087 -1.12458240934093 -0.90174272957296
 6 -0.76047037213721 -2.63237712711271 -1.15986618601860
 6 -1.32753485968597 -1.52011565346535 -0.64429589548955
 6  3.81916985828583  1.44980946624662 -0.35216143254325
 6  2.45384607760776  0.76746807860786 -0.56067762636264
 6  2.12246925122512 -0.52112825862586 -0.87898014301430
 6  3.54846868376838  2.80878888708871  0.03611283838384
 6  1.59825097759776 -3.42144741054105 -1.80491069206921
 6 -5.72318165336534 -2.61374328392839  1.34886482648265
 6 -3.71530359325933 -1.84685974797480  0.13821760676068
 6  2.15653991419142  2.97822425062506 -0.14206168316832
 6 -5.04272046834683 -1.51443694689469  0.41388002690269
 6  5.19577805590559  0.78673834383438 -0.37757081348135
 6 -2.66397735993599 -1.05259203080308 -0.39777019141914
 6 -1.58161609930993 -3.85688019031903 -1.59123236693669
 6 -4.60272773957396 -3.62044054975498  1.34317343194319
 6  2.04421489748975 -4.60461268096810 -0.73355621142114
 6  5.46106598289829 -0.15998206210621  0.77182528862886
 6  4.54605039123912  3.91818304960496  0.41777396119612
 6  1.29237047844784  4.12764717221722  0.22195231473147
 6 -7.13687481808181 -3.19846722652265  0.96109557565757
 6 -5.86157475997600 -0.58744347424743 -0.19815128952895
 6 -0.02105709470947  3.92983765536554  0.28236686228623
 6 -0.93070403210321  5.09819091209121  0.52563719231923
 6 -2.16987231343134  4.62743886668667  0.31266266916692
 6  3.09381222252225 -3.99625624472447  0.11894329332933
 6 -5.45379003980398  0.31839706830683 -1.37263833083308
 6  6.84010657685769 -0.78506679077908  0.74428755135514
 6 -3.48002376167617  5.37460375857586  0.37313812891289
 6 -2.02275571187119  3.24293648494849 -0.08437751295129
 6 -0.52424656215622  6.49392326032603  1.05266035583558
 6 -4.19792832973297  5.89014741964196 -0.83659443514351
 1 -0.37563512841284  0.41812751835184 -0.47517807110711
 1  2.98938295289529 -1.26226822892289 -0.87197670627063
 1  2.48220947184718 -3.03441814871487 -2.33809624432443
 1  1.12396917621762 -3.91616353395340 -2.62095446194619
 1 -5.59883168936894 -2.27165555465547  2.38500066056606
 1  5.35666597679768  0.13560827732773 -1.33108626162616
 1  5.93780574617462  1.60784509380938 -0.63981528112811
 1 -2.74918301400140  0.01698619481948 -0.75793869946995
 1  0.61771810351035  1.87916909990999 -0.69428890099010
 1 -1.52492808400840 -4.74757686188619 -0.88119892559256
 1 -2.65278890859086 -3.45474317631763 -1.99961928212821
 1 -1.20338028912891 -4.22455062946295 -2.47225082808281
 1 -2.67308106590659 -4.00025617401740  0.43131037803780
 1  1.18028383508351 -4.94265674817482 -0.16125984348435
 1  2.49178836463646 -5.16393910241024 -1.34241875577558
 1  4.61858627962796 -0.95949200030003  0.85962654885489
 1  5.48807300690069  0.32463690029003  1.75546001670167
 1  4.36996451675168  4.71474194159416 -0.29715969866987
 1  5.78376499929993  3.70237295649565  0.17240376357636
 1  4.29567898529853  3.98087359545955  1.43349465336534
 1  2.01688752075207  4.98170810041004  0.62642242914291
 1 -7.96338911051105 -2.36788278277828  0.79736443044304
 1 -7.39998564286429 -4.01027879377938  1.83532590049005
 1 -6.87119530353035 -3.44913267676768 -0.15508391919192
 1 -6.75481282298230 -0.38412874417442  0.03634556245625
 1 -5.02938778057806  1.29183338023802 -1.15170901900190
 1 -6.34542637233723  0.55949357765777 -2.04832151065107
 1 -4.76750524602460 -0.08394154795479 -2.08625983868387
 1 -3.30018989828983  6.26343899969997  1.00109781378138
 1 -4.19152683018302  4.70157929012901  0.88861099889989
 1  0.15349991529153  6.34511647154715  1.95551828432843
 1 -1.42750413371337  7.07231392689269  1.15165442184218
 1  0.09628881648165  7.13429192969297  0.30341667586759
 1 -3.52829312511251  6.42428831193119 -1.73859167526753
 1 -5.23260508360836  6.48875161616162 -0.61276641834183
 1 -4.52827734883488  4.98826031833183 -1.55024476287629
 1  3.90455576207621 -3.79234346454645  1.76146478347835
 1  7.78969621432143 -2.10368102040204  1.55535569816982

