%nproc=4
%Mem=4GB
# td=(NStates=1) B3LYP/SVP 

TD

0 1
 8 -4.60085020582058 -4.85618569976998  1.91820718431843
 8  3.01969256735674 -4.90279482868287  1.27753568536854
 8  7.23455383678368 -1.67354489558956  1.61378159865987
 8  3.78482021482148 -3.18930805600560 -0.01281842344234
 8  7.57170592259226 -0.52961434073407 -0.34895446474647
 8 -2.99936026482648  2.40952835033503 -0.21062596719672
 7 -0.29834421612161 -0.56938628842884 -0.65314395059506
 7  1.52485016771677  1.85120749954996 -0.25914757685769
 7 -3.38908585158516 -3.26396544334433  0.65555402670267
 7 -0.75337674057406  3.01376179437944 -0.13212823672367
 6  0.61234246664666 -2.45678111641164 -1.32154423752375
 6  0.86271520532053 -1.08970892199220 -0.96805936123612
 6 -0.76661098619862 -2.60686457585759 -1.27278747814781
 6 -1.40611271747175 -1.40050369226923 -0.76275774167417
 6  3.77823576487649  1.45842032733273 -0.15458167456746
 6  2.53839453245324  0.87481881368137 -0.44424598319832
 6  2.11223822812281 -0.47579372517252 -0.81533377837784
 6  3.60990482738274  2.77790579877988  0.16700592769277
 6  1.53972512501250 -3.46112137793779 -1.82120232123212
 6 -5.51236057125713 -2.69713162276228  1.27693763376338
 6 -3.56486854975498 -1.92744780678068  0.17795158015802
 6  2.16223048324833  3.03731015921592  0.08749127212721
 6 -5.02156835313531 -1.57623312651265  0.34681332023202
 6  5.06528500660066  0.71896156615662 -0.31000405680568
 6 -2.67254821702170 -1.05495226682668 -0.48333874827483
 6 -1.53128106580658 -3.79985448774877 -1.66917016071607
 6 -4.49506697349735 -3.71119962566257  1.41563067766777
 6  1.94875535153515 -4.48164038373837 -0.75919877567757
 6  5.50845072137214 -0.23023908780878  0.81472957905791
 6  4.63627941414141  3.77366859815982  0.60462264606461
 6  1.30927216861686  4.17077148464846  0.31540165966597
 6 -7.05752688328833 -3.13547092689269  1.15979544564456
 6 -5.74862346484648 -0.55175990589059 -0.26104757915792
 6 -0.03158814781478  4.13999867146715  0.21307993359336
 6 -1.00312127382738  5.19104019701970  0.45339996859686
 6 -2.31396672287229  4.68217434023402  0.27696909980998
 6  3.01235407670767 -4.03970058915892  0.29219061806181
 6 -5.47245190599060  0.44806003460346 -1.33566463346335
 6  6.79842240844084 -0.80306859095910  0.54187731033103
 6 -3.59200495979598  5.33547984618462  0.32690350545054
 6 -2.09374281058106  3.21733392469247 -0.05098417361736
 6 -0.59685382288229  6.57801166916692  0.80541563136314
 6 -4.04570310721072  5.81079948484849 -1.14872564826483
 1 -0.58850641554155  0.53676938253825 -0.50287084038404
 1  2.90959497409741 -1.04778678077808 -0.90820032863286
 1  2.39915116601660 -2.95195990289029 -2.34454688938894
 1  1.07349412871287 -4.25068698629863 -2.59897226372637
 1 -5.52218402460246 -2.28215660476048  2.33897605810581
 1  5.13863417361736  0.19789450595059 -1.40311346434643
 1  5.82204417001700  1.49262357165717 -0.41354265386539
 1 -2.83957205290529  0.01377587378738 -0.69181208680868
 1  0.48069440114011  2.08799998299830 -0.41536100820082
 1 -1.47513310451045 -4.69282138633863 -0.94789559525953
 1 -2.59671330103010 -3.66867456945695 -1.88328764896490
 1 -1.01288123922392 -4.18763693809381 -2.47715131813181
 1 -2.44562832063206 -3.64173032143214  0.81707895489549
 1  1.13848965566557 -5.06023850635064 -0.39393311081108
 1  2.48944813061306 -5.25637834633463 -1.34210872477248
 1  4.90563498449845 -1.11530758185819  0.74425501170117
 1  5.34603880348035  0.11279571617162  1.87260173087309
 1  4.58035555585559  4.70035050245025 -0.03352333503350
 1  5.61832845564556  3.35720844004400  0.33495001820182
 1  4.44446386378638  3.86904241234123  1.72367367126713
 1  1.69286511851185  5.37967789738974  0.38572835973597
 1 -7.52660543214321 -2.38645463996400  1.30033472747275
 1 -7.04541018531853 -3.94017178307831  1.83993636153615
 1 -7.24027221122112 -3.38136590009001  0.18834042324232
 1 -6.83587092879288 -0.78778911021102  0.02481440934093
 1 -5.02662750455045  1.45652984988499 -0.95360920902090
 1 -6.50762259195920  0.93346097439744 -1.56007268576858
 1 -4.70629912541254  0.10668751495150 -1.96038725142514
 1 -3.54455433473347  6.08518117391739  1.14530223422342
 1 -4.10710838833883  4.35699483168317  0.65868800660066
 1 -0.11512694739474  6.74683664356436  1.82486521902190
 1 -1.36242762606261  7.35614230973097  0.95545480188019
 1  0.03766295389539  7.23792229272927  0.14910124432443
 1 -3.22531282708271  6.76048193129313 -1.48991680778078
 1 -5.13968579167917  6.06878961996200 -1.37751289298930
 1 -3.91316583768377  5.13290478277828 -2.08039777817782
 1  3.66927223372337 -4.44119835003500  2.03168180518052
 1  8.18363560826083 -2.00267091939194  1.54517468006801

