%nproc=4
%Mem=4GB
# td=(NStates=1) B3LYP/SVP 

TD

0 1
 8 -4.47099722052205 -4.73239332053205  1.90239560316032
 8  2.89439003710371 -4.90970551975197  1.20308824062406
 8  7.02753313471347 -1.53353089418942  1.85988620912091
 8  3.92019375217522 -3.24597372257226  0.04102696109611
 8  7.66040479247925 -0.60357173647365 -0.02330189948995
 8 -3.07060738953895  2.51298869636964 -0.27977288188819
 7 -0.35076945864586 -0.58577792759276 -0.52310094629463
 7  1.50449813251325  1.70146252505251 -0.48895055715572
 7 -3.38227517051705 -2.99133818061806  0.71655012631263
 7 -0.82075347824782  2.86907732593259  0.01585656175618
 6  0.65943717611761 -2.48496393469347 -1.32663474657466
 6  0.92435136893689 -1.22828277937794 -0.84826738203820
 6 -0.75473979907991 -2.64007789718972 -1.34470466986699
 6 -1.34862696889689 -1.47982162406241 -0.83583504940494
 6  3.84679262056206  1.47930241554155 -0.42826904330433
 6  2.44808550155015  0.77104843664366 -0.72997455605561
 6  2.24269127342734 -0.51474762056206 -0.92992523752375
 6  3.54754859175918  2.74056206440644 -0.06927770067007
 6  1.58322947544754 -3.43329859565957 -1.92295249624962
 6 -5.52684201940194 -2.53126503610361  1.34671461146115
 6 -3.64475653855386 -1.76305136713671  0.16207999299930
 6  2.14490875107511  2.84731115931593 -0.03504098109811
 6 -5.08098429472947 -1.48816431963196  0.25359399829983
 6  5.20224870297030  0.86145581558156 -0.47977103350335
 6 -2.71306226842684 -1.01201797339734 -0.48209862426243
 6 -1.54700263796380 -3.87681218351835 -1.71089433313331
 6 -4.42474994179418 -3.59269777547755  1.37768688328833
 6  2.14698517451745 -4.58512073177318 -0.93679653545355
 6  5.38675855215522  0.01499543564356  0.80354846094609
 6  4.52681846804680  3.82432366366637  0.38990117391739
 6  1.37198844024402  4.01519592709271  0.26311643114311
 6 -7.04937606820682 -3.10878825862586  1.27877734383438
 6 -5.82250085258526 -0.45562029192919 -0.28368984338434
 6 -0.02785777477748  3.95267993959396  0.33711233683368
 6 -1.00175113681368  5.05187628062806  0.50657528612861
 6 -2.23637896409641  4.68423454625463  0.39608101100110
 6  3.06799964126413 -4.14319093819382  0.14281568056806
 6 -5.49176383718372  0.46095132373237 -1.35283635063506
 6  6.78980154635464 -0.71586987108711  0.84258738133813
 6 -3.57458321762176  5.43671997019702  0.44794560966097
 6 -2.08468190449045  3.25324751605161  0.10746167096710
 6 -0.52365650315031  6.46552042004200  1.02849793959396
 6 -4.17782631953195  5.57088549344935 -1.04354513021302
 1 -0.57118468336834  0.35003070867087  0.01817126382638
 1  3.10982499709971 -1.05985798789879 -1.25565507410741
 1  2.60638188908891 -2.77712241914191 -1.99351178587859
 1  1.37991477077708 -3.95021693929393 -2.88844121062106
 1 -5.60298210441044 -2.12119050815081  2.49935209570957
 1  5.34351466166617  0.14066878337834 -1.27157031003100
 1  6.01452341794179  1.58171248054805 -0.47459875947595
 1 -2.97462555825582  0.08254275047505 -0.71297420302030
 1  0.41293762546255  1.89905108810881 -0.52793226532653
 1 -1.62652824402440 -4.49980208440844 -0.80953175887589
 1 -2.47359098879888 -3.48402610461046 -2.11760108030803
 1 -0.90760071117112 -4.28382655705571 -2.50369397239724
 1 -2.55837959575958 -3.49515566396640  0.57453470047005
 1  1.23638944564456 -5.15282776527653 -0.25404912241224
 1  2.54752393819382 -5.66226893539354 -1.28544305820582
 1  4.77369179017902 -0.97618366946695  0.95230581678168
 1  5.12037623722372  0.56538097469747  1.68450292099210
 1  4.43109062936294  4.79830029742974 -0.24476445914591
 1  5.48881550435043  3.51872459165917  0.45690221342134
 1  4.09671908930893  4.28857436553655  1.34239554345435
 1  1.92638847084709  4.96566649624962  0.47916770367037
 1 -7.64663743534353 -2.16075206970697  1.51538623262326
 1 -7.12546819111911 -3.90873863976398  1.91363373127313
 1 -7.11548973297330 -3.50476824032403  0.14872646184618
 1 -7.01243858555856 -0.52291262256226  0.06624855275527
 1 -5.00156499829983  1.38900309720972 -0.98202205030503
 1 -6.35460729042904  0.76302393069307 -1.94185086358636
 1 -4.85822431793179  0.01761860806081 -1.96219743244324
 1 -3.37765764506451  6.50239289508951  0.85022272627263
 1 -4.31036871437144  4.99604873707371  1.13115525332533
 1  0.23867843314331  6.54719667956796  1.80296302880288
 1 -1.36913829712971  7.22479917541754  1.08832808920892
 1 -0.07420823322332  6.89460796129613  0.15968230243024
 1 -3.62303259905991  6.21445732883288 -1.64249206530653
 1 -5.15085690879088  6.06353909490949 -0.97150229192919
 1 -4.12426694779478  4.56297779007901 -1.56608634703470
 1  3.42421772827283 -4.63701793199320  1.95153379037904
 1  8.07672491719172 -1.56664731703170  1.72264242684268

