%nproc=4
%Mem=4GB
# td=(NStates=1) B3LYP/SVP 

TD

0 1
 8 -4.38150827162716 -4.75761584278428  1.89305466906691
 8  2.83800439853985 -4.76179072827283  1.31117904970497
 8  7.10523090449045 -1.63989153025303  1.76653687418742
 8  3.67406913971397 -2.98958808400840  0.22021487988799
 8  7.65056380838084 -0.67751913121312 -0.18131770107011
 8 -3.04381471027103  2.57887528502850 -0.35611051565157
 7 -0.29899428112811 -0.59570892069207 -0.63092172837284
 7  1.58689637233723  1.80796317511751 -0.48774043614361
 7 -3.43305024802480 -3.05466451325133  0.57809628092809
 7 -0.69329073197320  3.02362278047805 -0.18692371627163
 6  0.59708094049405 -2.50005544384438 -1.28667075017502
 6  0.94195312911291 -1.10589054015402 -0.96623917921792
 6 -0.80403472857286 -2.74529841924192 -1.15967616701670
 6 -1.35215732193219 -1.51325496739674 -0.68403986988699
 6  3.82739068036804  1.42281676697670 -0.36173238963896
 6  2.58815950895089  0.79828115991599 -0.59778133673367
 6  2.27583458775878 -0.60969711551155 -0.87226947194719
 6  3.65134897179718  2.75323333153315 -0.00932170507051
 6  1.69951110361036 -3.51436670247025 -1.80672087308731
 6 -5.59352868806881 -2.62352426202620  1.27783772377238
 6 -3.77355941884188 -1.78997405940594 -0.03799001400140
 6  2.11556581678168  2.93213964216422 -0.05188266526653
 6 -5.14783097939794 -1.45340084328433  0.34326296519652
 6  5.11187966606661  0.69309897989799 -0.45170822722272
 6 -2.65929689188919 -1.12872964456446 -0.49619003340334
 6 -1.56984492219222 -3.97301180348035 -1.65223846754675
 6 -4.43705117191719 -3.64798330403040  1.28523763836384
 6  2.13499397539754 -4.50361258095810 -0.87648050385038
 6  5.57467734403440 -0.08401446534653  0.83372147824782
 6  4.62560834703470  3.77049828112811  0.49474165796580
 6  1.34862610401040  4.11205561306131  0.17285740524052
 6 -6.98006913751375 -3.29155653545355  1.03516298239824
 6 -5.93380198269827 -0.51946667656766 -0.19418089248925
 6 -0.06323131213121  4.01989666126613  0.14912353795380
 6 -0.96218718041804  5.09884097709771  0.53754838343834
 6 -2.20664599079908  4.77684380718072  0.32478388128813
 6  3.01958479977998 -3.95816243534353  0.22837423642364
 6 -5.53167782858286  0.41475670427043 -1.16292735973597
 6  6.83613617981798 -0.78234651875188  0.77306042864286
 6 -3.61372713201320  5.39274557275728  0.58098891399140
 6 -2.13949738603860  3.28071026232623 -0.12393146834683
 6 -0.57398153565357  6.56951081908191  0.83741883168317
 6 -4.31242977987799  5.79668807370737 -0.70892166786679
 1 -0.46052361726173  0.27867357295730 -0.10654120742074
 1  3.04399841444144 -1.31706370847085 -0.93566307490749
 1  2.58331958285829 -3.12106681358136 -2.30700313501350
 1  1.10418719801980 -3.87981989958996 -2.63565593209321
 1 -5.59986179237924 -2.36323471257126  2.16777893839384
 1  5.18678898909891 -0.04419970347035 -1.24882803580358
 1  5.89757172277228  1.42078638793879 -0.79645094469447
 1 -2.87719581528153 -0.06573207700770 -0.78578148374838
 1  0.50957728942894  1.69275045804580 -0.25168464056406
 1 -1.86575216641664 -4.91488359255926 -1.07479828552855
 1 -2.57144077377738 -3.66278398039804 -2.15439475967597
 1 -0.91181113221322 -4.36636481088109 -2.43911751475147
 1 -2.36213997179718 -3.43107925632563  0.43477072407241
 1  1.41254706140614 -5.06725920842084 -0.09191290879088
 1  2.88350753655366 -5.31467417591759 -1.39715422932293
 1  4.87176159715972 -0.93269932103210  0.97696828302830
 1  5.26408060766077  0.50249468606861  1.74175864656466
 1  4.22395991629163  4.73325379277928 -0.09128911161116
 1  5.75873249604961  3.66118883808381  0.32202872607261
 1  4.45809522692269  3.98815432353235  1.52249355325533
 1  1.81246707870787  5.04460439003900  0.36707649454946
 1 -7.66033880548055 -2.55578157265727  1.53259795379538
 1 -6.71888753305331 -4.31366913281328  1.54645701360136
 1 -6.95818400240024 -3.45959372287229 -0.09752816361636
 1 -6.84365170687069 -0.52208253955396  0.21802373027303
 1 -5.30631547334733  1.49992418931893 -0.74001784988499
 1 -6.39002083178318  0.72750037833783 -1.68164484298430
 1 -4.66464495999600  0.18267511371137 -1.64052526522652
 1 -3.46843672297230  6.17075973177318  1.20231793579358
 1 -4.15803348084809  4.72973210541054  1.27361949974997
 1  0.35726029132913  6.42598455835584  1.70237296979698
 1 -1.52881426472647  7.22651934743474  1.29610886728673
 1 -0.07703851625163  7.03247174767477  0.05910224442444
 1 -3.69220951675167  6.62401828492849 -1.33968178427843
 1 -5.19229105220522  6.22329507050705 -0.42547768946895
 1 -4.42748726982698  4.82417390969097 -1.28915865426543
 1  3.39793510001000 -4.41699592979298  2.29230786778678
 1  7.93375061976198 -2.27153780608061  1.34818498109811

