%nproc=4
%Mem=4GB
# td=(NStates=1) B3LYP/SVP 

TD

0 1
 8 -4.56705682648265 -4.64803488468847  1.95363072667267
 8  3.05323592169217 -4.90015456465647  1.31824975677568
 8  7.00013039443944 -1.62825036613661  1.75902612311231
 8  3.76792852565257 -3.20980010521052  0.09808266666667
 8  7.71667041904190 -0.48688006730673 -0.13808337763776
 8 -2.95373570237024  2.38592599009901 -0.28201310591059
 7 -0.29213359505951 -0.47805715551555 -0.68220685688569
 7  1.63432111481148  1.80676305510551 -0.45520718281828
 7 -3.52456939993999 -3.11770081688169  0.62977144844484
 7 -0.75826722962296  2.85480589878988 -0.02074709860986
 6  0.68547978037804 -2.40468590689069 -1.38989107220722
 6  0.93943287708771 -1.11605155625563 -0.90007256255626
 6 -0.79648397349735 -2.58019190859086 -1.35066526592659
 6 -1.26958906510651 -1.36414005590559 -0.76609807570757
 6  3.79803774507451  1.37257174247425 -0.28676489288929
 6  2.54132482548255  0.86834816661666 -0.51676323492349
 6  2.18236524082408 -0.41796794259426 -0.90487273227323
 6  3.57168100500050  2.77476548474848  0.12551177827783
 6  1.66500765326533 -3.48611387718772 -1.91497169816982
 6 -5.66939627482748 -2.52264417401740  1.38227816781678
 6 -3.70404246714671 -1.74760982298230  0.08351213621362
 6  2.18373263346335  2.98180460866087  0.00351287428743
 6 -5.02422861916192 -1.42056755995600  0.38575721462146
 6  5.18741721982198  0.68435810581058 -0.43688674507451
 6 -2.70049101130113 -1.00468724032403 -0.54368478287829
 6 -1.53541147884788 -3.89799430173017 -1.71397464116412
 6 -4.53434090089009 -3.50027853355336  1.39344845944594
 6  2.10690116611661 -4.58252047174717 -0.80093294909491
 6  5.43755363166317 -0.26281234513451  0.63699180528053
 6  4.53908969516952  3.79236046734673  0.42398458225823
 6  1.38121936333633  4.08344275177518  0.34036415591559
 6 -7.03948507910791 -3.21458883868387  1.01132059815982
 6 -5.90580918341834 -0.59487421732173 -0.14381585598560
 6 -0.09399438843884  4.02769744134413  0.15404403000300
 6 -1.02608357005701  5.16363745674567  0.44640926952695
 6 -2.26886221242124  4.68186430923092  0.35898730163016
 6  3.03366620792079 -4.13438005710571  0.25661706070607
 6 -5.48275293609361  0.43603883248325 -1.23015408240824
 6  6.85302786898690 -0.68102638673867  0.75317844044404
 6 -3.61795755505551  5.33465976417642  0.47584839993999
 6 -2.06352978927893  3.21606379767977  0.02849377417742
 6 -0.46008014551455  6.52731659965997  0.85415050485048
 6 -4.26240477737774  5.40814921982198 -0.87720849654966
 1 -0.26428399329933  0.36984268986899 -0.14718527182718
 1  2.99377339193919 -0.98372037413741 -1.10740024862486
 1  2.73816506740674 -3.15400010691069 -2.18410084478448
 1  1.38007478677868 -4.09676159375938 -2.74282664916492
 1 -5.61771357755776 -2.20399878897890  2.44903706420642
 1  5.28323863406341  0.28206292279228 -1.53315646864687
 1  5.93844581018102  1.37827213651365 -0.57576887648765
 1 -2.77104520022002  0.09695419161916 -0.67727063266327
 1  0.44507083878388  1.95742692569257 -0.59672914501450
 1 -1.73279887108711 -4.54174627882788 -0.77576838253825
 1 -2.52067569726973 -3.59117681968197 -2.18081740194019
 1 -1.14839479057906 -4.70487866226623 -2.46213981698170
 1 -2.57806156395640 -3.44443059145915  0.75773302030203
 1  1.24553035973597 -5.04185666816682 -0.20818453595359
 1  2.49741892769277 -5.30827353585359 -1.70248476237624
 1  4.72182660366037 -0.96053210431043  0.58327891409141
 1  5.19443364296430  0.45453989058906  1.56512098279828
 1  4.66273379367937  4.63169363676368 -0.24438442114211
 1  5.62665928872887  3.24910762996300  0.61524804800480
 1  4.25604502190219  4.41032654075407  1.22903420732073
 1  1.78206403840384  5.15228515811581  0.47574736163616
 1 -7.92484525612561 -2.63024901940194  0.91048574257426
 1 -7.14058970327033 -4.03871163706371  1.71357372527253
 1 -6.84543272727273 -3.71104886838684  0.09463105230523
 1 -6.99862720442044 -0.47862819411941  0.09279120702070
 1 -4.98721356315632  1.37681187808781 -0.82038588668867
 1 -6.43810564026403  1.09568719701970 -1.71652833133313
 1 -4.82612110761076  0.01597844404440 -1.86526773947395
 1 -3.52158203750375  6.31185384118412  1.23029073307331
 1 -4.30970864836484  4.53985311751175  1.01568370617062
 1  0.20253481878188  6.48670062996300  1.46473920642064
 1 -1.32341372467247  7.07956465196520  0.85230448684869
 1  0.19998918651865  7.30035853635364  0.17145347954795
 1 -3.57384768056806  6.04690057315732 -1.72702051815182
 1 -5.21558338143814  5.90559330033003 -0.80692583428343
 1 -4.48223274437444  4.41719321162116 -1.31336107450745
 1  3.62080738723872 -4.46896112631263  2.09272790979098
 1  7.88857610231023 -1.74206485878588  1.55148531113111

