%nproc=4
%Mem=4GB
# td=(NStates=1) B3LYP/SVP 

TD

0 1
 8 -4.62066218701870 -4.78292837403740  1.61963732733273
 8  2.98238883698370 -4.61176572577258  1.37895582738274
 8  7.07564794619462 -1.60435797689769  1.76694691519152
 8  3.88930066286629 -3.20403952915292  0.03205606400640
 8  7.59444819681968 -0.73052443174317 -0.30744031333133
 8 -3.00871119991999  2.44521191869187 -0.16169107370737
 7 -0.28951333303330 -0.63788313811381 -0.70857949414942
 7  1.49239692239224  1.85918829762976 -0.32986464856486
 7 -3.51232817581758 -3.26369541634163  0.57416588788879
 7 -0.75331673457346  2.97412783098310  0.01280625672567
 6  0.67928916131613 -2.50111554985499 -1.30239232233223
 6  0.93807274107411 -1.20061001210121 -0.86727928322832
 6 -0.71262558765877 -2.81396528592859 -1.21018121752175
 6 -1.31146325252525 -1.60435407730773 -0.72710417631763
 6  3.79391733303330  1.46891137643764 -0.29625584198420
 6  2.45222591559156  0.81436276807681 -0.50043160176018
 6  2.14066107040704 -0.49762590839084 -0.88566081108111
 6  3.54119795669567  2.83176118431843  0.01190041714171
 6  1.72234338683868 -3.53942920872087 -1.83478367936794
 6 -5.59467880308031 -2.43777568716872  1.32611255125513
 6 -3.66034809770977 -1.89587464946495  0.08867265226523
 6  2.11266552675268  3.06849327752775 -0.01531900890089
 6 -5.00575677197720 -1.53259876307631  0.34818345724572
 6  5.06251472957296  0.78588825882588 -0.34017707410741
 6 -2.68355931813181 -1.20713748534854 -0.57347776217622
 6 -1.47564550225023 -3.93764826712671 -1.63390663436344
 6 -4.63431089788979 -3.63433193889389  1.23506262086209
 6  2.14741521752175 -4.57692991269127 -0.79474233003300
 6  5.45271514781478 -0.09700576447645  0.87539564566457
 6  4.53968975517552  3.88855008630863  0.15165734953495
 6  1.33413465486549  4.14988939643964  0.23226334583458
 6 -7.06621775237524 -2.95970335013501  1.24029349544955
 6 -5.83609221172117 -0.53419814971497 -0.26638811321132
 6  0.00150516151615  4.09040371197120  0.30468909450945
 6 -0.93194415611561  5.24697579057906  0.54416904550455
 6 -2.19984531073107  4.73298942174217  0.36601800470047
 6  3.03158599989999 -4.01035765486549  0.21246264526453
 6 -5.37969263006301  0.31488671727173 -1.30164123112311
 6  6.78411097729773 -0.84453273737374  0.63381650425043
 6 -3.54966072537254  5.38396469466947  0.45792660776078
 6 -2.08812224852485  3.28783097439744  0.09063998879888
 6 -0.50957509500950  6.62879674767477  0.90471556135614
 6 -4.17271580848085  5.64441284618462 -0.86768754445445
 1 -0.52035960086009  0.28324403000300 -0.25942649594959
 1  2.95863987858786 -1.12225422752275 -0.99492900150015
 1  2.56617786868687 -3.20517522442244 -2.41654408910891
 1  1.21620840014001 -4.21794371197120 -2.57900026652665
 1 -5.24921672787279 -1.77700608970897  2.27394955545555
 1  5.03517382758276  0.10848556505651 -1.43902705570557
 1  5.85079704530453  1.39121343064306 -0.59895119471947
 1 -3.00821891759176 -0.19556506030603 -0.31674458005801
 1  0.42811914361436  1.97079826282628 -0.06229570167017
 1 -1.41627721892189 -4.82808491269127 -0.87401820752075
 1 -2.54626825652565 -3.75995369736974 -1.98917823802380
 1 -0.84333428452845 -4.57053522792279 -2.44104770777078
 1 -2.65363912171217 -3.89108525692569  0.35346259325933
 1  1.09505531223122 -4.74918740124012 -0.35149886738674
 1  2.53999318511851 -5.55292800130013 -1.22267678157816
 1  4.60644506550655 -0.69546559765977  1.18197878407841
 1  5.45155935553555  0.70598503510351  1.75740021072107
 1  4.26522404270427  4.76432690009001 -0.41016099879988
 1  5.58472509530953  3.63308602780278  0.07682420562056
 1  4.51031044844484  4.43072858095810  1.23277458135814
 1  1.56430226222622  5.07300723032303  0.63554334123412
 1 -7.70562333393339 -2.22907890239024  1.35604029802980
 1 -7.39919556385639 -3.72922068796880  1.83848621652165
 1 -7.43320150415042 -3.20154791829183  0.01482307150715
 1 -6.89448679037904 -0.50953128442844  0.25035696359636
 1 -4.72792763456346  1.26034023092309 -1.10323417151715
 1 -6.26938876857686  0.68925655395540 -1.71906858535854
 1 -4.74213270877088 -0.19299245304530 -2.10534174687469
 1 -3.53117299659966  6.32376503230323  1.00753845784578
 1 -4.26843452095210  4.67112624482448  1.01347348514851
 1  0.21594615991599  6.67921988188819  1.74699743224322
 1 -1.19654103740374  7.44810150565056  1.31440069646965
 1  0.05566475407541  6.93004150465046 -0.04353801960196
 1 -3.52350264606461  6.42726860996100 -1.52118993509351
 1 -5.41577340044004  6.09785252625262 -0.70313545524552
 1 -4.35163968506851  4.72678417071707 -1.63551328972897
 1  3.64996030253025 -4.24458868906891  1.97489612661266
 1  7.95379262396240 -2.08926957925793  1.54940510311031

