%nproc=4
%Mem=4GB
# td=(NStates=1) B3LYP/SVP 

TD

0 1
 8 -4.43055317611761 -4.69616969816982  1.86965232883288
 8  2.97384798289829 -4.78187273647365  1.35312324412441
 8  7.14931531293129 -1.47210475157516  1.86100632113211
 8  3.74033576637664 -3.23632275747575  0.07613047144714
 8  7.62701145314531 -0.47218859815982 -0.01542111141114
 8 -2.99608993779378  2.38572597009701 -0.09115402000200
 7 -0.32328671037104 -0.54161351115112 -0.68850748694869
 7  1.49590727342734  1.74203658245825 -0.38935059715972
 7 -3.36215315831583 -3.04066311311131  0.55378384968497
 7 -0.75486688958896  2.95245566376638 -0.17583260716072
 6  0.59201043344334 -2.48144358265827 -1.38008009110911
 6  0.90895982978298 -1.13821377247725 -0.97122967826783
 6 -0.84722904800480 -2.62626651605161 -1.30234043344334
 6 -1.38444055025503 -1.44548819071907 -0.77686915281528
 6  3.80945888718872  1.39076356165617 -0.39527574397440
 6  2.47573826682668  0.78633996579658 -0.62122368096810
 6  2.14725172947295 -0.54331047684768 -0.94408665366537
 6  3.55598943584358  2.64698270647065  0.05063429052905
 6  1.62912406490649 -3.50099536533653 -1.92267246824682
 6 -5.54268360356036 -2.56848875847585  1.32738267826783
 6 -3.66808887178718 -1.75144020602060  0.08434221922192
 6  2.09843410361036  2.91455788398840 -0.05147262426243
 6 -5.06897309360936 -1.53503900710071  0.45600423932393
 6  5.08150662876288  0.59063873387339 -0.42100515691569
 6 -2.68405936813681 -0.97291406300630 -0.45839625402540
 6 -1.42954089178918 -3.84273877617762 -1.89117236093609
 6 -4.42479994679468 -3.60950945664566  1.39544865946595
 6  1.98987946394639 -4.63084530423042 -0.85465832163216
 6  5.46605648194819 -0.04269033293329  0.89676778287829
 6  4.68471425762576  3.65547677897790  0.42123430723072
 6  1.35304654605461  4.02293670117012  0.26504662416242
 6 -6.90453158375838 -3.21610899069907  0.99402886898690
 6 -5.86652525502550 -0.52147687758776 -0.09259073347335
 6 -0.05680066906691  4.10847551915191  0.14459308490849
 6 -0.96490745244524  5.21995308830883  0.46864149274927
 6 -2.24071939813981  4.70144626742674  0.41065246814681
 6  2.98382122342234 -4.08102472157216  0.20215161416142
 6 -5.55383004380438  0.42336756535654 -1.24327539453945
 6  6.87455002120212 -0.72026031013101  0.83678680128013
 6 -3.51743750305031  5.38833513171317  0.47259807490749
 6 -2.09666310261026  3.19253144444444  0.07823874867487
 6 -0.47752188968897  6.62498636663666  0.58771386118612
 6 -4.29015755265527  5.68309671457146 -0.77868864456446
 1 -0.43301086598660  0.41216692229223 -0.28717927122712
 1  3.03355737033703 -1.44181618371837 -1.23896340494049
 1  2.67615886678668 -3.18327303420342 -2.37873030773077
 1  1.26997377667767 -4.04688660626063 -2.59902226872687
 1 -5.54984679087909 -2.28120650975097  2.37286944744474
 1  5.05547585778578  0.02283700020002 -1.24167732073207
 1  5.80540250585058  1.30434474377438 -0.74736603620362
 1 -3.12410050575058 -0.03305880968097 -0.45578848444845
 1  0.59829616131613  1.69785096809681 -0.71918139023902
 1 -1.42307789898990 -4.88890099429943 -1.37269807550755
 1 -2.58791242094209 -3.70198790079008 -2.04945426562656
 1 -0.95833578467847 -4.10362853725373 -2.83794739773977
 1 -2.38142189999000 -3.39278542694269  0.65729297629763
 1  1.20065587228723 -5.13264574707471 -0.50745446294629
 1  2.40281946774677 -5.59904261276128 -1.37446196009601
 1  4.70179460046005 -0.85387143824382  0.80424101030103
 1  5.44688888848885  0.57066150275027  1.88221269196920
 1  4.45913343364337  4.74002446984698  0.06967698499850
 1  5.51718834163416  3.39941266046605 -0.24192766956696
 1  4.87110652805281  3.64937044514451  1.60142144604460
 1  1.73979981198120  5.01070099969997  0.65534532143214
 1 -7.66606937853785 -2.54515050955095  1.15409010301030
 1 -7.06511215551555 -4.05528329422942  1.82976534443444
 1 -7.03329151315132 -3.67595535903590 -0.07617602840284
 1 -6.83645098679868 -0.33642397369737  0.60632256015602
 1 -5.24872971477148  1.41013521042104 -0.81801564966497
 1 -6.61178300800080  0.66923455175518 -1.65441211971197
 1 -4.73892238773877  0.04695154135414 -2.08858007070707
 1 -3.50128000730073  6.32120477627763  1.10567827182718
 1 -4.15208288578858  4.81980111231123  1.17569970777078
 1 -0.05298073277328  6.82304426432643  1.59978271077108
 1 -1.27213859715972  7.46590328582858  0.88478773517352
 1  0.25000418801880  7.04746324682468 -0.04827849364936
 1 -3.76073636943694  6.51282716581658 -1.39133694979498
 1 -5.18050987408741  6.14881762276228 -0.47477261896190
 1 -4.47400192129213  4.80450194249425 -1.46485622402240
 1  3.53944925142514 -4.48012224242424  2.02848148514851
 1  7.95364260896090 -1.91089174147415  1.62595275787579

