%nproc=4
%Mem=4GB
# td=(NStates=1) B3LYP/SVP 

TD

0 1
 8 -4.72279240004000 -4.77380746194619  1.79476484008401
 8  2.95742634073407 -4.74735928512851  1.13506143794379
 8  7.07793817521752 -1.34413195429543  2.01775199569957
 8  3.89541127392739 -3.16039516471647 -0.09415655725573
 8  7.71298005000500 -0.49799117841784  0.05760619131913
 8 -3.05947627642764  2.35176257375738  0.00377547294729
 7 -0.25526990869087 -0.63236258605861 -0.63007164336434
 7  1.54532221492149  1.73704608340834 -0.49224088618862
 7 -3.57309425242524 -3.13396244304430  0.72804127542754
 7 -0.73510491339134  2.83525394359436 -0.07447247114711
 6  0.61886311871187 -2.47800323862386 -1.32232431553155
 6  0.95149408320832 -1.15468541964196 -1.00023257855786
 6 -0.76161048614861 -2.68664255365537 -1.36142634203420
 6 -1.25373747994800 -1.51853549544955 -0.79914138003800
 6  3.82920086138614  1.39743422872287 -0.40308652505251
 6  2.52298299129913  0.75779711151115 -0.61490304890489
 6  2.19614661896190 -0.64744088988899 -0.97257950295029
 6  3.52981681858186  2.69496750495050 -0.13661443434343
 6  1.57499865236524 -3.45396066186619 -1.88652885388539
 6 -5.63627296249625 -2.53202511211121  1.44843478347835
 6 -3.65152721562156 -1.82609767176718  0.23724750975098
 6  2.14405866606661  2.87175360356036 -0.10984846184618
 6 -5.08169436573657 -1.50672617581758  0.45571421032103
 6  5.13946242434243  0.76319598959896 -0.38339139553955
 6 -2.63647460966097 -1.10080685228523 -0.32375278967897
 6 -1.59307724542454 -3.79397389968997 -1.88737198089809
 6 -4.64280174697470 -3.59969847554756  1.39546866146615
 6  2.17443791979198 -4.51941416111611 -0.99493234903490
 6  5.43712358865887 -0.07691375527553  0.90669877597760
 6  4.50731651785178  3.86459769106911  0.35646783058306
 6  1.37157839923992  4.06918132563256  0.13871399089909
 6 -7.15092622322232 -2.94283166296630  1.16626609270927
 6 -5.75760436293629 -0.54511924182418 -0.22455392979298
 6 -0.01551654065407  4.00481515311531  0.15421404700470
 6 -0.92006296799680  5.03728482148215  0.46721134973497
 6 -2.27150247644764  4.62478860166017  0.38570997389739
 6  3.02648548984898 -4.03795041414141  0.09552095109511
 6 -5.18037269806981  0.47460268886889 -1.24916598359836
 6  6.82918548474847 -0.66227451155116  0.93253637623762
 6 -3.49673543284328  5.37351364956496  0.49016983208321
 6 -2.07106054235424  3.13626581788179  0.10684160896090
 6 -0.50380451795180  6.46728059605961  0.71979706950695
 6 -4.22429096599660  5.61770017491749 -0.78749952565257
 1 -0.62442000690069  0.24878058365837 -0.17113766706671
 1  3.05578959355936 -1.17920992309231 -1.29530903950395
 1  2.39866111701170 -2.74258896579658 -2.35263769846985
 1  1.01450823012301 -3.83734565216522 -2.85327769426943
 1 -5.76138794499450 -2.05589397849785  2.45570773127313
 1  4.85816612681268  0.08621333783378 -1.35628878187819
 1  5.83846581218122  1.54831914121412 -0.70535183478348
 1 -2.74378247394739  0.05836033223322 -0.50486339193919
 1  0.45794212591259  1.88995017801780 -0.65166463856386
 1 -1.77603319451945 -4.61098320252025 -1.17575838153815
 1 -2.47316094579458 -3.41283898589859 -2.13319263946395
 1 -0.84189414051405 -4.31307948234823 -2.69327293029303
 1 -2.71047480528053 -3.79543569196920  0.89871711871187
 1  1.38414422112211 -5.07148963146315 -0.52800651815182
 1  2.76713589938994 -5.35077778627863 -1.55408992289229
 1  4.80259468046805 -0.87624367546755  0.91566215241524
 1  5.31712591219122  0.51021545814581  1.98064253495350
 1  4.32438995929593  4.74055452285229 -0.24180416311631
 1  5.68474509730973  3.45147786698670  0.55369189238924
 1  4.21756117351735  4.15609111721172  1.36676798069807
 1  1.76110194219422  5.03446337593759  0.50172995989599
 1 -7.72616538813881 -1.89065506000600  1.60204489848985
 1 -7.41341698599860 -3.96659442534253  1.69282165006501
 1 -7.28257644164416 -3.05670343384338  0.06927851705171
 1 -6.90539788148815 -0.23845417671767 -0.04394246634663
 1 -4.70321516331633  1.44280847774778 -0.58414226232623
 1 -6.00292212191219  0.63259088738874 -1.75192187068707
 1 -4.28851734723472  0.20913775997600 -2.07206841954195
 1 -3.58732861216122  6.37030968676868  0.89373707770777
 1 -4.14212188968897  4.56792592479248  0.94564670247025
 1  0.35959052435244  6.64621658155816  1.28680141264126
 1 -1.30656203950395  7.33004970047005  1.02029128552855
 1 -0.12710352275228  6.91140964146415 -0.19114278007801
 1 -3.69147944374437  6.31459734283428 -1.48771658775878
 1 -5.10173199629963  6.25114785578558 -0.71355649734973
 1 -4.35892041314131  4.80081157345735 -1.30792053045305
 1  3.55302060856086 -4.13473770397040  1.60184882188219
 1  7.96440368506851 -1.73921457375738  2.13116327892789

