%nproc=4
%Mem=4GB
# td=(NStates=1) B3LYP/SVP 

TD

0 1
 8 -4.52035215601560 -4.80917099829983  1.73464882848285
 8  2.81644224232423 -4.86427097629763  1.25012294409441
 8  6.94112449384938 -1.64812235333533  1.76454667516752
 8  3.62680441324132 -3.14214333953395  0.08462132053205
 8  7.66214496649665 -0.50172155145515 -0.08156772607261
 8 -3.07591792059206  2.48538593609361 -0.23395830043004
 7 -0.24040842254225 -0.60293964376438 -0.58283691989199
 7  1.54129181188119  1.86598897769777 -0.45634729682968
 7 -3.41497844084408 -3.22805185198520  0.57739621092109
 7 -0.72588399129913  2.84844526272627 -0.16333135703570
 6  0.69291052345235 -2.44111955025503 -1.32326440954095
 6  1.01202013581358 -1.15722567366737 -0.84739729502950
 6 -0.73677800290029 -2.71777566696670 -1.21455165456546
 6 -1.27246935313531 -1.47163080498050 -0.70702216811681
 6  3.79303724502450  1.46827131243124 -0.39242545894589
 6  2.45423611661166  0.89371070287029 -0.59786134473447
 6  2.24646165046505 -0.43339948574858 -0.88946119111911
 6  3.53561739863986  2.78833684188419 -0.03412418531853
 6  1.59477062956296 -3.51639690549055 -1.95536573757376
 6 -5.53481281648165 -2.42245415501550  1.48447838783878
 6 -3.56951901480148 -1.87642270427043  0.04271805680568
 6  2.12342660286029  2.95487191539154  0.04529705270527
 6 -4.93672986928693 -1.47549305250525  0.37978661756176
 6  5.14533301140114  0.67701737173717 -0.42439549594960
 6 -2.61660262246225 -1.07303407500750 -0.45698611301130
 6 -1.38396633433343 -3.93649815211521 -1.63144638833883
 6 -4.49943741054105 -3.63394189988999  1.36674578917892
 6  1.93694417041704 -4.57183940364036 -0.91092394819482
 6  5.43648352465247 -0.08440450435044  0.82864097019702
 6  4.53362914911491  3.82961419271927  0.43442562636264
 6  1.34960620202020  4.19020342784278  0.14296441594159
 6 -6.97756888748875 -2.97093447324733  1.06033549964996
 6 -5.74099270177018 -0.49118384828483 -0.14819629402940
 6 -0.09229421842184  4.02637730933093  0.17441606720672
 6 -0.91049201090109  5.08916000900090  0.51305593419342
 6 -2.22265759195920  4.68872499529953  0.27042844574457
 6  2.92917575887589 -4.10021664076408  0.21548294729473
 6 -5.35222988378838  0.44146937553755 -1.17389845684568
 6  6.76381894809481 -0.69452773687369  0.77675079767977
 6 -3.58915467476748  5.37983428162816  0.58711952705271
 6 -2.12108554485449  3.21615380668067 -0.01235031023102
 6 -0.50172430993099  6.50077394539454  0.77731282108211
 6 -4.29828836573657  5.59567797269727 -0.81171194689469
 1 -0.40392795769577  0.23673937953795 -0.09105965926593
 1  3.18425243984398 -1.01160316241624 -0.86052556115612
 1  2.38330958185819 -3.08500320722072 -2.40854328902890
 1  1.13275005430543 -3.86126804440444 -2.79732209870987
 1 -5.37321912811281 -2.11094948404840  2.54687684818482
 1  5.34306461666167 -0.15952123562356 -1.28009116211621
 1  6.00973293889389  1.38818312761276 -0.44354565416542
 1 -2.89316741244124  0.09260375657566 -0.65955886148615
 1  0.45265159685969  1.62636381938194 -0.74389386148615
 1 -1.31590718191819 -4.88558066226623 -1.03193399909991
 1 -2.38879250895089 -3.55223292529253 -1.91340066026603
 1 -0.81387133823382 -4.12689086348635 -2.70647425042504
 1 -2.61542530033003 -3.94365051345134  0.44474172117212
 1  0.94714052075207 -4.89071155365537 -0.52826654415442
 1  2.40573975977598 -5.49213192169217 -1.45831034493449
 1  4.71168558955896 -0.85531158225823  0.95253583978398
 1  5.45057925752575  0.31287572417242  1.72294676537654
 1  4.46587410771077  4.75230569796980 -0.09029901260126
 1  5.61087771057106  3.52120483968397  0.15572209540954
 1  4.37341675907591  4.04532004010401  1.39665096899690
 1  1.88642447444744  5.10734066366637  0.38796858375838
 1 -7.81777454905491 -2.35055104960496  1.15967066106611
 1 -7.36416206050605 -3.54935270117012  2.21769413731373
 1 -6.80686887088709 -3.50067783128313  0.13079466866687
 1 -6.71990933263326 -0.65119545084508  0.04008593649365
 1 -4.99313415521552  1.44739893679368 -0.64439828792879
 1 -6.09091092079208  0.62124975327533 -1.92685936443644
 1 -4.50051854735474 -0.01644479827983 -1.74488570127013
 1 -3.54691457075708  6.35680833663366  1.05300300430043
 1 -4.09257693519352  4.61498063026303  1.13560569836984
 1 -0.03020845554555  6.37412937283728  1.83205593809381
 1 -1.38216960026003  7.19562625812581  0.90659991639164
 1  0.51647083468347  6.92154065456546  0.09643597779778
 1 -3.78241853765377  6.13521940504050 -1.70421823792379
 1 -5.41467329042904  5.94279702070207 -0.75419056075608
 1 -4.22131665276528  4.60055154745474 -1.29121886028603
 1  3.31738704520452 -4.45522975317532  2.07859649664966
 1  7.78966621132113 -1.91042169446945  1.78528869146915

