%nproc=4
%Mem=4GB
# td=(NStates=1) B3LYP/SVP 

TD

0 1
 8 -4.59607972877288 -4.77198727992799  1.85843120672067
 8  2.80365096319632 -4.80509505870587  1.32275020682068
 8  7.03877425882588 -1.57357489858986  1.93837405790579
 8  3.78917064986499 -3.19014814001400  0.17709056745675
 8  7.77743649564956 -0.29802118141814  0.09786021672167
 8 -3.00896122492249  2.43151054855486 -0.15742064666467
 7 -0.31727610931093 -0.67355670547055 -0.65601423762376
 7  1.53438112081208  1.82775515431543 -0.48144980708071
 7 -3.41200814381438 -3.17715676247625  0.62511098239824
 7 -0.74837624052405  2.96659707790779 -0.03867889178918
 6  0.65452668506851 -2.50333577187719 -1.41655373847385
 6  0.97651658545855 -1.21014096519652 -1.04744730003000
 6 -0.74509883498350 -2.72709659905991 -1.39474967436744
 6 -1.31146325252525 -1.49981362326233 -0.80936240214021
 6  3.76578451975198  1.40520500580058 -0.48696491289129
 6  2.47168786178618  0.75677700950095 -0.69407096569657
 6  2.21240824512451 -0.56374252005201 -0.89376162116212
 6  3.60434427132713  2.69346735493549 -0.05110588348835
 6  1.65355650815082 -3.55228049384938 -1.95281548254825
 6 -5.54872420762076 -2.56376828642864  1.44110405040504
 6 -3.63095515841584 -1.94239930193019  0.10935472047205
 6  2.19709396959696  3.00357678587859 -0.05359283628363
 6 -5.06732292859286 -1.54327983118312  0.43794243314331
 6  5.03835231333133  0.57948761876188 -0.40788384478448
 6 -2.66244720692069 -1.06620339193919 -0.55729614401440
 6 -1.40022796049605 -3.82439694199420 -2.08748199189919
 6 -4.44511197799780 -3.67716622232223  1.33260237483748
 6  2.06005648164816 -4.55595781548155 -0.98771162696270
 6  5.45477535383538 -0.09094515841584  0.90136824292429
 6  4.75653143934393  3.71012224352435  0.14699688348835
 6  1.40199144054405  4.12740714821482  0.23248336783678
 6 -7.03505463606361 -3.08136551635164  1.31918138423842
 6 -5.84027262976298 -0.54272900280028 -0.05495697009701
 6 -0.08135312431243  4.11650632223222  0.25281390699070
 6 -1.01886284798480  5.25136622962296  0.48365299389939
 6 -2.21647697389739  4.68415453825382  0.39839124202420
 6  2.87377021832183 -4.04796141524152  0.19893129212921
 6 -5.62881754255426  0.49318454705471 -1.12195326232623
 6  6.84895746194620 -0.66251453555356  0.94429755235524
 6 -3.52703846314631  5.44907120532053  0.38052886798680
 6 -2.11347478377838  3.24857704900490  0.04740566536654
 6 -0.59414355185519  6.70948481648165  0.99175426522652
 6 -4.18639717661766  5.68096650155016 -0.88017879357936
 1 -0.48663622852285  0.27371307690769 -0.40661121442144
 1  3.08761277587759 -1.20059206130613 -0.80598010661066
 1  2.60360161106111 -2.98228293519352 -2.13989642434243
 1  1.22445922522252 -4.14636655425542 -2.75129749624962
 1 -5.49791159735974 -2.06753514261426  2.49803196369637
 1  4.91500181038104 -0.17713299679968 -1.32007516051605
 1  5.96701866746675  1.07053136243624 -0.69935123472347
 1 -2.85252334803480 -0.01785728952895 -0.69890279587959
 1  0.40248658035804  1.63373455645565 -0.60381985408541
 1 -1.42120771197120 -4.89547165136514 -1.57702850855086
 1 -2.46189981968197 -3.54180188218822 -2.22141146134613
 1 -0.94162411351135 -4.18566674107411 -3.04108771177118
 1 -2.65778953675367 -3.75124127252725  0.26714396139614
 1  1.28919472617262 -5.21928441094109 -0.53730744824482
 1  2.59308849464947 -5.35255796429643 -1.47109162306231
 1  4.77496191719172 -1.03690974207421  1.02217280348035
 1  5.34357855745575  0.50984542114211  1.90026449714972
 1  4.42219974027403  4.51624209160916 -0.43702368506851
 1  5.68839546234623  3.52812553175318 -0.28626210301030
 1  4.84491390879088  3.98531403950395  1.28289959385939
 1  1.91290712271227  5.02992292189219  0.46043583048305
 1 -7.68074084568457 -2.26239223372337  1.55222991699170
 1 -7.09701534583458 -3.98975674157416  1.98330069796980
 1 -7.10765894989499 -3.48642640614061  0.21450303950395
 1 -6.94104144584458 -0.33394372567257  0.32763469136914
 1 -5.01689653145314  1.23435763266327 -0.90685453355336
 1 -6.61898372807281  0.78836646494650 -1.55549222772277
 1 -4.85478397389739  0.09776662286229 -1.86245745844584
 1 -3.30608048734873  6.29597225302530  0.94368207220722
 1 -4.19665734323432  4.80872000420042  1.01263340114011
 1 -0.13221865656566  6.80804276417642  2.02089482198220
 1 -1.41183256655666  7.42701939743974  0.91003025942594
 1  0.08632782038204  7.04860336083608  0.24626096029603
 1 -3.65062535833583  6.49411529462946 -1.56657447354736
 1 -5.24889671277128  6.01150389138914 -0.96661180288029
 1 -4.48440296139614  4.75396688898890 -1.43846358475848
 1  3.31662696919692 -4.31717594779478  1.94609324632463
 1  7.91176842154215 -2.01185183748375  1.90315047764777

