%nproc=4
%Mem=4GB
# td=(NStates=1) B3LYP/SVP 

TD

0 1
 8 -4.59473959475948 -4.93883396459646  1.67326268986899
 8  2.64278487658766 -5.04202875207521  1.20711864366437
 8  6.93390377177718 -1.24742228332833  2.15393561406141
 8  3.73184491729173 -3.27667679287929  0.21122398079808
 8  7.57130588258826 -0.63370474977498  0.05184561526153
 8 -2.92865319411941  2.46499389688969 -0.08054295889589
 7 -0.32210659235924 -0.54439378917892 -0.60060869706971
 7  1.60838852155216  1.83053543234323 -0.37402906500650
 7 -3.40594753775378 -3.17555660246025  0.67147561886189
 7 -0.70556195909591  2.93004342254225 -0.08414343824382
 6  0.62808404080408 -2.41224666296630 -1.46807889098910
 6  0.92155108890889 -1.10520047114711 -0.95903845914591
 6 -0.77982230733073 -2.62831672107211 -1.30674087348735
 6 -1.29858196439644 -1.48917255915592 -0.76617808370837
 6  3.86740468176818  1.47765225052505 -0.47196341274127
 6  2.54015470847085  0.84759609140914 -0.61971352995300
 6  2.17559456375638 -0.50952709850985 -0.90779302430243
 6  3.67122095899590  2.85055306350635 -0.11614238713871
 6  1.73282443494349 -3.37980324612461 -1.89669987098710
 6 -5.52284161936194 -2.65357726732673  1.38976891689169
 6 -3.66579864276428 -1.84793985598560  0.12751653665367
 6  2.15556981718172  2.99162559075908 -0.15514299129913
 6 -5.07664386068607 -1.57322282548255  0.45600423932393
 6  5.15769424752475  0.74671434143414 -0.56792984938494
 6 -2.70192115431543 -1.05783255485549 -0.40033044744474
 6 -1.51632957065707 -3.82745724802480 -1.87643088678868
 6 -4.47072453925393 -3.74321282698270  1.28145726032603
 6  2.00465094109411 -4.48022024172417 -0.98207106290629
 6  5.30536041234123 -0.15748181208121  0.82684079017902
 6  4.62656844304430  3.97467869916992  0.14394657845785
 6  1.37335857725773  4.16940134763476  0.11764188368837
 6 -6.98907003760376 -3.17793517331733  1.11304077017702
 6 -5.83117171967197 -0.52833756365637  0.01607013261326
 6  0.04008901990199  4.04547921952195  0.16605523112311
 6 -0.87101806350635  5.18422951595160  0.37593222182218
 6 -2.15093041924192  4.65516163896390  0.26935833873387
 6  2.90870371167117 -4.15230184928493  0.15469686868687
 6 -5.46945160596060  0.47332256085609 -1.00779184618462
 6  6.74795736193619 -0.73931221532153  0.91623474607461
 6 -3.51410717001700  5.33849014721472  0.48295911101110
 6 -1.98660209650965  3.27021921322132  0.03874479927993
 6 -0.37558169566957  6.58383225122512  0.84536962676268
 6 -4.30526906380638  5.54022242714271 -0.87242801850185
 1 -0.33695126002600  0.19593529912991 -0.07469802310231
 1  3.08398241284128 -1.06730873297330 -1.16063557215722
 1  2.70632188308831 -2.84758946584658 -2.15930836553655
 1  1.47756453575357 -3.88072999059906 -2.74738710521052
 1 -5.29577138333833 -2.21938032713271  2.45086724722472
 1  5.05980629082908  0.26307102360236 -1.48810196319632
 1  6.04183614921492  1.22441675097510 -0.69759105870587
 1 -2.76858495419542 -0.00215571937194 -0.55023792939294
 1  0.65859219091909  1.95123630663066 -0.54338381048105
 1 -1.60658624982498 -4.75718782298230 -1.10758156385639
 1 -2.55080871057106 -3.85971367336734 -2.05886520672067
 1 -1.15676562766277 -3.93258143254325 -2.91051465446545
 1 -2.46292004980498 -3.68189433783378  0.67728497549755
 1  1.23519932663266 -5.15243772627263 -0.54169788728873
 1  2.34568375417542 -5.22836554505451 -1.65241975587559
 1  4.49640406140614 -0.76415246634663  0.81174176037604
 1  5.06680087968797  0.45076951355136  1.79573404410441
 1  4.42867038733873  4.86597706510651 -0.49044902760276
 1  5.61174779757976  3.69243196239624  0.07804432763276
 1  4.37921733913391  4.35096060416042  1.20082138603860
 1  1.93785961796180  5.04322425202520  0.59624941184118
 1 -7.63657642924292 -2.43182917741774  1.38870356435644
 1 -6.91894753905391 -4.05080284618462  1.96989935783578
 1 -7.14834301830183 -3.64485224872487  0.23646523572357
 1 -6.73977131883188 -0.37776810811081  0.54810673857386
 1 -4.96822166396640  1.18482267916792 -0.34501834993499
 1 -6.22632446214621  0.82761038933893 -1.37740441894189
 1 -4.93875237073707  0.03257010321032 -1.94471568426843
 1 -3.44412429172917  6.29047170297030  1.05413311731173
 1 -4.15556323382338  4.71881101330133  1.21129326712671
 1  0.22373693899390  6.52816477637764  1.75765849834984
 1 -1.13157454075408  7.18813550905090  1.07860711711171
 1  0.28091727932793  7.12573107360736  0.11171750595060
 1 -3.66851714751475  6.25307119021902 -1.42867068316832
 1 -5.40024184728473  5.92072481348135 -0.60571571327133
 1 -4.54905942704270  4.68592008430843 -1.59591933033303
 1  3.07655296179618 -4.70477470767077  1.96513515051505
 1  7.96165341004100 -1.40481113341334  2.12794295689569

