%nproc=4
%Mem=4GB
# td=(NStates=1) B3LYP/SVP 

TD

0 1
 8 -4.56242636343634 -4.79832991419142  1.93017838143814
 8  3.02825342344234 -4.93401795099510  1.30801873367337
 8  7.11696207760776 -1.54795233633363  1.76193641414141
 8  3.84713644644464 -3.25096422162216  0.02384524292429
 8  7.54120287228723 -0.50238161746175 -0.12742231153115
 8 -2.97462779157916  2.42859025652565  0.02308740414041
 7 -0.31390577227723 -0.49771912171217 -0.65376401260126
 7  1.58679636233623  1.81155353415342 -0.41265292739274
 7 -3.39985692869287 -3.12263130993099  0.67858632993299
 7 -0.69273067596760  2.93487390559056 -0.05760078397840
 6  0.67636886928693 -2.46187162546255 -1.39900198329833
 6  0.96255518931893 -1.16824677577758 -0.93184573987399
 6 -0.77674199929993 -2.65874976437644 -1.17543774317432
 6 -1.26032813901390 -1.50003364526453 -0.70356182208221
 6  3.76329427072707  1.34187867316732 -0.32927914431443
 6  2.53051374437444  0.75783711551155 -0.62231378997900
 6  2.26108311261126 -0.48931507730773 -0.80351259625963
 6  3.55967980488049  2.72365037323732  0.06501572867287
 6  1.59897104960496 -3.49113437923792 -1.94713491449145
 6 -5.61518085328533 -2.58317022662266  1.21940188018802
 6 -3.66498856175618 -1.81063612561256  0.11717550255026
 6  2.09535379557956  3.03332976117612 -0.09662713971397
 6 -5.10201639793979 -1.56521202440244  0.38151679057906
 6  5.15412389048905  0.81960163016302 -0.40549360576058
 6 -2.61731269346935 -1.11934870647065 -0.44619503390339
 6 -1.57131506920692 -3.83787829012901 -1.75336858055806
 6 -4.52586005280528 -3.71221972767277  1.32880199479948
 6  1.93140361636164 -4.60294251395139 -0.84943779957996
 6  5.40161003730373 -0.10722678657866  0.86052415851585
 6  4.57738352455246  3.82515374667467  0.39673185698570
 6  1.26670791219122  4.20379478697870  0.11303142264226
 6 -7.02659378997900 -3.17305468526853  0.93616308240824
 6 -5.89816841934193 -0.61758648854885 -0.20772224662466
 6 -0.03753874287429  4.12562723432343  0.22752137773777
 6 -0.98760972267227  5.28614970797080  0.42839746834683
 6 -2.21496682288229  4.71441756455646  0.35518692159216
 6  3.05283812511251 -4.07674429352935  0.16786818581858
 6 -5.47412207300730  0.46027125572557 -1.19366043304330
 6  6.79494206040604 -0.80432871697170  0.75484860746075
 6 -3.55278103740374  5.41728802700270  0.48574939003900
 6 -2.02288572487249  3.22210440174017  0.04037496229623
 6 -0.51646578407841  6.62326619461946  0.70722581238124
 6 -4.10555909280928  5.68464686958696 -0.90575135083508
 1 -0.57116468136814  0.27806351195120 -0.21605215851585
 1  3.03352736733673 -1.11749375147515 -0.66897640624062
 1  2.74463571447145 -3.15608031493149 -2.26097853255326
 1  1.11436821612161 -4.20812272987299 -2.62093445994599
 1 -5.84082588878888 -2.21280967006701  2.24398655915592
 1  5.38453876407641  0.17293200970097 -1.40546369936994
 1  6.01800376597660  1.63637794709471 -0.24745604520452
 1 -2.67672576827683 -0.06413191699170 -0.55405831143114
 1  0.49397572927293  1.89344052705271 -0.39747922002200
 1 -1.39817540874087 -4.74935703990399 -1.02326313201320
 1 -2.72655628532853 -3.36431413341334 -1.76389570977098
 1 -1.42731268236824 -4.05313348774877 -2.75993959695970
 1 -2.64532829062906 -3.71472762116212  0.45431267826783
 1  0.99460526722672 -4.93920640314031 -0.34314803230323
 1  2.17157634343434 -5.52353506200620 -1.32314682858286
 1  4.56877129812981 -0.90728677977798  0.93339392559256
 1  5.38180237983798  0.54772920952095  1.70561503220322
 1  4.03950147044705  4.55347581498150 -0.16293627632763
 1  5.61789841264126  3.61946466566657  0.09800632383238
 1  4.26743616101610  4.32542805090509  1.26461776567657
 1  2.06565239723972  5.12750267986799  0.31195098199820
 1 -7.83194596619662 -2.19441543604360  0.93737843184318
 1 -7.30123576787679 -3.91991975787579  1.72090445834583
 1 -7.06219440344034 -3.58713647714772 -0.11524993579358
 1 -6.96185352705271 -0.60972130343034  0.09334126202620
 1 -5.22815765756576  1.41176537343734 -0.62352620072007
 1 -6.27555938563856  0.64177180548055 -1.77742442094209
 1 -4.61920041554155  0.20225707190719 -1.80023123582358
 1 -3.40601048034803  6.35842849864986  1.00238794279428
 1 -4.06571424892489  4.64931406360636  1.16761889968997
 1  0.35456002130213  6.55056701660166  1.48672140464046
 1 -1.16197758105811  7.26828352385238  1.54176343274327
 1 -0.35483629602960  7.16412491299130 -0.36338000380038
 1 -3.41982227802780  6.18278416151615 -1.47267508360836
 1 -5.29619144224422  5.89019176017602 -0.85112025372537
 1 -4.03985850695070  4.69501099339934 -1.53087282568257
 1  3.89570487698770 -4.43679790999100  1.60308894589459
 1  8.05162240694069 -1.63817446974697  1.98111827442744

