%nproc=4
%Mem=4GB
# td=(NStates=1) B3LYP/SVP 

TD

0 1
 8 -4.50696081688169 -4.55351543274327  2.16152151575157
 8  3.06965756385639 -4.96619116831683  1.21267919971997
 8  7.06238662006201 -1.45034257535754  1.91509172967297
 8  3.79706143894389 -3.05693481868187  0.10668352675268
 8  7.45383413541354 -0.74216559585959 -0.21730129942994
 8 -2.97332766156616  2.50009740724072 -0.04914981958196
 7 -0.22114649634963 -0.60293964376438 -0.54368300450045
 7  1.54096177887789  1.82071445024502 -0.27029869196920
 7 -3.52190913391339 -3.07773682048205  0.60141861316132
 7 -0.73804520742074  2.97133755195520 -0.09278430233023
 6  0.65752698509851 -2.51074651295129 -1.36478856195620
 6  0.93461239503950 -1.23325327642764 -0.87822037733773
 6 -0.79552387748775 -2.63402729212921 -1.27788798819882
 6 -1.29507161336134 -1.44273791569157 -0.74860632653265
 6  3.75215315661566  1.43308779407941 -0.38815503190319
 6  2.51203189618962  0.81424275607561 -0.55393695229523
 6  2.18561556585659 -0.47765391119112 -0.76772901790179
 6  3.56233006990699  2.75828383658366 -0.09687045994599
 6  1.63292444494449 -3.52477774357436 -1.89525972697270
 6 -5.62252158735874 -2.53042495209521  1.32495243524352
 6 -3.74025608850885 -1.91569663166317 -0.02601881688169
 6  2.18675293549355  2.98412484068407  0.00038256125613
 6 -5.12482867916792 -1.48742424562456  0.31831046994699
 6  5.10103858195820  0.76100577057706 -0.48381143754375
 6 -2.67817878007801 -1.06938370997100 -0.35484589898990
 6 -1.55224316201620 -3.74591909420942 -1.86261950565056
 6 -4.59046651345135 -3.57678618431843  1.48847796239624
 6  2.07678815481548 -4.61855407510751 -0.94244710051005
 6  5.41687156345635 -0.12273833773377  0.81191929802980
 6  4.61304709090909  3.87993922522252  0.17328951275128
 6  1.36522776417642  4.03561796929693  0.30514063356336
 6 -6.87339847044704 -3.30767814761476  0.99126859295930
 6 -5.83403200570057 -0.58809353925393 -0.36967844224422
 6 -0.02273726272627  4.09098376997700  0.25905453105311
 6 -0.98503946564656  5.20364145714571  0.56745137373737
 6 -2.26070139633963  4.70172629542954  0.43316471937194
 6  3.04063690499050 -4.10063668276828  0.17403880288029
 6 -5.23837849864986  0.33047827642764 -1.52502356935694
 6  6.73771633783378 -0.78525680978098  0.74000712331233
 6 -3.62578833813381  5.29097539573957  0.51281209630963
 6 -2.06239967626763  3.30476266756676 -0.01411048624862
 6 -0.64922906040604  6.60441430943094  0.89650474027403
 6 -4.13135167206721  5.67640604550455 -0.89514028972897
 1 -0.36160372527253  0.22568827442744  0.16024547124712
 1  2.90677469206921 -1.36578858095810 -0.90566007460746
 1  2.53637488838884 -2.83167787468747 -2.17373980868087
 1  1.10461724102410 -4.06050796839684 -2.62697506400640
 1 -5.74078588478848 -2.10463885298530  2.36622878337834
 1  5.08265857605761  0.11364608110811 -1.35152830583058
 1  5.84694666026603  1.50870517981798 -0.55310661026103
 1 -3.01311940764076 -0.02449795359536 -0.53035594119412
 1  0.34177050875088  1.61306248924892 -0.51347081918192
 1 -1.50968655985599 -4.60455255945595 -1.13146395209521
 1 -2.69184281398140 -3.54873257525753 -1.95916523672367
 1 -1.19082903400340 -4.05433360776078 -2.90942454545455
 1 -2.59800355815582 -3.68541468986899  0.76785403240324
 1  1.28945475217522 -5.13444592709271 -0.37346106360636
 1  2.65152433823382 -5.42292500100010 -1.38161267516752
 1  4.59091351235123 -0.92741879297930  0.89292987918792
 1  5.28233243284329  0.61011544814481  1.68999347004700
 1  4.58559607990799  4.54163463086309 -0.66868685138514
 1  5.67522414521452  3.33663638283828  0.01972849604960
 1  4.43962337973797  4.42939844794479  1.21752305620562
 1  1.75670150215022  5.02017194679468  0.56169595649565
 1 -7.82877564916492 -2.65644163866387  1.01584627862786
 1 -6.97307295159516 -3.96399416531653  1.74321668956896
 1 -6.96172435643564 -3.66236399989999  0.04467605680568
 1 -6.81878922062206 -0.50074040534053 -0.15170324242424
 1 -5.00749559135914  1.28740293719372 -0.90297414551455
 1 -6.12484431413141  0.48569619791979 -2.16056273477348
 1 -4.28648714421442  0.03351019721972 -1.95569678237824
 1 -3.60468034733473  6.05358801460146  1.20230793479348
 1 -4.27530520802080  4.57355648784879  1.09756189398940
 1  0.22765733103310  6.42965492539254  1.56007874037404
 1 -1.52924430773077  7.17454414991499  1.36976623302330
 1 -0.03806461886189  7.31159966046605 -0.05048871467147
 1 -3.20971126692669  6.19772565566557 -1.45675349144914
 1 -5.02874469756976  6.13723646464646 -1.08207334903490
 1 -4.16193071417142  4.88007950025002 -1.47214695309531
 1  3.74683999049905 -4.72810704090409  1.83742237923792
 1  7.93849109380938 -1.79252990529053  1.68647881048105

