%nproc=4
%Mem=4GB
# td=(NStates=1) B3LYP/SVP 

TD

0 1
 8 -4.51076119691969 -4.66048612981298  1.82642800640064
 8  2.93548414651465 -4.71150569976998  1.36786471827183
 8  6.97800818221822 -1.48439598069807  1.79492971347135
 8  3.85303703650365 -3.11071019621962  0.21488434683468
 8  7.46624537653765 -0.72008338763876 -0.24337390669067
 8 -3.02900322912291  2.47426482398240 -0.22308721332133
 7 -0.28288266996700 -0.62332168196820 -0.69176781298130
 7  1.50672835553555  1.73558593739374 -0.28821048314831
 7 -3.47448439143914 -3.21226027282728  0.59671814311431
 7 -0.74385578847885  2.90877129532953 -0.03869889378938
 6  0.69087031943194 -2.56505194349435 -1.41434351745175
 6  0.98408734253425 -1.16789674077408 -0.99453200850085
 6 -0.78592291739174 -2.71840572997300 -1.37329752915292
 6 -1.24629673587359 -1.56887052895290 -0.84695616151615
 6  3.74473241454145  1.36851133643364 -0.23056927332733
 6  2.46675736873687  0.76850818261826 -0.57124868346835
 6  2.20820782508251 -0.56980312611261 -0.83479572457246
 6  3.48442227912791  2.67383539173917 -0.02551332423242
 6  1.82548370087009 -3.50986625242524 -1.93836403740374
 6 -5.45595493069307 -2.40275218481848  1.41391133113311
 6 -3.53763582648265 -1.83120818281828  0.13152693769377
 6  2.07653191339134  2.99429585778578  0.00073259625963
 6 -5.02673887018702 -1.44253975717572  0.36468510741074
 6  5.06598507660766  0.70392006200620 -0.32703575997600
 6 -2.59164012621262 -1.04444121572157 -0.52589300370037
 6 -1.53111104880488 -4.00857535983598 -1.82578582228223
 6 -4.50805827262726 -3.58418692439244  1.28704781938194
 6  2.13134361036104 -4.50582280198020 -0.90948380418042
 6  5.48692856915692 -0.07412347624762  0.81743985008501
 6  4.49303508970897  3.75331656295630  0.32017420122012
 6  1.34869611101110  4.06649105660566  0.27908802830283
 6 -6.92954408500850 -3.00439781958196  1.32785225132513
 6 -5.74224282678268 -0.52600733063306 -0.22699417381738
 6  0.00251526252625  4.04076874847485  0.22494111971197
 6 -1.02869383108311  5.19831092409241  0.60494512311231
 6 -2.24499982618262  4.74724084688469  0.36807821072107
 6  3.09322216351635 -4.03960057915792  0.26917831683168
 6 -5.42527718851885  0.61136636523652 -1.28059912691269
 6  6.64221678787879 -0.80215849994999  0.68796191879188
 6 -3.68908466776678  5.31042734093409  0.41162197729773
 6 -2.07371080738074  3.21499369066907 -0.01378045324532
 6 -0.52580671817182  6.55333920192019  0.97936302610261
 6 -4.26971550845084  5.64169257415742 -0.95460623632363
 1 -0.29547711261126  0.32903860946095 -0.35041559485949
 1  3.00704471907191 -1.25439744184418 -1.08650815941594
 1  2.73576482738274 -2.78345305220522 -2.28357079177918
 1  1.51875865516552 -4.17820973857386 -2.92342470897090
 1 -5.36167797399740 -2.15282367146715  2.43337549804980
 1  4.81065137533753  0.02241695819582 -1.26658981198120
 1  5.87236920252025  1.51680598989899 -0.63167446704670
 1 -2.82648074377438  0.04954945114511 -0.55211811741174
 1  0.51595792749275  1.71775295829583 -0.44820429252925
 1 -1.78160375157516 -4.73353545774577 -1.17541834753475
 1 -2.52185581528153 -3.72924062606261 -2.37830715091509
 1 -1.16282623372337 -4.44986316071607 -2.61927553055306
 1 -2.67632138993899 -3.76314246264626  0.43697094409441
 1  1.26381218791879 -4.93768625112511 -0.59222293979398
 1  2.83353253905391 -5.32963567206721 -1.37950246414641
 1  4.65162958395840 -1.04203025412541  1.09201978817882
 1  5.53339753935394  0.73496793339334  1.60116458715872
 1  4.28750627092709  4.53919438683868 -0.45362534523452
 1  5.55914253705371  3.53466618581858  0.16510303350335
 1  4.07521693909391  4.27804331243124  1.25722702660266
 1  2.02085791779178  4.93577350695069  0.71224101100110
 1 -7.68606137773777 -2.24701069556956  1.60827552155216
 1 -7.16260190449045 -3.85397316321632  2.03021538943894
 1 -6.99226741074107 -3.33825158865887  0.25966755595560
 1 -6.88198554025402 -0.39887021832183  0.12765469336934
 1 -4.55845068686869  1.34692888978898 -0.86352020012001
 1 -6.31213304300430  0.79105673397340 -1.68140481898190
 1 -4.82380087558756  0.15593243944394 -2.03649486218622
 1 -3.77731761106111  6.23481613741374  0.98895659965997
 1 -4.38242592009201  4.70614974717472  1.14669680748075
 1  0.05344991029103  6.69586154605461  1.91687441994199
 1 -1.39630101340134  7.33469016451645  1.22990224662466
 1  0.12584177177718  6.90276877737774  0.03928026222622
 1 -3.79879017481748  6.53167905100510 -1.56546436253625
 1 -5.27667949104910  6.17283002400240 -0.80074521622162
 1 -4.38806332743274  4.93966545884588 -1.64568430683068
 1  3.50550585708571 -4.37436166636664  2.00300893789379
 1  7.77748499319932 -2.13993464576458  1.50408057065707

