%nproc=4
%Mem=4GB
# td=(NStates=1) B3LYP/SVP 

TD

0 1
 8 -4.65703582438244 -4.88805888708871  1.71210657425743
 8  2.94844544264426 -4.77692224142414  1.25703363516352
 8  7.05432581398140 -1.46429397049705  1.91758197869787
 8  3.62210394319432 -2.97078620382038  0.17638049644964
 8  7.56930568256826 -0.62045342464246  0.02247267796780
 8 -2.98284861366137  2.52670006750675 -0.13209811441144
 7 -0.26908128982898 -0.65911526132613 -0.60278891509151
 7  1.59213689638964  1.82054443324332 -0.42597425952595
 7 -3.44141108410841 -3.23798284508451  0.61164963626363
 7 -0.72336373927393  2.90967138533853 -0.10039506340634
 6  0.66581781418142 -2.50960639893989 -1.35873795689569
 6  0.96562549634964 -1.23237318841884 -0.94197675297530
 6 -0.73592791789179 -2.64867875727573 -1.28069826922692
 6 -1.31227333353335 -1.56160980288029 -0.69361082698270
 6  3.82830077137714  1.47558204350435 -0.35316153255326
 6  2.48775946894689  0.80181151295130 -0.57531909050905
 6  2.28933593789379 -0.53128927472747 -0.88787103210321
 6  3.61144498139814  2.74192220042004 -0.12344311721172
 6  1.60162131463146 -3.47644291009101 -1.96340654165417
 6 -5.55942527772777 -2.60579248884889  1.37609754975498
 6 -3.65195725862586 -1.90528559055906  0.09090287528753
 6  2.20248450865087  3.01569799799980 -0.06800427742774
 6 -5.04825102140214 -1.50126562976298  0.44617325622562
 6  5.15758423652365  0.67234690469047 -0.41628468486849
 6 -2.65091605380538 -1.10523729532953 -0.39816023042304
 6 -1.53235117281728 -3.87999250155015 -1.91614485818582
 6 -4.57026449324932 -3.73326183188319  1.32677179177918
 6  2.06952742874287 -4.53821604130413 -0.97959081488149
 6  5.42718259455946 -0.08756482038204  0.86074418051805
 6  4.67222300850085  3.74037526882688  0.22516470027003
 6  1.37347858925893  4.16580098759876  0.17198731823182
 6 -6.99182031263126 -3.01175855565557  1.06526599269927
 6 -5.80589919241924 -0.44710944084408 -0.01951342574257
 6  0.03262827382738  4.08499317091709  0.17270589618962
 6 -0.98091905360536  5.19865095809581  0.43664829342934
 6 -2.20004533073307  4.77164328712871  0.30709211211121
 6  2.87965080638064 -3.99035565466547  0.17392879187919
 6 -5.43037769856986  0.58736396499650 -1.07578864586459
 6  6.74559712591259 -0.71944022812281  0.81653477607761
 6 -3.56807256655666  5.35053135133513  0.49121993709371
 6 -1.99731316761676  3.25690788208821  0.00330125492549
 6 -0.43860799829983  6.56477034503450  0.81258634843484
 6 -4.43742227912791  5.38242664756476 -0.81463223892389
 1 -0.24950251515152  0.21610731633163 -0.15463601690169
 1  3.22998701330133 -1.22432443454345 -0.91606111471147
 1  2.51761301220122 -2.91015572247225 -2.18946138083808
 1  1.11751853115311 -4.05507742534253 -2.82288465496550
 1 -5.44867667386739 -2.12315070417042  2.34362652315231
 1  4.99724003420342 -0.19829511301130 -1.33047620062006
 1  5.86956892249225  1.38649295859586 -0.81755305490549
 1 -2.88156625232523 -0.01189669346935 -0.42673557915792
 1  0.59122545424542  1.83773495649565 -0.59708918101810
 1 -1.59778536973697 -4.80401250545054 -1.31417222292229
 1 -2.59213284298430 -3.96484418641864 -2.39922924312431
 1 -0.68662861396140 -4.33662183658366 -2.76039964296430
 1 -2.45984974277428 -3.71989813821382  0.83845109210921
 1  1.20221602830283 -4.89733221572157 -0.21524524202420
 1  2.84031321712171 -5.09304201270127 -1.36915142904290
 1  4.67822224322432 -0.83462951405141  0.93102368856886
 1  5.38040223982398  0.65881031763176  1.73556802750275
 1  4.52332985328533  4.53443391079108 -0.60627060976098
 1  5.57179380218022  3.14239695889589  0.36539306250625
 1  4.26105552295230  4.32074758285829  1.21224252815282
 1  1.81174700670067  5.10105003460346  0.44938472537254
 1 -7.79031180278028 -2.21003699819982  1.19620431443144
 1 -7.23764940924092 -3.95943370927093  1.78563093099310
 1 -7.25825400940094 -3.53664142764276 -0.02382079287929
 1 -6.73860120182018 -0.28295862716272  0.48562048994899
 1 -5.15926076787679  1.56935113201320 -0.54143799189919
 1 -6.34199602930293  1.02615024332433 -1.41408808730873
 1 -4.70407890339034  0.18272511871187 -1.67983919661966
 1 -3.37900778007801  6.29245190099010  0.78484618861886
 1 -4.13729140664066  4.62001113331333  1.23954609240924
 1  0.16094065936594  6.62054401430143  1.71746447894789
 1 -1.12035341864186  7.47898459395940  1.06656591299130
 1  0.11656084368437  7.12141064156416  0.11759809400940
 1 -3.99428972477248  6.28040392349235 -1.55872368846885
 1 -5.51258308140814  5.60126286728673 -0.85471061276128
 1 -4.35909043014301  4.43679517181718 -1.26634637303730
 1  3.23069837633763 -4.28150238043804  2.13334197119712
 1  7.97144438913891 -1.81367201950195  1.91560172277228

