%nproc=4
%Mem=4GB
# td=(NStates=1) B3LYP/SVP 

TD

0 1
 8 -4.69221934273427 -4.78193827502750  1.74179954355436
 8  2.94621521962196 -4.89526407560756  1.20718865066507
 8  7.03986436783678 -1.58325586668667  1.79421964246425
 8  3.78883061586159 -3.20500962616262  0.11313417181718
 8  7.74877362936294 -0.34727610691069  0.05074550525053
 8 -3.04106443524352  2.49798719621962 -0.32707761236124
 7 -0.27035141684168 -0.60702005180518 -0.54043267946795
 7  1.52412009470947  1.70005238403840 -0.41722338443844
 7 -3.49146608960896 -3.17749679647965  0.60874934623462
 7 -0.67157856075608  2.96025644384438 -0.23680870477048
 6  0.67110834323432 -2.43988942724272 -1.30977306040604
 6  0.96037497129713 -1.21236118721872 -0.91283383868387
 6 -0.76833115821582 -2.63234712411241 -1.24784498389839
 6 -1.29892199839984 -1.49336297819782 -0.77293875977598
 6  3.75705364666467  1.39595408070807 -0.39622583898390
 6  2.49726041904190  0.73977530933093 -0.63536509510951
 6  2.29394639893989 -0.54941108690869 -0.77612985798580
 6  3.55020885778578  2.71258926712671 -0.16198697159716
 6  1.57949910241024 -3.44148941474147 -1.92971317231723
 6 -5.55220455565557 -2.49661157075708  1.50365030503050
 6 -3.60074213711371 -1.83408847084708  0.24932871787179
 6  2.09406366656666  2.92274870307031 -0.05804328132813
 6 -4.98267446374637 -1.52464796799680  0.39034767366737
 6  5.11126960506051  0.68536820682068 -0.37409046544654
 6 -2.62332329452945 -1.05460223182318 -0.40542095649565
 6 -1.58865680338034 -3.74422892519252 -1.85369861356136
 6 -4.65039250605061 -3.61264977067707  1.37112622722272
 6  2.04097457345735 -4.49175139483948 -0.90114297009701
 6  5.49812968926893  0.00614455055506  0.87909601570157
 6  4.47571335753575  3.80143137443744  0.25055723952395
 6  1.38190943234323  4.02602701020102  0.31038115761576
 6 -6.87872900350035 -2.94374175397540  1.20563002910291
 6 -5.74394299679968 -0.60818554845485 -0.24421589598960
 6 -0.02934792379238  3.96879155075508  0.17571619721972
 6 -0.96064702640264  5.21610270327033  0.50604523312331
 6 -2.14516984318432  4.72284840764076  0.38656005890589
 6  2.93935677697770 -4.07201382048205  0.19167056605661
 6 -5.49711437223722  0.26213144174417 -1.35489655665567
 6  6.84115668186819 -0.71998028212821  0.80334345694569
 6 -3.54479023832383  5.35663196139614  0.56043685878588
 6 -2.16861029732973  3.24737692899290 -0.10699977517752
 6 -0.54947908540854  6.54541840984098  0.92319740954095
 6 -4.27223576047605  5.70173857875788 -0.77331810751075
 1 -0.19874743964396  0.14152985858586  0.01594104080408
 1  3.26055006960696 -1.33955595769577 -0.99987949654965
 1  2.41315256615662 -3.02794750165017 -2.24295673037304
 1  1.20691747104710 -4.05575749334933 -2.63433580008001
 1 -5.38435024122412 -2.14063245234523  2.53039520002000
 1  5.09483979417942 -0.07482276577658 -1.05025817881788
 1  5.84057602320232  1.43093740304030 -0.56457775737574
 1 -2.93204129982998 -0.06291179497950 -0.64587749334934
 1  0.56639297099710  1.77758894189419 -0.39862933503350
 1 -1.71781737293729 -4.74205630983098 -1.06724753045305
 1 -2.47934156385639 -3.61584928692869 -2.20625994619462
 1 -0.88845879697970 -4.11275945034503 -2.56844044704470
 1 -2.58444220202020 -3.61338748714871  0.65010225722572
 1  1.23382918961896 -5.02408489098910 -0.52074579207921
 1  2.70825001080108 -5.29363207170717 -1.29629414331433
 1  4.77890231123112 -0.81094714581458  0.89481006720672
 1  5.55866006560656  0.68298273487349  1.69239371007101
 1  4.14089160946095  4.90034050145015 -0.16024600730073
 1  5.45397202000200  3.59143186238624 -0.19185266206621
 1  4.52273169056906  3.94904041214121  1.34809611351135
 1  1.77835366736674  4.99179910951095  0.37014680158016
 1 -7.63533630523052 -2.21770776527653  1.31358605260526
 1 -7.00530617491749 -3.82006977287729  1.83296566446645
 1 -6.91914009800980 -3.34827259075908  0.17440903010301
 1 -6.75982332403240 -0.66562689398940 -0.02709078117812
 1 -5.11640648244824  1.22605680258026 -0.76534038213821
 1 -6.51142297199720  0.52031966026603 -1.92405908440844
 1 -4.54505300080008  0.00941778797880 -1.94963617631763
 1 -3.48618849814981  6.37466012181218  1.30245794979498
 1 -4.34771244874487  4.62764189638964  1.02985512331233
 1  0.31718628392839  6.49986194609461  1.73992672517252
 1 -1.36264764806481  7.14744143964396  1.21108036443644
 1 -0.08956976937694  7.10151865236524  0.13689002320232
 1 -3.67490778657866  6.35535141824182 -1.41667948404841
 1 -5.28480030313031  6.38268100910091 -0.80706584828483
 1 -4.21765628672867  4.79802129442944 -1.42911264966497
 1  3.56348165466547 -4.74319855005501  1.83181181818182
 1  8.00407765246525 -1.92612326462646  1.51578174077408

