%nproc=4
%Mem=4GB
# td=(NStates=1) B3LYP/SVP 

TD

0 1
 8 -4.51022114291429 -4.79296937813781  1.93539890349035
 8  2.72879347744774 -5.01061561076108  1.08725665746575
 8  7.06934731613161 -1.41681922302230  1.96981720222022
 8  3.67736946974697 -3.26245537073707  0.10851370977098
 8  7.58994774677468 -0.61337271657166 -0.00080965026503
 8 -2.96093642244224  2.44039143664366 -0.23651855645565
 7 -0.28483286498650 -0.51404075387539 -0.49083771997200
 7  1.62966064876488  1.76329870867087 -0.53936559865987
 7 -3.33100004300430 -3.13499254605461  0.73170164146415
 7 -0.67481888478848  2.90926134433443 -0.05746076997700
 6  0.57665889828983 -2.37712315061506 -1.41475355845585
 6  0.90048898269827 -1.04904485558556 -1.01224377967797
 6 -0.79106343144314 -2.53315720512051 -1.26715691509151
 6 -1.30940304650465 -1.41836547844784 -0.76128759465947
 6  3.84896283758376  1.43760824612461 -0.30417663406341
 6  2.59055974897490  0.78080941274127 -0.55322688128813
 6  2.23625062936294 -0.52945909170917 -0.75056730173017
 6  3.68259209610961  2.77863587178718 -0.04240501340134
 6  1.55521667416742 -3.42190745654565 -1.98887908890889
 6 -5.54520385558556 -2.61407331693169  1.40117005700570
 6 -3.60485254815482 -1.90797585958596  0.06080986598660
 6  2.17829208940894  2.99440586878688 -0.11541901890189
 6 -5.09956615291529 -1.57092259545955  0.36823546244624
 6  5.11855033313331  0.73158282828283 -0.35168822522252
 6 -2.72776373857386 -0.97741451305131 -0.43583399779978
 6 -1.42378031573157 -3.84261876417642 -1.61417466116612
 6 -4.46324379117912 -3.70723922962296  1.37379649424942
 6  1.92364284028403 -4.56736895659566 -1.05460831663166
 6  5.44752462876288 -0.00416648054805  0.93023112921292
 6  4.61609739593959  3.83414464576458  0.26599878367837
 6  1.43996523792379  4.15173958145815  0.11863198269827
 6 -6.91251238183818 -3.32736011581158  1.07213667976798
 6 -5.92792139463946 -0.63490822072207 -0.16578805320532
 6  0.01042605360536  4.04210888248825  0.17825645124512
 6 -0.94195515721572  5.13131422442244  0.42948757735774
 6 -2.21334666086609  4.78343446624662  0.20648205110511
 6  2.86704954625463 -4.14020063916392  0.08905030403040
 6 -5.47575223602360  0.52594782338234 -1.05838690569057
 6  6.82109467566757 -0.71934021812181  0.94006712931293
 6 -3.55427118641864  5.35358165636564  0.55381619671967
 6 -2.05168860516052  3.21453364466447 -0.04395347054705
 6 -0.53660779827983  6.46912078007801  0.81342643244324
 6 -4.39716825372537  5.69789819471947 -0.85593636933693
 1 -0.47452501740174  0.47153285888589 -0.25465601890189
 1  3.12757677227723 -1.12212421452145 -0.76097560616062
 1  2.52095334623462 -2.98684339123912 -2.24837727242724
 1  1.24500127942794 -3.86354827242724 -3.02456482298230
 1 -5.47340914711471 -2.21522991209121  2.33085524602460
 1  5.14699500970097  0.17588230473047 -1.25980913391339
 1  5.89650161576158  1.62676698599860 -0.45611691129113
 1 -3.08773686938694  0.03641813801380 -0.67709061466147
 1  0.69092542424242  1.82947413041304 -0.70495996809681
 1 -1.58413400460046 -4.57997010121012 -0.92037284298430
 1 -2.45225885558556 -3.43794149614962 -2.03737305750575
 1 -0.87662761386139 -4.19071724612461 -2.50608421142114
 1 -2.46617037483748 -3.61436758515852  0.52782002900290
 1  1.00205601230123 -4.98611109360936 -0.62368608610861
 1  2.22438162396240 -5.37499020752075 -1.94837935183518
 1  4.64903932493249 -0.78825487658766  1.33181376757676
 1  5.43100730033003  0.62614705130513  1.67439190989099
 1  4.81408892919292  4.50746121352135 -0.82076205890589
 1  5.69742636543654  3.42072479167917  0.46648317151715
 1  4.25955537293729  4.38498400650065  1.14679598349835
 1  2.13382921492149  5.14446437603760  0.24083387028703
 1 -7.75081785338534 -2.59841583608361  1.10064475847585
 1 -7.07532317661766 -4.29110687658766  1.72916528442844
 1 -6.87309549354935 -3.46433419691969 -0.08259667046705
 1 -6.99963730543054 -0.66803713501350  0.06478840674068
 1 -4.76650149194920  1.09732392929293 -0.48670251835183
 1 -6.26277810751075  0.87652528082808 -1.52877955645565
 1 -5.09303779927993 -0.02470562436244 -2.13606481918192
 1 -3.40935081438144  6.17099975577558  1.14866257025703
 1 -4.13026070357036  4.77785691789179  1.05254739253925
 1 -0.01364679937994  6.72090405030503  1.74372710521052
 1 -1.39282066536654  7.29174587008701  0.64502375877588
 1  0.21062024962496  6.63815231573157 -0.07836150195020
 1 -3.59377967376738  6.33679956305631 -1.45036285238524
 1 -5.20622244534453  6.46353909490949 -0.59452459415942
 1 -4.78935345644564  4.81834332663266 -1.31712145054505
 1  3.48097340384038 -4.67454168436844  1.83410204720472
 1  7.96862410711071 -1.83517416971697  1.95918608120812

