%nproc=4
%Mem=4GB
# td=(NStates=1) B3LYP/SVP 

TD

0 1
 8 -4.76640676147615 -4.83434351555155  1.76714207780778
 8  3.42188278637864 -5.02865741494149  1.21196912871287
 8  7.02952333373337 -1.59376691779178  1.72430265076508
 8  3.92391412421242 -3.20655978117812 -0.04993213481348
 8  7.64062281428143 -0.61131251055106 -0.23314288358836
 8 -3.00260058885889  2.48595599309931 -0.23289819441944
 7 -0.27332171387139 -0.71153050285029 -0.43686232243224
 7  1.56067375007501  1.83111549034903 -0.22893455555556
 7 -3.57524446744674 -3.16535558235824  0.66662513381338
 7 -0.82136353925393  2.95975639383938 -0.04583960786079
 6  0.64153538593859 -2.49500493879388 -1.26031811491149
 6  0.93782271607161 -1.25881583268327 -0.77894044934493
 6 -0.76178050315031 -2.74926881628163 -1.21408160756076
 6 -1.34991709790979 -1.53452709460946 -0.60689215511551
 6  3.76094403570357  1.42466695199520 -0.28953516991699
 6  2.39617031003100  0.81534286608661 -0.39544110271027
 6  2.14038104240424 -0.52319846564656 -0.72133437843784
 6  3.59650348724872  2.78390639883988 -0.00260103300330
 6  1.62040319281928 -3.44941020682068 -1.82734293529353
 6 -5.67323665886589 -2.59145105470547  1.31105104510451
 6 -3.66982904580458 -1.89220428242824  0.06246003100310
 6  2.18052231243124  3.12952938113811  0.03150567356736
 6 -5.07365356165617 -1.52657816101610  0.34642328122812
 6  5.02070054815482  0.72397206720672 -0.43227628402840
 6 -2.69574053625363 -1.05676244784478 -0.33678409280928
 6 -1.45007294499450 -3.87363186548655 -1.80105334903490
 6 -4.66304377117712 -3.65096360206021  1.26199531413141
 6  2.07804828082808 -4.54760698039804 -0.80837369316932
 6  5.46929680598060  0.00195413151315  0.81213932003200
 6  4.56135192139214  3.93472470377038  0.30821300510051
 6  1.38136937833783  4.15165957345735  0.29583970347035
 6 -7.13322445304530 -2.99461684148415  1.12259172527253
 6 -5.84074267676768 -0.57040177007701 -0.21071254565457
 6 -0.01828681768177  4.14261893349335  0.15445407100710
 6 -0.96481744344434  5.17153824682468  0.43083771237124
 6 -2.22360768696870  4.76748287108711  0.21537294019402
 6  3.15611845314531 -4.08290490959096  0.09753115211521
 6 -5.52591725252525  0.47764299289929 -1.27157822482248
 6  6.83605617181718 -0.73537182128213  0.69286240884088
 6 -3.45740149944994  5.40840713891389  0.29918073317332
 6 -2.06859029532953  3.30389258055806 -0.06685576077608
 6 -0.45289942744274  6.52936680468047  0.91273636343634
 6 -4.30384892179218  5.67234563946395 -1.01636241194119
 1 -0.18636620152015  0.20339604520452  0.06037548424843
 1  3.14753876847685 -1.02737473957396 -0.81832134073407
 1  2.60457170807081 -3.12258696559656 -2.43976641134113
 1  1.00283706300630 -4.07748966656666 -2.73583595009501
 1 -5.36050785698570 -2.32491088018802  2.14740690119012
 1  5.02326263646365 -0.07448273177318 -1.31423457645765
 1  5.83143510911091  1.41420572987299 -0.69073037263726
 1 -2.84260235593559  0.01151564776478 -0.59512241784178
 1  0.52060839253925  1.79347053005301 -0.11491096319632
 1 -1.42200779197920 -4.73214531873187 -1.16732753845384
 1 -2.54825845554555 -3.61236893889389 -1.97349666986699
 1 -0.86816676777678 -4.15660383478348 -2.83309691269127
 1 -2.63761751955195 -3.62709885828583  0.82726997399740
 1  1.22512831953195 -5.00611309380938 -0.38975269276928
 1  2.58806799259926 -5.36021873037304 -1.31099561346135
 1  4.73239766076608 -0.89642569366937  1.09460004620462
 1  5.47234143374337  0.71668610521052  1.75154962566257
 1  4.16490401070107  4.87781824922492 -0.12870285298530
 1  5.52043866666667  3.66148886808681  0.05238176137614
 1  4.40641005840584  4.12624813291329  1.40124142804280
 1  2.00149598159816  4.97205713531353  0.84740452735274
 1 -7.76560933253325 -2.04014000850085  1.29319401340134
 1 -7.25515115941594 -3.80462822872287  1.96659902780278
 1 -7.38412659665967 -3.39461722522252  0.15697728692869
 1 -6.76270361206121 -0.36430676197620  0.17333926182618
 1 -5.32396723852385  1.40467466436644 -0.71195504360436
 1 -6.63309513921392  0.70646827512751 -1.75283196169617
 1 -4.79277777327733  0.33920076627663 -1.97133834653465
 1 -3.32158203750375  6.46939959575958  0.71859956395640
 1 -4.21847952545255  4.88148728092809  1.17927006480648
 1  0.05049961526153  6.68245020492049  1.85942867536754
 1 -1.12636401970197  7.31299799529953  0.73241249764976
 1  0.47570675827583  6.79900840134013  0.19990632483248
 1 -3.77951824762476  6.27157304040404 -1.56742455855586
 1 -5.20273209630963  5.96040878187819 -0.65162030373037
 1 -4.25332985408541  4.63212470477048 -1.56247598599860
 1  4.17949325582558 -4.58056228642864  1.70437907490749
 1  7.97224446914691 -1.88249890219022  1.74805496809681

