%nproc=4
%Mem=4GB
# td=(NStates=1) B3LYP/SVP 

TD

0 1
 8 -4.63757387818782 -4.70274035523552  1.81811717531753
 8  2.97618821692169 -4.97358190739074  1.24157208900890
 8  7.02256263766377 -1.40732827392739  1.95789601010101
 8  3.70293202600260 -3.21970109530953  0.01017387578758
 8  7.77229598159816 -0.34545592489249  0.02894332503250
 8 -3.08534886368637  2.44813221072107 -0.35424032863286
 7 -0.25010939263926 -0.63993334313431 -0.53542217841784
 7  1.57279496219622  1.79941232003200 -0.44853651575158
 7 -3.51493843684368 -3.05074412121212  0.68122659395940
 7 -0.79671107400740  2.88685910411041 -0.09087411131113
 6  0.64574580698070 -2.50946638493849 -1.41383346644664
 6  0.97100603440344 -1.19481943304330 -0.97560011531153
 6 -0.70072439753975 -2.70694458385839 -1.26971717111711
 6 -1.31713381958196 -1.57045068696870 -0.69443090899090
 6  3.83390133143314  1.44591907720772 -0.50440665706571
 6  2.49758045104510  0.82902423422342 -0.66780833943394
 6  2.25135213951395 -0.51467761356136 -0.79809205420542
 6  3.50914475137514  2.76703471167117 -0.08856962986299
 6  1.72967411991199 -3.52672793859386 -1.95043524452445
 6 -5.59665900110011 -2.49319122872287  1.36156609660966
 6 -3.59993205610561 -1.81538660066007  0.19029281428143
 6  2.12623688388839  2.94367079527953 -0.09769724672467
 6 -5.01155735203520 -1.46478198139814  0.43160179907991
 6  5.05745422352235  0.78373804380438 -0.49808286468647
 6 -2.67494845704570 -1.15375214681468 -0.48626904130413
 6 -1.51969990769077 -3.88871337363736 -1.82546579027903
 6 -4.50765823262326 -3.60939944564456  1.44594370897090
 6  1.94785526152615 -4.60699291899190 -0.84029688548855
 6  5.43473334963496 -0.12417848174817  0.72585069116912
 6  4.65582136833683  3.78069930123012  0.34895707950795
 6  1.33793503490349  3.97614202170217  0.26766688618862
 6 -6.96846797739774 -3.05668304810481  1.13131259735974
 6 -5.73957255975598 -0.48440317021702 -0.15763723812381
 6 -0.04494948394839  3.99441411301130  0.13167179277928
 6 -1.06910787248725  5.09434052705271  0.53823845244524
 6 -2.24352967916792  4.73902002480248  0.40108151105111
 6  3.01924476577658 -4.20018663776378  0.11846324532453
 6 -5.30726538733873  0.43797902650265 -1.24567563456346
 6  6.81300386658666 -0.62975125922592  0.85358848144814
 6 -3.59355511481148  5.49426572477248  0.58771958705871
 6 -2.16392982928293  3.17408960026003 -0.13577265246525
 6 -0.50087422492249  6.46780064806481  0.92152724252425
 6 -4.18737727462746  5.70036844174417 -0.81358213391339
 1 -0.45276284118412  0.16377208280828  0.12469191589159
 1  2.95950996559656 -1.28760076217622 -0.79774928352835
 1  2.72722397329733 -3.01887659455946 -2.38675110981098
 1  1.16120289958996 -4.00262217981798 -2.68984135063506
 1 -5.41654346054605 -1.86417480658066  2.54744690519052
 1  5.09479979017902  0.17086180268027 -1.21513466646665
 1  5.95182714831483  1.50946525582558 -0.49524082368237
 1 -2.73737183288329 -0.00091559535954 -0.85959886548655
 1  0.60790712241224  1.81181236423642 -0.55177464956496
 1 -1.15433102430243 -4.86393849804981 -1.10121092679268
 1 -2.51478510821082 -3.63422112411241 -1.74285360556056
 1 -1.28552850395040 -3.96169434383438 -3.08110171317132
 1 -2.63295705350535 -3.65020116851685  0.51030827782778
 1  1.03232903960396 -4.94214669716972 -0.37683140064006
 1  2.39995918171817 -5.40937364586459 -1.40811532543254
 1  4.79433385438544 -1.08053410451045  0.75729631583158
 1  5.06445064466447  0.35913034963496  1.61751622232223
 1  4.14016153645365  4.79852031943194 -0.00835081778178
 1  5.69946656945695  3.47709042824282 -0.03814729152915
 1  4.77180659805981  3.74915042314231  1.60665196909691
 1  1.67518335033503  5.02565249484948  0.67692747964797
 1 -7.79456222782278 -2.39661565606561  1.18502319631963
 1 -7.52242788708871 -3.81246901280128  1.75967833573357
 1 -7.18294647864786 -3.37093485698570  0.13044463366337
 1 -6.78558590029003 -0.48111844314432  0.22098402630263
 1 -4.89063390519052  1.31458565546555 -0.91579542764276
 1 -6.21498332803280  0.84513214151415 -1.63099977847785
 1 -4.79244774027403 -0.06109926372637 -2.02036324902490
 1 -3.49241912121212  6.47739039483948  1.10696840084008
 1 -4.19833751125113  4.84386351855186  1.26831896969697
 1  0.12248681398140  6.58923088298830  1.81069380188019
 1 -1.32709409270927  7.18724542004200  1.07424668106811
 1  0.15873506110611  6.99248774927493  0.17874420862086
 1 -3.52660295609561  6.44615049814981 -1.33964178027803
 1 -5.23049487258726  6.12906564756476 -0.64641978367837
 1 -4.37505202630263  4.86785827812781 -1.42505224362436
 1  3.73340864736474 -4.79452368256826  1.92377101410141
 1  7.74754199889989 -2.00962161446145  1.91680184278428

