%nproc=4
%Mem=4GB
# td=(NStates=1) B3LYP/SVP 

TD

0 1
 8 -4.52743286408641 -4.70729081028103  1.85926128972897
 8  2.97772837093709 -4.84969951915191  1.18493642544254
 8  7.05374575597560 -1.44508204930493  2.03620384088409
 8  3.78680041284128 -3.08339746494649 -0.11526866846685
 8  7.70463921592159 -0.51330270957096  0.14913534423442
 8 -3.09955028382838  2.56495389288929 -0.27939284388439
 7 -0.31226560826083 -0.57686703650365 -0.60817945414541
 7  1.43952163486349  1.74473685248525 -0.29339100120012
 7 -3.45325226822682 -3.15903495029503  0.60481895319532
 7 -0.76569797269727  2.82268268646865 -0.06874189808981
 6  0.65338657105711 -2.48436387468747 -1.30772285538554
 6  0.88382731653165 -1.07079703080308 -0.97764031933193
 6 -0.75706003110311 -2.70860474987499 -1.20427062646265
 6 -1.29658176437644 -1.52563620552055 -0.65769723562356
 6  3.81978992029203  1.45502998829883 -0.45144136053605
 6  2.42536322932293  0.72658399019902 -0.56444800340034
 6  2.14544154845485 -0.55702184798480 -0.86830907590759
 6  3.59616345324532  2.73770177837784 -0.10805157805781
 6  1.63837498999900 -3.45243050885089 -1.87538773977398
 6 -5.61361069626963 -2.48451036063606  1.34810475047505
 6 -3.66170823372337 -1.86296135813581  0.03991777677768
 6  2.11875613581358  2.93077950615061 -0.06775425242524
 6 -5.01983818011801 -1.52798830203020  0.28961760066007
 6  5.09124760286029  0.67392706270627 -0.55445850225023
 6 -2.63575453765376 -1.06474324592459 -0.41967238163816
 6 -1.55113305100510 -3.93348785108511 -1.62581582528253
 6 -4.51064853165317 -3.58898740444044  1.39293840844084
 6  1.94749522552255 -4.54342656235624 -0.92183503930393
 6  5.30569044534453 -0.19358542244224  0.74497260336034
 6  4.65180096629663  3.84215544684468  0.08819100290029
 6  1.38513975537554  3.97310171767177  0.32733285278528
 6 -6.94838596919692 -3.11177855765577  1.13822328842884
 6 -5.70403900640064 -0.51695642554255 -0.22077355175518
 6 -0.01744673367337  4.00466513811381  0.20314894049405
 6 -0.90827178887889  5.10583167616762  0.56611123972397
 6 -2.18879420562056  4.72589871267127  0.41143254615462
 6  3.00860370167017 -4.03111973107311  0.08948034703470
 6 -5.36632129292929  0.31788701730173 -1.41626269326933
 6  6.79300186638664 -0.70607889198920  0.88863198579858
 6 -3.57107286658666  5.46076237443744  0.57585840094009
 6 -2.08673210951095  3.29424161546155  0.05140606540654
 6 -0.49736387388739  6.48235210321032  0.78579366916692
 6 -4.28629716661666  5.67007541244124 -0.71111188688869
 1 -0.39817738263826  0.38599430503050 -0.20865141844184
 1  2.98846286088609 -1.23594559665967 -1.15790529912991
 1  2.46174742564257 -2.68548325522552 -2.18906134083408
 1  1.29409618891889 -3.84440635823582 -2.83733610011001
 1 -5.58581038723872 -1.99445783488349  2.40802296279628
 1  5.16070638083808 -0.04724000750075 -1.35181833483348
 1  5.92573453905391  1.45529983928393 -0.61367266686669
 1 -2.66252434813481 -0.03922942674267 -0.83510641624162
 1  0.34538086978698  1.87495867886789 -0.51598107020702
 1 -1.40249584078408 -4.55323742794279 -0.74385519121912
 1 -2.65369899959996 -3.62483018501850 -2.02889220942094
 1 -1.03850380148015 -4.49998817321732 -2.47077068006801
 1 -2.47956171397140 -3.44664081248125  0.55911315831583
 1  1.20496630333033 -5.11619410191019 -0.31818553605360
 1  2.53753293909391 -5.45811852035204 -1.44375888978898
 1  4.94679910091009 -1.25611166226623  0.76126671287129
 1  5.00606480608061  0.38943337993799  1.78134260496050
 1  4.58067558785879  4.73572403980398 -0.71994197689769
 1  5.68162478527853  3.34556727592759  0.21595811901190
 1  4.38877829522952  4.61419692779278  1.01952325622562
 1  2.00884671667167  4.90443037263726  0.39781956885689
 1 -7.66561933353335 -2.32946894139414  1.59790448444844
 1 -7.10185582988299 -3.93665143104310  1.78329069696970
 1 -7.26220440444044 -3.41924968846885  0.12346393559356
 1 -6.88500584228423 -0.51318164946495 -0.06456452855286
 1 -4.60423526532653  1.20556475337534 -1.07917176527653
 1 -6.13911574127413  0.66052368066807 -1.93232991149115
 1 -4.73465196069607 -0.19988314211421 -2.07718893159316
 1 -3.42560243954395  6.32660531633163  1.22482018601860
 1 -4.14779245674567  4.74975410761076  1.23565570337034
 1  0.19446401170117  6.56278823872387  1.69313204570457
 1 -1.32325370867087  7.31592828832883  0.96117537393739
 1  0.12440162776278  6.87661616211621  0.09293562776278
 1 -3.71719201500150  6.07595347844784 -1.50402821892189
 1 -5.17206903000300  6.17053979497950 -0.75647078877888
 1 -4.48837335843584  4.62506399869987 -1.16173591199120
 1  3.68941424792479 -4.59131336153615  1.68689732673267
 1  8.13761100580058 -1.56166681898190  1.86461662426243

