%nproc=4
%Mem=4GB
# td=(NStates=1) B3LYP/SVP 

TD

0 1
 8 -4.58288840964096 -4.74392447364736  1.75157052065206
 8  2.95047564566457 -4.76808135733573  1.33178110991099
 8  7.12189257065707 -1.39265680678068  1.85108532903290
 8  3.85056678947895 -3.09911903710371  0.10097295569557
 8  7.53620237223722 -0.76371775107511 -0.30254982428243
 8 -3.04967529632963  2.53769116661666 -0.23619852445245
 7 -0.34471885358536 -0.61344069386939 -0.61789042524252
 7  1.52508019071907  1.73645602440244 -0.32726438853885
 7 -3.36815375837584 -3.10017906470647  0.63813228452845
 7 -0.83349475237524  2.88523894209421 -0.15829085298530
 6  0.64122535493549 -2.52090752905291 -1.29998208130813
 6  0.95181411521152 -1.15439539063906 -0.99405196049605
 6 -0.68571289638964 -2.73291718111811 -1.29466966636664
 6 -1.32741484768477 -1.52707634953495 -0.81589305520552
 6  3.70687862916292  1.41454593989399 -0.26529274567457
 6  2.46204689768977  0.77969930173017 -0.47628918751875
 6  2.13844084838484 -0.50403654945495 -0.92669491449145
 6  3.53012684958496  2.72496050425043  0.03350257735774
 6  1.75603675617562 -3.57161242704270 -1.87080728172817
 6 -5.62992232743274 -2.64894680428043  1.36737667766777
 6 -3.64834689758976 -1.80870593259326  0.12074585958596
 6  2.10215447564756  2.95090151835183  0.05436795979598
 6 -5.05884208050805 -1.49418492169217  0.36740537943794
 6  5.01292977107711  0.67425709570957 -0.46328938533853
 6 -2.64071503370337 -1.08383515511551 -0.56078649304930
 6 -1.49652759045905 -3.88499300160016 -1.65394863856386
 6 -4.49781724852485 -3.67042554825483  1.34326344094409
 6  2.13467394339434 -4.60831305100510 -0.82878573437344
 6  5.51912178847885 -0.06323238713871  0.82466057215722
 6  4.52450823702370  3.75685691699170  0.37615979977998
 6  1.27991923332333  4.02809721722172  0.40129024852485
 6 -7.04283541414141 -3.10798817861786  1.12316178227823
 6 -5.86838544104410 -0.42300703060306 -0.09793126752675
 6 -0.06702169116912  3.97636230783078  0.30284891049105
 6 -0.92681364306431  5.15991708470847  0.49774440304030
 6 -2.20192551875188  4.69172529532953  0.34738614151415
 6  3.03714655595560 -4.05734235333533  0.14354575357536
 6 -5.35857051785178  0.56133136173617 -1.20376144314431
 6  6.80254282048205 -0.74967325142514  0.67928105070507
 6 -3.55079083838384  5.38415471367137  0.44724553965397
 6 -2.04408784508451  3.33502569386939 -0.14023309850985
 6 -0.41578571607161  6.52871673967397  0.76646173597360
 6 -4.32216075297530  5.72179058395840 -0.83874465016502
 1 -0.43490105500550  0.39869557515752 -0.30387094039404
 1  3.03839785438544 -1.13298530063006 -0.99277878647865
 1  2.70569182008201 -3.07333204010401 -2.16765920062006
 1  1.28410518981898 -3.81291320892089 -2.90804317081708
 1 -5.43497530373037 -2.19266765586559  2.44289645014501
 1  5.20888119831983  0.05599031553155 -1.27920107310731
 1  5.76265823142314  1.47972228152815 -0.66842814241424
 1 -2.73401149684969  0.00161465766577 -0.81509441504150
 1  0.40086641834183  1.99344052705270 -0.46809628172817
 1 -1.37712330353035 -4.82121422562256 -0.97727853355336
 1 -2.58426205590559 -3.67781548354835 -1.58839816001600
 1 -1.29775972707271 -4.29312748714871 -2.63287689068907
 1 -2.27642139993999 -3.28427457585759  0.58825607260726
 1  1.24843064976498 -5.04871735423542 -0.42083580108011
 1  2.70466965276528 -5.29063177167717 -1.57991250515051
 1  4.65902032303230 -0.68061411251125  1.13546413261326
 1  5.45106930653065  0.52598703530353  1.84452892359236
 1  4.64102162246225  4.64809527692769 -0.36999698239824
 1  5.54228085088509  3.48673139233923  0.58424494769477
 1  4.17971738913891  4.37914342244224  1.32322362626263
 1  1.78185401740174  5.05220515011501  0.44385417231723
 1 -7.69403217481748 -2.29583557805781  1.34590928492849
 1 -7.23063870817082 -3.96553431933193  1.80442281018102
 1 -7.07680586458646 -3.29141690519052 -0.08107651845184
 1 -6.83431077277728 -0.51472180348035 -0.04544261636164
 1 -4.70200504230423  1.32852704960496 -0.77874172227223
 1 -6.11434326402640  0.83907153545355 -1.84442112061206
 1 -4.61951044654465  0.08268511471147 -1.85867708040804
 1 -3.56237611691169  6.34919757555756  1.00418812281228
 1 -4.03014069156916  4.61891102330233  1.17208934673467
 1  0.24098866416642  6.42548450835084  1.72984571707171
 1 -1.07122850615062  7.28090478597860  1.06752600900090
 1  0.18714790239024  6.88809731023102 -0.04665833163316
 1 -3.70650094589459  6.49851573467347 -1.59555737183718
 1 -5.50907273037304  5.95579832083208 -0.55012015371537
 1 -4.31496601770177  4.65807730003000 -1.46323606200620
 1  3.55489079557956 -4.28374260446045  2.06455509250925
 1  8.10876812151215 -1.62257290959096  2.08991915451545

