%nproc=4
%Mem=4GB
# td=(NStates=1) B3LYP/SVP 

TD

0 1
 8 -4.48801892269227 -4.79322940414041  1.85213057665767
 8  2.82708330643064 -4.87367191639164  1.34348228002800
 8  7.07676805820582 -1.52607014811481  1.71005122562256
 8  3.63946567936794 -3.12474159935994  0.23189604800480
 8  7.48151690369037 -0.66533791309131 -0.25727529682968
 8 -3.01351167996800  2.44938233573357 -0.18536344094409
 7 -0.23203758545855 -0.56161551135113 -0.62186082228223
 7  1.52866054875488  1.82734511331133 -0.40939260136014
 7 -3.48410535353535 -3.22492153895390  0.61297976927693
 7 -0.67514891779178  2.92321273947395 -0.11167619151915
 6  0.66986821922192 -2.44500993929393 -1.39875195829583
 6  1.00168910271027 -1.08053800490049 -1.08143069836984
 6 -0.68223254835484 -2.64267815721572 -1.22140233963396
 6 -1.25351745794579 -1.43810745264526 -0.64037550345034
 6  3.75734367566757  1.46811129642964 -0.40939715611561
 6  2.49971066406641  0.87487881968197 -0.62100365896590
 6  2.22014901920192 -0.47788393419342 -0.86054829982998
 6  3.58024186108611  2.80148815701570  0.03309253635364
 6  1.63663481598160 -3.44310957675768 -1.89056925792579
 6 -5.63889322452245 -2.66286819641964  1.34097403740374
 6 -3.62136419931993 -1.85683074507451  0.12380616561656
 6  2.11343560376038  3.02045847404740  0.01559408240824
 6 -5.11764796109611 -1.57100260346035  0.32600123902390
 6  5.10081855995600  0.73752342234223 -0.49094215061506
 6 -2.58608957115712 -1.03442021362136 -0.29917033143314
 6 -1.43616155385539 -3.86410091239124 -1.74840808450845
 6 -4.47891535833583 -3.72741124682468  1.29144825942594
 6  1.82797327332733 -4.58615083478348 -0.82421527732773
 6  5.41225110141014  0.00403433953395  0.81500960706071
 6  4.57328311451145  3.87493872517252  0.34986717051705
 6  1.29066030743074  4.13506791429143  0.26573669316932
 6 -6.89209033963396 -3.29013639343934  1.05658512461246
 6 -5.92269087158716 -0.66718144804480 -0.16226770117012
 6 -0.06287127612761  4.00377504910491  0.31255988158816
 6 -0.95062602430243  5.16179727272727  0.61415604420442
 6 -2.17942326852685  4.68656477927793  0.41612301520152
 6  2.83661650295030 -4.04987160626063  0.28824022302230
 6 -5.47195185598560  0.43362859145915 -1.16214728172817
 6  6.74020658685869 -0.78025630973097  0.68110123272327
 6 -3.49635539483948  5.46597289548955  0.33447426252625
 6 -2.04525796209621  3.26487867916792 -0.05516459165917
 6 -0.47545168266827  6.54885875387539  1.07927301710171
 6 -3.91501003790379  5.65685409030903 -1.07211798749875
 1 -0.25071263616362  0.30373607920792 -0.21276182948295
 1  3.16026004060406 -1.05440744284429 -1.15665517411741
 1  2.59465071597160 -2.89036374327433 -1.91727416211621
 1  1.43884066336634 -3.91275319291929 -2.82300466696670
 1 -5.64605641184118 -2.21545993509351  2.25250741124112
 1  5.08793910411041  0.05181989848985 -1.23329648264827
 1  6.04514648024803  1.38989329862986 -0.55470677027703
 1 -2.99606770247025  0.06378087428743 -0.67906081168117
 1  0.49238557025703  1.76302748574858 -0.57223669576958
 1 -1.70988657985799 -4.51367347154715 -0.91341214691469
 1 -2.35932956265627 -3.54118182018202 -2.41838115831583
 1 -0.87701765286529 -4.39576775117512 -2.34857846084609
 1 -2.63407716551655 -3.42742889128913  0.78041528852885
 1  0.96017182388239 -4.93192567506751 -0.32561627912791
 1  2.33493267906791 -5.56499920842084 -1.24320883478348
 1  4.59856427742774 -0.59790584168417  1.21598218441844
 1  5.55476967656766  0.69184362096210  1.73643811451145
 1  4.86479399969997  4.70870133753375 -0.47089707240724
 1  5.70198682148215  3.29520223942394  0.61481800500050
 1  4.25360477787779  4.56459196729673  1.04543584748475
 1  1.79722555455546  5.10973090269027  0.33074286118612
 1 -7.81813458505851 -2.40441643614361  0.91491618561856
 1 -7.32107775207521 -4.19308707460746  1.68751111901190
 1 -6.69130731473147 -3.78551631513151  0.05036662586259
 1 -6.96317365906591 -0.80481081238124  0.13203513141314
 1 -4.91200604240424  1.19403360026003 -0.58818266636664
 1 -6.28075990569057  0.84652228052805 -1.87817449594959
 1 -4.55489398489849 -0.00976413021302 -1.93736494919492
 1 -3.60695057435744  6.47742039783978  0.82866057005701
 1 -4.19892757025703  4.86226535873587  1.11711384918492
 1  0.25360992629263  6.58725068496850  1.93212594509451
 1 -1.26585796909691  7.40908760426043  1.39481873827383
 1 -0.25300611301130  7.32890139063906  0.04268060226023
 1 -3.28874917071707  6.36959284238424 -1.85034285038504
 1 -5.00629245234523  5.81965470647065 -1.25243038473847
 1 -3.82932745384538  4.70194168646865 -1.87068680708071
 1  3.42225753225323 -4.52297652785279  2.08632726972697
 1  8.08546579127913 -1.84340499279928  1.59145930853085

