%nproc=4
%Mem=4GB
# td=(NStates=1) B3LYP/SVP 

TD

0 1
 8 -4.58823894469447 -4.72442252345235  1.99309467306731
 8  2.85384598269827 -4.91172572177218  1.15412334413441
 8  6.95471585298530 -1.43342088318832  1.92044226472647
 8  3.81250298309831 -3.15768489368937  0.14795765416542
 8  7.49920867286729 -0.96099747904790 -0.24409397869787
 8 -3.08680900970097  2.58379577707771 -0.34790969556956
 7 -0.21837621932193 -0.54637398719872 -0.66688532473247
 7  1.62427010971097  1.81640401920192 -0.33017467956796
 7 -3.42583952695270 -3.18373742054205  0.62080055135514
 7 -0.75461686458646  2.88512893109311 -0.11867689158916
 6  0.68344957735774 -2.44952039033903 -1.38936101920192
 6  0.92805173897390 -1.16293624472447 -1.02807536283628
 6 -0.72201652675268 -2.64782867226723 -1.17181738113811
 6 -1.28368047424742 -1.45664930683068 -0.79697116301630
 6  3.84665260656066  1.47857234253425 -0.37301351775178
 6  2.55838653165317  0.79374070587059 -0.58259981858186
 6  2.21564856915692 -0.51354750055006 -0.92227447244724
 6  3.57572140904090  2.76036404460446  0.00392962006201
 6  1.63760491299130 -3.42943820962096 -1.88472867386739
 6 -5.61171050625062 -2.48180008960896  1.40425036503650
 6 -3.64321638453845 -1.97975303730373 -0.00963717871787
 6  2.19682394259426  3.00391681988199  0.04276679967997
 6 -5.05370156645665 -1.48926442964296  0.30690932983298
 6  5.21433991209121  0.79724939493949 -0.41017407380738
 6 -2.63298426062606 -1.13566033763376 -0.55600601500150
 6 -1.50961889958996 -3.95432993529353 -1.52603584728473
 6 -4.54234170097010 -3.59169767546755  1.44767388198820
 6  2.12710318631863 -4.51379359905991 -0.86111896769677
 6  5.52390226652665  0.02401633773377  0.77795590169017
 6  4.57453323952395  3.80226145744574  0.48215039883988
 6  1.36353759515952  4.12680708820882  0.17519763926393
 6 -7.01237236783678 -2.96309368916892  1.23220268636864
 6 -5.70852945544554 -0.55562029192919 -0.24116559095910
 6 -0.10890587958796  3.97990266186619  0.26011463706371
 6 -1.01303226492649  5.16671776477648  0.49081370997100
 6 -2.22908823502350  4.67310343314331  0.33016441934193
 6  3.03392623392339 -4.01692831193119  0.13609500850085
 6 -5.30723538433843  0.31749697829783 -1.44121518851885
 6  6.77311987818782 -0.77982626672667  0.68723184578458
 6 -3.55220097939794  5.27513381158116  0.51501231633163
 6 -2.17995143144314  3.21322351365137 -0.12382145734573
 6 -0.59938407590759  6.58477234523452  0.87208229802980
 6 -4.37392592949295  5.73110151505151 -0.66878765446545
 1 -0.29610717561756  0.35179088468847 -0.02630318361836
 1  2.97800181478148 -1.33823582568257 -0.99796930553055
 1  2.49411066196620 -2.83409811671167 -2.11842427712771
 1  1.42675945524552 -3.90936285388539 -2.90906327282728
 1 -5.49335114131413 -2.06332472157216  2.42603476397640
 1  5.09919022922292 -0.09557484098410 -1.21760491349135
 1  6.08120008560856  1.47575188448845 -0.73407470707071
 1 -2.79936803250325 -0.03336884068407 -0.57262016761676
 1  0.54417074877488  1.88312949594959 -0.44474394649465
 1 -1.62325791699170 -4.70747285148515 -0.67507831353135
 1 -2.35670930063006 -3.52952065406541 -2.09029835003500
 1 -0.90206015711571 -4.65140331473147 -2.40281388438844
 1 -2.74085784358436 -3.94387053545355  0.69720696769677
 1  1.22472827952795 -4.87135961846185 -0.43792751025102
 1  2.64672385818582 -5.18921162966297 -1.53214772867287
 1  4.64744916591659 -0.76781283238324  1.01976256245625
 1  5.36630082968297  0.70454489108911  1.74129860056006
 1  4.42617013731373  4.81266173357336  0.11128114541454
 1  5.74181080388039  3.53267598679868  0.36214273747375
 1  4.40830024742474  3.90331583968397  1.57735903980398
 1  2.00123595559556  4.94472440204020  0.40131991889189
 1 -7.79258202980298 -2.20508650315031  1.48378307230723
 1 -6.98266391069107 -3.85918368426843  2.03362573047305
 1 -6.98055623962396 -3.43412117561756  0.15118670787079
 1 -6.79045638733873 -0.34783511481148  0.07635956385639
 1 -4.62080692249225  1.26156035293529 -1.15983983208321
 1 -5.95239706940694  0.54246187448745 -2.21631831033103
 1 -4.67049554505450 -0.45018817261726 -2.02705391809181
 1 -3.64220409970997  6.01221387718772  1.27292499649965
 1 -4.26694437193719  4.34168330053005  0.83961609940994
 1 -0.11895733043304  6.61311327122712  2.03685641814181
 1 -1.45708709200920  7.30403709920992  0.91983123952395
 1  0.16840602820282  6.99686818731873  0.40939727392739
 1 -3.91927222302230  6.84035991909191 -1.16279409550955
 1 -5.41353317641764  6.11117385838584 -0.19125426712671
 1 -4.53881840294029  5.03449494179418 -1.55372511091109
 1  3.46982228872887 -4.72953718391839  1.88939757675768
 1  7.73185042974297 -1.85615626792679  1.93807396999700

