%nproc=4
%Mem=4GB
# td=(NStates=1) B3LYP/SVP 

TD

0 1
 8 -4.43481360216022 -4.76920700190019  1.88975433903390
 8  2.97298789688969 -4.80106465566557  1.31954988678868
 8  7.01301168256826 -1.68526606770677  1.83651387188719
 8  3.92558429122912 -3.26667579277928 -0.03887102870287
 8  7.54535328732873 -0.62796417571757 -0.01069063836384
 8 -3.00069039783978  2.50219761726173 -0.01320622522252
 7 -0.28956333803380 -0.55589493929393 -0.61953058925893
 7  1.46685436813681  1.74007638643864 -0.53494515661566
 7 -3.41277822082208 -3.12002104890489  0.67238570987099
 7 -0.71632303520352  3.06760717891789 -0.24913993789379
 6  0.65042627502750 -2.43111855015502 -1.42124420752075
 6  0.93939287308731 -1.08156810791079 -1.05032758805881
 6 -0.78952327742774 -2.75294918431843 -1.26674687408741
 6 -1.29454156035604 -1.47508115001500 -0.70209167506751
 6  3.80473841514151  1.44184867016702 -0.28790500690069
 6  2.50685137813781  0.78365969776978 -0.62673423202320
 6  2.23083008730873 -0.46988313411341 -0.88694093909391
 6  3.56056989388939  2.70841885008501  0.02516174327433
 6  1.63761491399140 -3.52269753555356 -1.96876707770777
 6 -5.56005534073407 -2.56039794939494  1.39250919091909
 6 -3.68614067696770 -1.84128919091909 -0.00227644264426
 6  2.15077933813381  2.96842327052705 -0.10314779177918
 6 -5.02708890519052 -1.50017552075208  0.29399803870387
 6  5.00045852395240  0.76886655665567 -0.38178123452345
 6 -2.67401836403640 -1.10949772137214 -0.58138855325533
 6 -1.47575551325133 -3.96998150045004 -1.55075831953195
 6 -4.43035050185019 -3.64463296899690  1.41087020162016
 6  2.06068654465447 -4.60168238793879 -0.87576043184318
 6  5.33746362266227 -0.11838790269027  0.91437954405441
 6  4.52900868706871  3.77809904120412  0.46874905870587
 6  1.37164840624062  4.03340774827483  0.24139425892589
 6 -6.92915404600460 -3.30534791459146  1.11727119321932
 6 -5.76039464196420 -0.47547227712771 -0.18322979737974
 6  0.01285629662966  4.08956362796280  0.06809543514351
 6 -1.01307226892689  5.20374146714672  0.41810643924392
 6 -2.25686101230123  4.76721284408441  0.39062046494649
 6  3.01181402270227 -4.04713133223322  0.16943834283428
 6 -5.38656331713171  0.53831906050605 -1.22499356635664
 6  6.74361692789279 -0.77370565466547  0.85378850145014
 6 -3.66861262056206  5.35788208640864  0.48622943804380
 6 -2.02500593689369  3.27374956625663 -0.01961103630363
 6 -0.52109624712471  6.74742861086109  0.75384047384738
 6 -4.31381991889189  5.77046545144514 -0.77932870857086
 1 -0.47766533143314  0.37712341794179 -0.25273582688269
 1  3.03579759435944 -1.26342834493449 -1.04418392699270
 1  2.52136338723872 -2.99109381628163 -2.45483791849185
 1  1.24187096639664 -4.01387330493049 -2.86549891639164
 1 -5.68195000120012 -2.07716610571057  2.42783494399440
 1  4.90903121332133  0.03324804130413 -1.21980513351335
 1  5.86995896149615  1.52175648494849 -0.63348464806481
 1 -2.79456755245525  0.04865936213621 -0.47869077467747
 1  0.42143847554755  1.84397558055806 -0.81396086818682
 1 -1.51240683188319 -4.64305640984098 -0.60428123382338
 1 -2.58952258195820 -3.74636233823382 -1.85901522172217
 1 -0.97383733483348 -4.66430460486049 -2.31953555655566
 1 -2.39776353415342 -3.62719886828683  0.33659090609061
 1  1.28705451215121 -5.08929141164116 -0.41045476297630
 1  2.48784797059706 -5.44210691919192 -1.59825433933393
 1  4.77005142614262 -0.99390544164416  1.11198178437844
 1  5.07002120172017  0.51697613421342  1.78769324002400
 1  4.26593411371137  4.70721118851885  0.03817383468347
 1  5.74356097889789  3.37052977217722  0.37857438063806
 1  4.32792220962096  3.93152866096610  1.64309561346135
 1  1.65081091309131  5.19964989458946  0.58161794869487
 1 -7.78022079367937 -2.67009300380038  1.16445113911391
 1 -7.06984262856286 -4.13217098299830  1.77203957185719
 1 -7.14240242424242 -3.59289705320532  0.17552914211421
 1 -6.82157949964996 -0.43930426172617  0.28568049594960
 1 -4.62109695149515  1.43007720462046 -0.88217206530653
 1 -6.22213404310431  1.12959058735874 -1.51178785728573
 1 -4.76352484798480 -0.01628478227823 -2.22594380708071
 1 -3.51488136743674  6.05278793459346  1.35934363836384
 1 -4.33969164666467  4.52929206140614  0.92639477727773
 1 -0.07697313201320  6.81681364126413  1.77868060056006
 1 -1.31385276857686  7.54512120762076  0.66763602000200
 1  0.15456464406441  7.02319081958196 -0.17544120992099
 1 -3.56179647544755  6.49844572767277 -1.04107192329233
 1 -5.16652847594759  6.39374211521152 -0.59909505120512
 1 -4.51351587268727  5.13443493579358 -1.74899463786379
 1  3.95755106160616 -4.50676490669067  1.56186482348235
 1  7.72173941864186 -2.32693334563456  1.36982714531453

