%nproc=4
%Mem=4GB
# td=(NStates=1) B3LYP/SVP 

TD

0 1
 8 -4.58883900470047 -4.85038511971197  1.67209257285729
 8  2.65024562266227 -5.07405195439544  1.19535746754675
 8  7.01719210061006 -1.45823336443644  1.92913313381338
 8  3.59921165396540 -3.24296342154215  0.28484134253425
 8  7.66829558155816 -0.44897627692769 -0.05674524382438
 8 -3.04535486428643  2.48543594109411 -0.18845374997500
 7 -0.29334371607161 -0.53722307210721 -0.55669430563056
 7  1.62222990569057  1.77391977077708 -0.36933859595960
 7 -3.32962990599060 -3.14436348314832  0.60432890419042
 7 -0.67213861676168  2.93856427462746 -0.16646167006701
 6  0.67136836923692 -2.49012445074507 -1.34467655075508
 6  0.96479541334133 -1.11954190529053 -0.87086964226423
 6 -0.70662498759876 -2.69874376377638 -1.29439963936394
 6 -1.30197230343034 -1.48192183408341 -0.65997746364636
 6  3.79204714601460  1.49154363966397 -0.43389960636064
 6  2.55598629162916  0.76864819661966 -0.56569812841284
 6  2.23863086738674 -0.48245439123912 -0.84905715071507
 6  3.61233507040704  2.80249825802580 -0.00755152805281
 6  1.64967612011201 -3.39799506530653 -1.87370757175718
 6 -5.55901523672367 -2.60016192579258  1.43757369736974
 6 -3.51685374827483 -1.81690675267527  0.21376516151615
 6  2.17781204140414  3.00050647884788 -0.01847932493249
 6 -4.98070426672667 -1.52940844404440  0.52630126902690
 6  5.10668914701470  0.76501617161716 -0.43793685008501
 6 -2.65309627182718 -1.03294006560656 -0.42746316071607
 6 -1.49441737943794 -3.74452895519552 -1.84322756645665
 6 -4.38593606040604 -3.67054556025603  1.30101921652165
 6  1.92554303030303 -4.46379859955996 -0.97072992879288
 6  5.37270714701470 -0.21737780168017  0.76723482958296
 6  4.71623740994099  3.84789602090209  0.21485366916692
 6  1.40501174257426  4.13859826732673  0.16184630413041
 6 -7.01993312391239 -3.08557593739374  1.13790325642564
 6 -5.69738834133413 -0.57005173507351 -0.11612308670867
 6 -0.06720170917092  4.03366803840384  0.08131675727573
 6 -0.98807976967697  5.18794988798880  0.31909653825383
 6 -2.19896522272227  4.68050417321732  0.31902330523052
 6  2.84413725502550 -4.15502212131213  0.21778317731773
 6 -5.35156981778178  0.38933416201620 -1.28581964896490
 6  6.81912447864786 -0.69813809790979  0.78005112771277
 6 -3.61946770607061  5.20831712991299  0.59263007810781
 6 -2.10746418271827  3.24388657995800 -0.08496757195720
 6 -0.61574571207121  6.56155002300230  0.73819890969097
 6 -4.29715825272527  5.69102750765077 -0.72850362606261
 1 -0.57043460836084  0.22166787238724  0.19136858355836
 1  3.00552456705671 -1.28516051815182 -1.05902541114111
 1  2.68217946884688 -3.11270597749775 -2.00940337503750
 1  1.43276005530553 -3.95234715231523 -2.94628699519952
 1 -5.32045385158516 -2.01350974007401  2.36713887438744
 1  5.06082639283928  0.15858057455746 -1.39124227722772
 1  5.82626459205921  1.50217452675268 -0.58742004160416
 1 -2.78358645434543  0.12685718191819 -0.43572647824783
 1  0.57922425412541  1.84501568456846 -0.46745621772177
 1 -1.78415400660066 -4.60170227442744 -1.03494430013001
 1 -2.62289591929193 -3.27378508050805 -1.99277859805981
 1 -1.13405335643564 -4.33085125952595 -2.81514511751175
 1 -2.36683044084408 -3.53777992639264  0.49570681768177
 1  1.10179598629863 -5.07626010851085 -0.56460017751775
 1  2.53562274807481 -5.39103181168117 -1.38812332623262
 1  4.67154157515752 -0.85773182428243  1.02450303650365
 1  5.22008620822082  0.35128956555656  1.66865133583358
 1  4.45031255155516  4.76230669806981 -0.35046502920292
 1  5.55609223202320  3.46509922912291 -0.22877635443544
 1  4.75772518991899  4.06510201830183  1.21110241414141
 1  1.95626145814582  5.08207813741374  0.53134292119212
 1 -7.62900567216722 -2.29897589208921  1.46257095109511
 1 -7.23314895919592 -3.89701746764676  1.81577394529453
 1 -6.97788597259726 -3.17563532703270 -0.06053446424642
 1 -6.77865520722072 -0.50960129142914  0.28753068096810
 1 -4.84569941174117  1.49042323922392 -0.85923977207721
 1 -6.45172700240024  0.48531615991599 -1.93087976647665
 1 -4.49886838233823  0.05649249544955 -2.03484469716972
 1 -3.56737661696170  6.16550920672067  1.32075977997800
 1 -4.17208488598860  4.43045217741774  1.16292843064307
 1  0.04524909020902  6.77461942184218  1.59883261576158
 1 -1.47058844214421  7.22284898039804  1.02250150655065
 1 -0.06563737613761  7.21422992349235  0.02226856105611
 1 -3.79612990879088  6.67546342944294 -0.95675349144915
 1 -5.32624444754476  6.06414915591559 -0.51088623032303
 1 -4.36586110721072  4.83201469376938 -1.45080481888189
 1  3.46423172967297 -5.09061329152915  1.79933857085709
 1  7.85898314301430 -1.88472912521252  1.88226838943894

