%nproc=4
%Mem=4GB
# td=(NStates=1) B3LYP/SVP 

TD

0 1
 8 -4.34287440824082 -4.67462754395440  1.96027139073907
 8  2.96805740384038 -4.87558210741074  1.21613954575458
 8  6.89170955235524 -1.56873441454145  1.93672389288929
 8  3.69030076287629 -3.01582070727073  0.03987684608461
 8  7.45419417141714 -0.96833821312131 -0.17374694399440
 8 -2.93241357015702  2.31455885338534 -0.29524442904290
 7 -0.24500888258826 -0.57690704050405 -0.58673730993099
 7  1.46843452615262  1.88641101990199 -0.27479914201420
 7 -3.43107005000500 -3.11753079987999  0.62311078237824
 7 -0.75510691359136  2.96217663586359 -0.12490751465147
 6  0.74541577397740 -2.44484992329233 -1.37656974007401
 6  0.92191112491249 -1.08475842694269 -0.91886444174417
 6 -0.63980830593059 -2.80039392879288 -1.19238943834383
 6 -1.24020612681268 -1.51704534643464 -0.78656012191219
 6  3.78840678197820  1.49064354965497 -0.23640985738574
 6  2.46290698369837  0.82204353615362 -0.54900645924592
 6  2.15157216151615 -0.42251839763976 -0.90569281428143
 6  3.57551138803880  2.75844385258526  0.04868409550955
 6  1.68321947444744 -3.46151141694169 -1.93955415641564
 6 -5.44735407060706 -2.47848975857586  1.47773771377138
 6 -3.66201826472647 -1.74044910691069  0.04404818981898
 6  2.12637689788979  2.97844427262726  0.07923044604460
 6 -5.04182037833783 -1.48598410161016  0.32831147004700
 6  5.04439291739174  0.67638730873087 -0.39013206960696
 6 -2.60724168636864 -1.06280305190519 -0.58013842824282
 6 -1.48430636833683 -3.77571207350735 -1.86747999169917
 6 -4.41571903870387 -3.58521702740274  1.43105221982198
 6  2.07135761176118 -4.58830104980498 -0.99340219601960
 6  5.46994687098710 -0.13057912181218  0.89036714281428
 6  4.55124091029103  3.94531576287629  0.33571575537554
 6  1.38288953035304  4.06273068056806  0.31483160266027
 6 -6.88037916851685 -3.03647102690269  1.40350981708171
 6 -5.76056465896590 -0.47952268216822 -0.18576005040504
 6 -0.10054504350435  4.02970764236424  0.24315294089409
 6 -0.98250921262126  5.16503759675968  0.48838346694669
 6 -2.29314464066407  4.69521564436444  0.35958736163616
 6  3.01556439773977 -4.07581420052005  0.09057045604560
 6 -5.35594025482548  0.35192042064206 -1.38655972297230
 6  6.69753231943194 -0.92703098719872  0.78630175277528
 6 -3.62863862316232  5.30885718391839  0.38674949004900
 6 -2.13463689999000  3.29420161146115 -0.06316539173917
 6 -0.57104124162416  6.50825469346935  0.84729981978198
 6 -4.37313585048505  5.69798820372037 -0.89574034973497
 1 -0.38932649754975  0.35413111871187 -0.42158271157116
 1  3.01790580518052 -1.15069707180718 -1.19873938253825
 1  2.56219747064706 -3.22675738263826 -2.46624905960596
 1  1.18180495979598 -3.90713263086309 -2.77476984348435
 1 -5.47487929412941 -1.97860624972497  2.33030519101910
 1  4.82431274147415 -0.04827011051105 -1.20350350335034
 1  5.82122408800880  1.32221653095310 -0.57147844744474
 1 -2.82047014271427  0.04132862906291 -0.88634153975398
 1  0.41084741644164  1.81679286228623 -0.41477094919492
 1 -1.33555914711471 -4.80705280948095 -1.38342914861486
 1 -2.69710334003400 -3.57866556855686 -1.88608792899290
 1 -0.98197814891489 -3.96938511291129 -2.86044964796480
 1 -2.48939269706971 -3.48692484088409  0.61305855285529
 1  1.15522132883288 -5.12211469396940 -0.59345306280628
 1  2.75601478727873 -5.19353206170617 -1.73896841074107
 1  4.56833125412541 -1.00288633973397  1.35069565576558
 1  5.32574677427743  0.49398383498350  1.61007547824782
 1  3.99122664296430  4.96964743214321 -0.19663964666467
 1  5.49982660546055  3.73340605980598 -0.17536101290129
 1  4.66356577397740  3.90450595869587  1.34209551345135
 1  1.76142197419742  5.05543547314732  0.60668045494549
 1 -7.56796956855686 -2.16198219271927  1.56484117811781
 1 -7.11820746504650 -3.82154992089209  2.17729009690969
 1 -7.06312449644965 -3.54823258675868  0.41729331853185
 1 -6.80914825652565 -0.31459179047905  0.19000092799280
 1 -4.80387522932293  1.28144234113411 -1.27661150925092
 1 -6.14854668436844  0.65553318161816 -2.09112579107911
 1 -4.65384387988799 -0.29159231303130 -2.24938615131513
 1 -3.50375025432543  5.96153880968097  1.15410311431143
 1 -4.20077775527553  4.36951608380838  0.94916705450545
 1 -0.28205364006401  6.61794375427543  2.03084581708171
 1 -1.40381176447645  7.33406010151015  0.83778303470347
 1  0.13594278187819  6.82802130263026 -0.07622128792879
 1 -3.80349064486449  6.54783066616662 -1.41430924702470
 1 -5.46357818091809  6.12951569256926 -0.84062920462046
 1 -4.47019154025403  4.80769226152615 -1.69080881928193
 1  3.53792909940994 -4.56600083028303  1.93336197319732
 1  7.69576682138214 -2.19649030133013  1.71764192679268

