%nproc=4
%Mem=4GB
# td=(NStates=1) B3LYP/SVP 

TD

0 1
 8 -4.48358847964797 -4.68641872307231  2.01569693329333
 8  2.91220181828183 -4.93500805000500  1.14968290009001
 8  7.05711609300930 -1.58209575067507  1.88951917241724
 8  3.72349408220822 -3.21561068626863 -0.03430057165717
 8  7.72747149914991 -0.30748212751275 -0.00486005530553
 8 -2.91857218601860  2.41585898339834 -0.12600750535053
 7 -0.39768415011501 -0.59961931173117 -0.57836647284728
 7  1.55604328702870  1.82619499829983 -0.31656331843184
 7 -3.52907985098510 -3.19759880668067  0.58954742604260
 7 -0.73651505440544  2.90664108230823 -0.05681070497050
 6  0.64949618201820 -2.43343878217822 -1.38441052415242
 6  0.90169910371037 -1.08315826692669 -0.85759831513151
 6 -0.74455878097810 -2.72818670807081 -1.23987418681868
 6 -1.33230533673367 -1.51433507540754 -0.67193865976598
 6  3.80405834713471  1.50203468876888 -0.32095831223122
 6  2.50114080708071  0.84769610141014 -0.52694425302530
 6  2.21408841314131 -0.46368251405141 -0.85110735573557
 6  3.58826266316632  2.77561556975698 -0.03070384328433
 6  1.58970012251225 -3.46531179697970 -1.89253945494549
 6 -5.57915725092509 -2.55506741634163  1.33241318131813
 6 -3.64583664656466 -1.90096515851585  0.10613439843984
 6  2.14257851805181  3.01774820302030  0.08276079907991
 6 -5.16783297959796 -1.58343384658466  0.40272891179118
 6  5.18723720182018  0.81547121712171 -0.41159421582158
 6 -2.67271823402340 -1.11120789238924 -0.40182059645965
 6 -1.50358829652965 -3.93241774407441 -1.77910115381538
 6 -4.50256772357236 -3.68472697839784  1.34964407900790
 6  1.90780125612561 -4.59392161186119 -0.90348320412041
 6  5.39708958525853 -0.23889995389539  0.76211431753175
 6  4.58492427862786  3.82733396469647  0.35888807260726
 6  1.34148538993899  4.09282368986899  0.24170428992899
 6 -6.95291642224222 -3.19737711751175  1.05229469556956
 6 -5.87316591909191 -0.60528525842584 -0.23154462886289
 6 -0.05520050905090  4.04863953555355  0.18816744234423
 6 -0.96846780848085  5.29917101010101  0.37205183378338
 6 -2.18070339653965  4.75140126292629  0.29544094699470
 6  2.88248108940894 -4.11422804190419  0.05260665966597
 6 -5.32354701550155  0.40906613521352 -1.23147421442144
 6  6.81259382558256 -0.70883916801680  0.78221134373437
 6 -3.58662442174217  5.33686998519852  0.49763057815782
 6 -2.04659809610961  3.24595678697870  0.03639456425643
 6 -0.46166030353035  6.63777764576458  0.64040913071307
 6 -4.08403694059406  5.70087849274928 -0.88145892159216
 1 -0.52023958885889  0.11426713231323  0.23482292899290
 1  3.04537855245525 -1.09423142524252 -1.12768227682768
 1  2.45081633253325 -2.90706541344134 -2.37588002270227
 1  1.14040081938194 -3.96766868446845 -2.72716508300830
 1 -5.54448625482548 -2.12600098919892  2.42964512501250
 1  5.25473578377838  0.16422113861386 -1.22548570157016
 1  6.05013697929793  1.46096040534053 -0.42513381298130
 1 -2.99619771547155  0.04997949414942 -0.43799670527053
 1  0.55931226292629  1.82161334433443 -0.46856632873287
 1 -1.51447703890389 -4.74482658685869 -1.16459726542654
 1 -2.71606523622362 -3.69103680568057 -1.92288160836084
 1 -1.13390334143414 -4.53473164756476 -2.75366896989699
 1 -2.66663042084208 -3.66115226362636  0.50506775377538
 1  0.83692949964996 -4.94674715721572 -0.49953367086709
 1  2.41494067986799 -5.33898660716072 -1.48593310721072
 1  4.62141656265627 -1.18439449054905  0.87159774597460
 1  5.03673787338734  0.27377181378138  1.65022949364937
 1  4.67238475877588  4.62709317671767 -0.39195917861786
 1  5.63741036383638  3.30113283248325  0.28188471167117
 1  4.35226464386439  4.34884039213921  1.29445074897490
 1  1.89422525452545  5.16288621822182  0.40429021592159
 1 -7.70219299089909 -2.58201419591959  1.33293798779878
 1 -7.41775742004200 -4.19513727962796  1.53042541044104
 1 -6.88202638663866 -3.48310607410741 -0.12913132393239
 1 -6.87741508320832 -0.48416874817482  0.09633156105611
 1 -4.67990283208321  1.46676087298730 -0.70567441554155
 1 -6.05151698139814  0.90771840014001 -1.99982666116612
 1 -4.55801429692969 -0.05690884468447 -1.74058527122712
 1 -3.59646952625262  6.34994765056506  1.14429213321332
 1 -4.22339001650165  4.77973710591059  1.15680781858186
 1  0.40473503880388  6.73633559345935  1.41869460196020
 1 -1.18284966826683  7.35427212271227  0.86340559695970
 1  0.23190237783778  6.84610311081108 -0.30795446124613
 1 -3.66307660346035  6.32547843094309 -1.69253706980698
 1 -5.08467029012901  6.18715145614561 -0.78420356205621
 1 -4.25398992009201  4.68714020632063 -1.22257199559956
 1  3.66688199469947 -4.47112134233423  1.59613825082508
 1  7.95667291199120 -1.83943459575958  1.65778594119412

