%nproc=4
%Mem=4GB
# td=(NStates=1) B3LYP/SVP 

TD

0 1
 8 -4.54100422122212 -4.73224330553055  1.94315967956796
 8  2.77761835993599 -4.80287483668367  1.32304023582358
 8  7.18164854625463 -1.45668320942094  1.76750697119712
 8  3.63987572037204 -3.07011613681368  0.25212807120712
 8  7.62650140214021 -0.62331371067107 -0.26594616391639
 8 -3.05514584338434  2.50441783928393 -0.17085198979898
 7 -0.29492387408741 -0.54255360516052 -0.61893052925293
 7  1.54178186088609  1.78160053885389 -0.34900656275628
 7 -3.46002294529453 -3.06939598639864  0.73871234253425
 7 -0.80636203910391  2.83205362356236 -0.09185420932093
 6  0.67539877227723 -2.50102554085409 -1.39487157025703
 6  1.02815174897490 -1.10912086318632 -0.98009056435644
 6 -0.72225655075508 -2.60052394179418 -1.37017721712171
 6 -1.26117822402240 -1.45374901680168 -0.75621708760876
 6  3.81802974427443  1.39886437173717 -0.32031824822482
 6  2.50686137913791  0.78356968876888 -0.58271983058306
 6  2.21561856615662 -0.48618476427643 -0.96520876587659
 6  3.62601643854385  2.70886889508951 -0.03733450635064
 6  1.62039319181918 -3.51136640244024 -1.86636683768377
 6 -5.66827616281628 -2.59747165676568  1.41287122712271
 6 -3.64967703060306 -1.82919798179818  0.16998078307831
 6  2.18285254545455  2.94523095129513  0.07612013501350
 6 -5.06381257755776 -1.52701820502050  0.50560919981998
 6  5.09880835893589  0.65184485448545 -0.39883293969397
 6 -2.68034899709971 -1.02537930953095 -0.48552896729673
 6 -1.44491242894289 -3.74623912621262 -1.82591583528353
 6 -4.46946441324132 -3.67773627932793  1.45565468006801
 6  2.06831730773077 -4.50179239893989 -0.90731358715872
 6  5.46454633093309 -0.12035809970997  0.76295440154015
 6  4.57021280748075  3.74740597189719  0.26584876867687
 6  1.32409365076508  4.05077948544854  0.38680880038004
 6 -6.98151928252825 -3.20503788358836  0.86292575867587
 6 -5.77584618711871 -0.56548127802780 -0.19739121352135
 6 -0.04363935293529  3.94279895149515  0.29266789238924
 6 -0.95051601330133  5.15418651165117  0.60672530113011
 6 -2.22017734393439  4.79503562636264  0.30014141704170
 6  2.96844968626863 -4.03365998509851  0.27654905390539
 6 -5.41378603940394  0.37323255185519 -1.24567563456346
 6  6.86106867306731 -0.72052033613361  0.62970609320932
 6 -3.62007776707671  5.37466376457646  0.36936775187519
 6 -2.14184762106211  3.25407759905991  0.02519344414441
 6 -0.57857199469947  6.56454032203220  0.98136322612261
 6 -4.09507804470447  5.63852225712571 -1.09951072677268
 1 -0.38995656055606  0.28100380598060 -0.08116867016702
 1  3.19256327092709 -1.10774277637764 -1.00835034363436
 1  2.58151940284028 -2.98503321022102 -2.28417085178518
 1  1.04809158845885 -4.13869578717872 -2.65947831433143
 1 -5.80741254745475 -2.13691208030803  2.45634779527953
 1  5.14589489968997 -0.07593287678768 -1.31668482148215
 1  5.88253021862186  1.41834614391439 -0.42319361896190
 1 -2.89925802150215 -0.10386589038904 -0.64271717731773
 1  0.53331966366637  1.93395457845785 -0.56789626172617
 1 -1.21753734493449 -4.68372047624762 -1.06610741644164
 1 -2.62264589428943 -3.78082578457846 -1.72693201340134
 1 -0.98498844994499 -3.93838201260126 -2.92220582358236
 1 -2.50451420922092 -3.33793994239424  0.71895914291429
 1  1.34894070077008 -5.11097357985799 -0.60416413391339
 1  2.69750893669367 -5.09455216371637 -1.66069058295830
 1  4.66035045604561 -0.89328537963796  0.80318090429043
 1  5.27746194579458  0.45863029962996  1.67676214691469
 1  4.24235175547555  4.62141260866087 -0.34668465116512
 1  5.75282190499050  3.24752747194719  0.17131365456546
 1  4.39920933833383  4.10341584968497  1.36551785568557
 1  1.77007283928393  4.96043597319732  0.93356314321432
 1 -7.92299507110711 -2.60175617011701  1.09535422942294
 1 -7.27198284258426 -4.05612337823782  1.53869623752375
 1 -7.02420060406041 -3.35745350885089 -0.34272268306831
 1 -6.86989433113311 -0.62776310761076  0.12470439833983
 1 -4.75285012681268  1.20187438433843 -1.05084893299330
 1 -6.35783761346135  0.85630325862586 -1.45554223272327
 1 -5.09514801030103 -0.10378353215322 -2.37110832353235
 1 -3.60667054635464  6.28384103990399  0.94240194419442
 1 -4.27270494799480  4.71013014521452  0.96827896569657
 1  0.02962752805281  6.55533749364937  1.96007874037404
 1 -1.49650103340334  7.12186888238824  1.12040129652965
 1  0.05143433103310  7.02889138963896  0.21744807900790
 1 -3.33549384518452  6.49839572267227 -1.39339715581558
 1 -5.27047887098710  5.88138087908791 -1.26326146784678
 1 -3.97495201630163  4.61246273857386 -1.68849858825883
 1  3.33705901240124 -4.61452568276828  2.11029966696670
 1  7.99442668736874 -1.75144579687969  1.57772793539354

