%nproc=4
%Mem=4GB
# td=(NStates=1) B3LYP/SVP 

TD

0 1
 8 -4.42117223802380 -4.72759284048405  1.92589795339534
 8  2.80517111521152 -4.84845939513951  1.15563349514952
 8  7.07495787718772 -1.48910645174517  1.92527274777478
 8  3.76524825762576 -3.26281540674067 -0.08204534613461
 8  7.50288904090409 -0.58690006930693 -0.15945551485149
 8 -3.05811614041404  2.57606500400040 -0.43083798839884
 7 -0.30625500720072 -0.49693904370437 -0.59773841004100
 7  1.59877756045605  1.84345672447245 -0.48883054515452
 7 -3.34026096909691 -3.06962600940094  0.80307877917792
 7 -0.76178758165817  2.83408382658266 -0.08520354425443
 6  0.68491972437244 -2.40574601290129 -1.39400148324832
 6  0.92918185198520 -1.07394734583458 -1.00547310261026
 6 -0.70373469856986 -2.66292018141814 -1.19088928832883
 6 -1.24021612781278 -1.40654429632963 -0.76346781268127
 6  3.80764870617062  1.45764024932493 -0.38771498789879
 6  2.49526021902190  0.84101543334333 -0.65114667326733
 6  2.20200720502050 -0.55299144494449 -0.99722196719672
 6  3.55526936383638  2.77348535673567  0.07358658575858
 6  1.64787594009401 -3.38258352415242 -1.93249345034503
 6 -5.66655599079908 -2.55205711531153  1.36938687868787
 6 -3.57681974487449 -1.81009607160716  0.31990577557756
 6  2.18152241244124  2.91155758395840  0.04170669366937
 6 -5.11367756405641 -1.46780228342834  0.42568120702070
 6  5.13661213931393  0.74043371337134 -0.37731078747875
 6 -2.65933689588959 -1.07924469606961 -0.45509592399240
 6 -1.51309924762476 -3.91660616291629 -1.67427067076708
 6 -4.48681614841484 -3.65211371707171  1.42710182478248
 6  1.93020349634963 -4.49745196489649 -0.89145200100010
 6  5.38219809610961 -0.08702476637664  0.86331443754375
 6  4.49230501670167  3.78305953725373  0.52315449924992
 6  1.39426066746675  4.06435084258426  0.33968408790879
 6 -6.92682381298130 -3.23167054685469  1.09421888798880
 6 -5.82181078357836 -0.60272500240024 -0.21742321672167
 6 -0.04201919091909  3.95165983758376  0.30951957755776
 6 -0.90480144184418  5.16256734973497  0.47451207980798
 6 -2.18468379457946  4.70489661246125  0.34605600850085
 6  2.98315115641564 -4.11053767286729  0.04981638063806
 6 -5.41967662846285  0.44318954755476 -1.21975304230423
 6  6.72180474667467 -0.83257154125413  0.83022614521452
 6 -3.52600836013601  5.39764606280628  0.39919073417342
 6 -2.11543497979798  3.24722691399140 -0.07220629582958
 6 -0.55893003050305  6.55572944094409  0.93620871067107
 6 -4.12616115301530  5.46606501140114 -1.03216399209921
 1 -0.74321188608861  0.57737344294430 -0.37962851615162
 1  2.91499551415142 -1.26401840394039 -1.25063457205721
 1  2.59624087498750 -3.19052375927593 -2.43765620032003
 1  0.97184396369637 -3.89620153775377 -2.93019538603860
 1 -5.43899570577058 -2.00518890799080  2.34784694519452
 1  5.42490280048005  0.16682139863986 -1.15525867886789
 1  6.01402336793679  1.31085539483948 -0.45780708030803
 1 -2.84325242094209  0.08928342454245 -0.72683558915892
 1  0.44844117581758  1.73361454445445 -0.65799527162716
 1 -1.57192278347835 -4.72170427462746 -0.72412321802180
 1 -2.37893152285229 -3.53107080908091 -1.98096741694169
 1 -0.71365131623162 -4.33252142654265 -2.41419502250225
 1 -2.31580533833383 -3.28938508690869  1.00537778477848
 1  1.17529333603360 -4.81899438193819 -0.41822554005401
 1  2.17284647044704 -5.37767047554755 -1.40828534243424
 1  4.67582200320032 -1.05610166126613  1.12616320252025
 1  5.37434163376338  0.59854429102910  1.76575104580458
 1  4.01311883218322  4.73988445584559 -0.03955393809381
 1  5.71272789558956  3.67645036423642  0.41430795399540
 1  4.23207262466247  4.14893040114011  1.43134443834383
 1  1.92948878087809  5.00659058865887  0.61919170607061
 1 -7.84272704430443 -2.54274026852685  1.40114480848085
 1 -7.20887653195320 -4.22921068696870  1.59427179507951
 1 -7.06167435143514 -3.75557332083208 -0.00295870667067
 1 -7.03792113381338 -0.86334666596660  0.05351727962796
 1 -5.09263410521052  1.54122831973197 -0.78595244334433
 1 -6.17087891759176  0.88853648194820 -1.90487716621662
 1 -4.51553004850485  0.10428727492749 -2.02108332103210
 1 -3.18447832713271  6.29065172097210  0.99246695069507
 1 -4.13451112861286  4.72872200440044  0.86920905870587
 1 -0.08851428612861  6.54088604850485  1.84858759125913
 1 -1.35216659996000  7.19884658015802  1.26712596899690
 1 -0.07784859725973  7.09704820532053 -0.03495716151615
 1 -3.67929822562256  6.14279016211621 -1.68565638173817
 1 -5.17001882498250  5.72281502250225 -0.88251339303930
 1 -4.04716923802380  4.31739323162316 -1.31106084448445
 1  3.45117042354235 -4.46126035623562  1.84827346434643
 1  8.06190343504350 -1.63773442574257  1.69438960156016

