%nproc=4
%Mem=4GB
# td=(NStates=1) B3LYP/SVP 

TD

0 1
 8 -4.45545566636664 -4.68005808700870  1.78070343394339
 8  2.96553715181518 -4.85987053625362  1.41991992379238
 8  7.11756213761376 -1.67224476557656  1.88598881938194
 8  3.89450118291829 -3.17102622782278  0.22103496189619
 8  7.51206995899590 -0.79238061736174 -0.23270283958396
 8 -3.02469279807981  2.36707410491049 -0.06177108170817
 7 -0.38536291799180 -0.47568691849185 -0.75074371057106
 7  1.54602228492849  1.80485286408641 -0.48139980208021
 7 -3.43621056405641 -3.07242628942894  0.67015548684868
 7 -0.82369377227723  2.80420083828383 -0.07703272717272
 6  0.59645087748775 -2.34581001930193 -1.40431251435144
 6  0.87972690649065 -1.02471242234223 -1.00840339563956
 6 -0.70025435053505 -2.64472836223622 -1.25370556995700
 6 -1.34944705090509 -1.40217385928593 -0.82223368926893
 6  3.86133407470747  1.46961144644464 -0.33866008240824
 6  2.48071876487649  0.80861219301930 -0.69341089968997
 6  2.25066207050705 -0.47285343114311 -0.96969921492149
 6  3.56593042994299  2.78416642484248 -0.06753752665267
 6  1.66878803130313 -3.52211747754775 -1.81026122712271
 6 -5.62812214741474 -2.52718462806281  1.33584352435244
 6 -3.65516757965797 -1.77905296729673  0.08505229022902
 6  2.15396965716572  2.98387481568157 -0.06387386438644
 6 -5.12562875917592 -1.49402490569057  0.37452609150915
 6  5.15419389748975  0.69168883888389 -0.35696875327533
 6 -2.69384034623462 -1.04215098669867 -0.54338475287529
 6 -1.52770070777078 -3.76929143144314 -1.80808405210521
 6 -4.46319378617862 -3.57896640234023  1.34712382698270
 6  2.11344182018202 -4.46129834953495 -0.84867772357236
 6  5.47707758405841 -0.06123218711871  0.93187129322932
 6  4.56244203040304  3.84337556885689  0.31150333413341
 6  1.28499974137414  4.14832924042404  0.15412553205321
 6 -6.96509764036404 -3.23648102790279  1.15172463856386
 6 -5.79988859135914 -0.54099882978298 -0.32332380678068
 6 -0.08522351135114  3.98265293689369  0.02197082268227
 6 -0.95758672037204  5.17917901090109  0.44763939253925
 6 -2.30042536873687  4.70089621242124  0.44312571547155
 6  3.06212905420542 -4.04889150825082  0.28833023202320
 6 -5.43493815461546  0.39706493509351 -1.32449351635164
 6  6.83660622682268 -0.79635791989199  0.76322944554455
 6 -3.61375713501350  5.20448674687469  0.59960077517752
 6 -2.11170460676068  3.19349154045405  0.17681860666067
 6 -0.49602373987399  6.60990485848585  0.78060315011501
 6 -4.18253679057906  5.70849925482548 -0.74362513821382
 1 -0.56101366626663  0.51454716031603 -0.53688424172417
 1  2.93076709130913 -1.30727272937294 -1.03668317691769
 1  2.51151240214021 -2.91718642554256 -2.22397483218322
 1  1.43511029032903 -4.00453237083708 -2.63212557905791
 1 -5.53444525072507 -2.11492988208821  2.54500666116612
 1  5.13938424862486 -0.31679696319632 -1.09574272727273
 1  6.06291825742574  1.30895520482048 -0.50249154875488
 1 -2.55131322702270  0.09824432063206 -0.72407531313131
 1  0.68151448314831  1.69864104710471 -0.45991546364636
 1 -1.58449404060406 -4.39726183038304 -0.86314712041204
 1 -2.60143377307731 -3.69635733773377 -1.95126444664466
 1 -1.07161711281128 -4.35539371377138 -2.71611521452145
 1 -2.65936969476948 -3.67176332473247  0.58489573657366
 1  1.38483429012901 -4.88896137863786 -0.14820853835384
 1  2.48131731753175 -5.41408411691169 -1.42190670457046
 1  4.66398081908191 -0.78807485858586  1.22703328952895
 1  5.28203240284028  0.64995943254325  1.79071354205421
 1  4.31559908020802  4.74045451285128 -0.07138712141214
 1  5.71728835163516  3.51511423062306 -0.19148262506251
 1  4.48199761716172  3.86146165426543  1.38879018291829
 1  1.50322615461546  5.18907883748375  0.34039382628263
 1 -7.78882165376538 -2.42775877037704  1.31476617061706
 1 -7.31361700600060 -3.82112987888789  1.93671603950395
 1 -7.11538972297230 -3.80230799429943  0.15009659885989
 1 -6.84546188788879 -0.66211654295430 -0.01383945604560
 1 -5.04222906470647  1.28033223012301 -1.03642749084908
 1 -6.19519134883488  0.55144277257726 -1.96139281778178
 1 -4.67659615511551  0.17422426862686 -2.04311552425243
 1 -3.69553943324332  5.99132178797880  1.58466617061706
 1 -4.15073275077508  4.42563169536954  1.20000213801380
 1  0.23245781108111  6.60897285718572  1.74670740324032
 1 -1.32984436773677  7.32040873637364  1.01009026542654
 1 -0.12692350475048  7.02021052155215 -0.06583024882488
 1 -3.34966526232623  6.56690257335734 -0.88980679677968
 1 -5.15783760686069  5.93082582358236 -0.68189333103310
 1 -3.79894441554155  4.89439093139314 -1.54327406580658
 1  3.49857516401640 -4.26290052025203  2.11787042404240
 1  7.77913515821582 -2.31060171247125  1.59211937453745

