%nproc=4
%Mem=4GB
# td=(NStates=1) B3LYP/SVP 

TD

0 1
 8 -4.62200232103210 -4.70011009220922  1.79081444504450
 8  2.76596719481948 -4.91373592279228  1.31474940674067
 8  7.21220160156016 -1.53786132723272  1.59552977347735
 8  3.80162189498950 -3.31465059025903  0.18439129752975
 8  7.58599735173517 -0.59506088538854 -0.25230479977998
 8 -3.01862219101910  2.42821021852185 -0.19349425402540
 7 -0.24263864556456 -0.51953130293029 -0.57573620982098
 7  1.57947563026303  1.75266764556456 -0.34216587868787
 7 -3.50904784778478 -3.21937098389839  0.54237270857086
 7 -0.71499290219022  2.97338775697570 -0.09690471437144
 6  0.72512374477448 -2.45630106840684 -1.36860894399440
 6  0.96975590939094 -1.10468041914191 -0.90289284458446
 6 -0.74533885898590 -2.69800368976898 -1.27162736213621
 6 -1.21959406560656 -1.39785342724272 -0.71094256015602
 6  3.80102804410441  1.44325881118112 -0.25456167256726
 6  2.53725441844184  0.79267059885989 -0.45427698629863
 6  2.28983598789879 -0.51954810061006 -0.74310655565557
 6  3.57449128602860  2.78760676887689  0.02249147624762
 6  1.70580173267327 -3.50462572837284 -1.91228142914291
 6 -5.53637297249725 -2.47319922952295  1.43611355135514
 6 -3.60214227712771 -1.92886794879488  0.12971675667567
 6  2.11009526972697  2.96955338353835 -0.04839231623162
 6 -5.04714091039104 -1.61407691089109  0.38568720762076
 6  5.05680415851585  0.80474014401440 -0.33192624902490
 6 -2.67533849604960 -1.05510228182818 -0.45241565596560
 6 -1.46146408410841 -3.91015551785179 -1.80087333103310
 6 -4.50379784658466 -3.62330083578358  1.24527364196420
 6  2.04179465546555 -4.52646486618662 -0.87964081988199
 6  5.53570344664466 -0.10305636953695  0.80926903300330
 6  4.41985777197720  3.82438366966697  0.51562374617462
 6  1.32969421082108  4.11640604810481  0.30873099259926
 6 -6.98690982158216 -2.97096447624762  1.23279274537454
 6 -5.80339894239424 -0.66438116801680 -0.19840131453145
 6 -0.07000198919892  4.07883255485549  0.17082570817082
 6 -1.01961292299230  5.28735982898290  0.45780040864086
 6 -2.27701302750275  4.67677380018002  0.31038244114411
 6  2.91899474077408 -4.10379699879988  0.23845524452445
 6 -5.43088774957496  0.33357858645865 -1.25039610661066
 6  6.77884045024503 -0.75404368846885  0.63505662826283
 6 -3.54078983828383  5.32245854405441  0.46228704380438
 6 -2.14491792809281  3.19841203250325 -0.10937001220122
 6 -0.53881801930193  6.59160302830283  0.84158924872487
 6 -4.15946448334833  5.70755916081608 -0.92206298199820
 1 -0.30507807270727  0.31550725632563 -0.13798435173517
 1  2.94482849744974 -1.28476047814782 -0.84260376897690
 1  2.68965021592159 -3.14130883778378 -2.39921235593559
 1  1.04474125342534 -3.78928084568457 -2.67316968346835
 1 -5.37030883708371 -1.85845423452345  2.49784194469447
 1  5.31276158635864  0.24878959545955 -1.29318247124712
 1  5.87919988558856  1.55880018931893 -0.23417471707171
 1 -2.91434953065306 -0.01865736953695 -0.38717162276228
 1  0.54867119881988  1.84189537253725 -0.56263573567357
 1 -1.40470606180618 -4.87881998619862 -1.22651345704570
 1 -2.48792242194219 -3.64787248924893 -2.17882720292029
 1 -0.75864581568157 -4.30793896829683 -2.66876047904790
 1 -2.63283704150415 -3.65295144354435  0.58203545054505
 1  0.89083489018902 -4.77556003850385 -0.43612733023302
 1  2.50703988978898 -5.46969967846785 -1.45194970887089
 1  4.68067248824882 -0.75373142424242  1.00871145734573
 1  5.47636183578358  0.58361279787979  1.74172864356436
 1  4.22617013731373  4.84999546694669 -0.20553053575358
 1  5.49465608840884  3.86001872107211  0.38783530673067
 1  4.27691710911091  4.20889639773977  1.47888919281928
 1  1.78805463746375  4.97871780138014  0.57119690659066
 1 -7.64767753935394 -2.19265526002600  1.47510220422042
 1 -7.13236888118812 -3.91300906680668  2.05233760166017
 1 -7.38733691769177 -3.16846460996100  0.05991758095810
 1 -6.87136447814781 -0.38995932723272  0.16083801170117
 1 -5.03460830263026  1.32471666856686 -0.83052690079008
 1 -6.30271210091009  0.68923655195520 -1.95038171667167
 1 -4.62475097059706  0.01224807100710 -1.93795500820082
 1 -3.48305818511851  6.33766642244224  0.83277098109811
 1 -4.31905958345835  4.82225135733573  0.99207134493449
 1 -0.14488992369237  6.74043600350035  1.88361109360936
 1 -1.35898728202820  7.47152384788479  0.80721997839784
 1  0.18037722532253  6.94365286578658  0.19612594679468
 1 -3.60897119291929  6.58715459855986 -1.31610942704270
 1 -5.27964978807881  5.97796053705371 -0.93803894559456
 1 -4.05066958805881  4.73583507580758 -1.72108184658466
 1  3.37958326482648 -4.47705193539354  2.08410704770477
 1  8.02266951165116 -2.11087173947395  1.24642480508051

