%nproc=4
%Mem=4GB
# td=(NStates=1) B3LYP/SVP 

TD

0 1
 8 -4.51612173297330 -4.86271635283528  1.71584694829483
 8  2.96190678877888 -4.77965251445144  1.23314124592459
 8  7.16421680308031 -1.50775831693169  1.86235645614561
 8  3.70078181098110 -2.95096422162216 -0.03642078367837
 8  7.96207495949595 -0.39959133843384 -0.00307987728773
 8 -3.02651298009801  2.49883728122812 -0.16123102770277
 7 -0.35768014971497 -0.61770111991199 -0.41980061626163
 7  1.49790747344734  1.77400977977798 -0.25488715081508
 7 -3.36397334033403 -3.09920896769677  0.63695216651665
 7 -0.76288769166917  2.93202362056206 -0.14574959885989
 6  0.49274050645064 -2.41829726802680 -1.37917000010001
 6  0.87170610441044 -1.14420437153715 -0.86958951425143
 6 -0.83635796089609 -2.65915980538054 -1.20048024742474
 6 -1.37891999819982 -1.46109975187519 -0.63757522342234
 6  3.78938687998800  1.37420190549055 -0.30828704510451
 6  2.42515320832083  0.73316464826483 -0.55922748134813
 6  2.11140814511451 -0.53014916071607 -0.80191243624362
 6  3.60076391329133  2.71390939913991  0.01639086618662
 6  1.54336548904890 -3.45406067186719 -2.00390059105911
 6 -5.57196653185319 -2.64781669126913  1.42037197719772
 6 -3.66940900380038 -1.79113417541754  0.15061884688469
 6  2.22417667786779  2.91700812901290 -0.01689916691669
 6 -5.13246944324432 -1.56120162336234  0.38420705960596
 6  5.02287076517652  0.58764843484348 -0.41401445784578
 6 -2.74053501570157 -0.97489426102610 -0.43583399779978
 6 -1.58538647634763 -3.80465496779678 -1.86636988068807
 6 -4.47381484828483 -3.69580808650865  1.30917003160316
 6  2.02052252825283 -4.53296551625162 -0.98531138693869
 6  5.57731760806081 -0.36230229412941  0.79498760486049
 6  4.54605039123912  3.72221345264526  0.48322050585059
 6  1.36553779517952  4.07566197369737  0.26405652515252
 6 -7.03719485008501 -3.13340071987199  1.32593205930593
 6 -5.90679928242824 -0.68934366426643 -0.32393386778678
 6  0.02767777877788  3.97920259185919  0.11869049464946
 6 -0.92566352805281  5.15340643364336  0.45819044764476
 6 -2.13872919911991  4.71772789558956  0.30479188208821
 6  2.95830867216722 -3.94593121222122  0.14868626762676
 6 -5.45134979577958  0.36766199479948 -1.17143821082108
 6  7.01414398059806 -0.69449773387339  0.82877600020002
 6 -3.57654341364136  5.36849314751475  0.39570038513851
 6 -2.11887532383238  3.21726391769177 -0.03334240944094
 6 -0.55680981848185  6.58962283028303  0.68774386418642
 6 -4.13376191309131  5.83193159805981 -1.05680645634563
 1 -0.39639720462046  0.43843954955496 -0.11039159245925
 1  3.10228424302430 -1.08250025212521 -1.30179968856886
 1  2.44338558945895 -3.11783649054906 -2.42145458015802
 1  1.03351013031303 -3.82365428302830 -2.85526789328933
 1 -5.10244205040504 -2.13766215531553  2.36801896239624
 1  4.94863517371737  0.01970668716872 -1.32026517951795
 1  5.93513547914791  1.19292360166017 -0.60889218881888
 1 -2.90883897959796 -0.01319682348235 -0.46191909750975
 1  0.34339067076708  1.89326050905091 -0.45276474857486
 1 -1.63170876207621 -4.62414451865186 -0.88256906260626
 1 -2.51796542624262 -3.69135683768377 -2.37598691889189
 1 -1.06064601570157 -4.30196837123712 -2.59082268526853
 1 -2.48395215301530 -3.65108125652565  0.52579982698270
 1  1.22561836853685 -5.02416489898990 -0.43029674717472
 1  2.43197238303830 -5.21679438793879 -1.40542505640564
 1  4.99286370737074 -1.30866691779178  0.83212379857986
 1  5.42401660126013  0.32080651725173  1.83915838653865
 1  4.59691721202120  4.62621308870887 -0.24745472817282
 1  5.48486510931093  3.35826854605461  0.57087361056106
 1  3.99999941734173  4.09507501560156  1.29776108000800
 1  1.81051688368837  4.94339426902690  0.50560034693469
 1 -7.55040781238124 -2.03219921442144  1.42545723972397
 1 -7.44964060836084 -3.84487225312531  2.08275064296430
 1 -7.17874605860586 -3.49911767526753  0.37829941914191
 1 -6.91094843654365 -0.77684801610161 -0.17816588868887
 1 -4.91479632143214  1.12442663956396 -0.49726357445745
 1 -6.23609543924392  0.91365899419942 -1.58903558205821
 1 -4.65379387488749  0.05930277647765 -1.91309252195220
 1 -3.50410028932893  6.25696835263526  1.16881458545855
 1 -4.15335301280128  4.64061319351935  0.93982612041204
 1 -0.03491892659266  6.97162912281228  1.70974370687069
 1 -1.38593997729773  7.21985868136814  0.84827408380838
 1  0.11412059965997  6.91826032653265 -0.08028169396940
 1 -3.58425872167217  6.52530841394139 -1.53772158825883
 1 -5.13476529962996  6.35381812281228 -0.69901504320432
 1 -4.33260778187819  5.00369186148615 -1.69352909130913
 1  3.54614992149215 -4.19603383358336  1.95700433743374
 1  8.17617486218622 -1.74846549884988  2.04457462006201

