%nproc=4
%Mem=4GB
# td=(NStates=1) B3LYP/SVP 

TD

0 1
 8 -4.56196631743174 -4.65228530973097  1.99053441704170
 8  2.76092669076908 -4.68679322852285  1.48722665446545
 8  7.08768915031503 -1.44630217131713  1.83972419291929
 8  3.81257299009901 -3.12150127532753  0.22407526592659
 8  7.53104185618562 -0.68929030833083 -0.19924949424942
 8 -3.02570289908991  2.47134453195320 -0.23138804340434
 7 -0.31774615631563 -0.55529487928793 -0.63208184438444
 7  1.55881356405641  1.75635801460146 -0.42232389448945
 7 -3.47537448044804 -3.07814686148615  0.63116158745875
 7 -0.72135353825383  2.91272169036904 -0.13574859875988
 6  0.71782301470147 -2.43930936923692 -1.35783786688669
 6  0.95377431123112 -1.08837878897890 -0.95585814111411
 6 -0.67934225932593 -2.61596548594859 -1.22566276567657
 6 -1.31412351855186 -1.46219986188619 -0.76397786368637
 6  3.75814375567557  1.42021650695070 -0.40522673907391
 6  2.51745243824382  0.85136646844684 -0.68540009860986
 6  2.21562856715672 -0.46090223602360 -0.96448869386939
 6  3.64485832273227  2.78648665686569 -0.09742051495150
 6  1.69309046154615 -3.46808207400740 -1.85772597359736
 6 -5.65430476567657 -2.54213612321232  1.29998993899390
 6 -3.64112617551755 -1.86707176917692  0.02036582158216
 6  2.20500476067607  2.93928035623562 -0.11761923892389
 6 -5.16087228352835 -1.56403190639064  0.24920355925593
 6  5.11379985808581  0.69750942094209 -0.43682673907391
 6 -2.72070303250325 -1.12149892149215 -0.60927134153415
 6 -1.38715665336534 -3.86819132143214 -1.75964920862086
 6 -4.49897736453645 -3.57461596729673  1.37875699029903
 6  2.08169864586459 -4.53563578327833 -0.75054791059106
 6  5.37781765806581 -0.14224028792879  0.78528663476348
 6  4.66999278547855  3.80448167946795  0.12792497629763
 6  1.43353459485949  4.04212862036204  0.05403552305231
 6 -7.00700183078308 -3.19360674047405  1.06877634373437
 6 -5.89100770327033 -0.64638936883688 -0.40354182858286
 6 -0.04072906190619  3.98556322792279  0.11442006760676
 6 -0.96588755045505  5.16117721072107  0.58581320992099
 6 -2.22631795799580  4.64699082188219  0.53150455335534
 6  2.99673251455145 -4.00283690279028  0.29954135313531
 6 -5.33581824262426  0.22945817441744 -1.35382644964496
 6  6.75963853005301 -0.81604988908891  0.72385550815081
 6 -3.66750250955096  5.34342064026403  0.73866468156816
 6 -2.10731416771677  3.20758294959496 -0.00051912711271
 6 -0.51606574407441  6.42126599459946  1.14441953175318
 6 -4.14555309220922  5.89346775167517 -0.64030480618062
 1 -0.68994655955596  0.43156886248625 -0.36772732603260
 1  3.03334734933493 -1.32818482058206 -1.22325183378338
 1  2.47767901880188 -2.91272597949795 -2.23719615431543
 1  1.26891367066707 -3.97833975157516 -2.78956132263226
 1 -5.61889369556956 -1.99897828692869  2.37274943544354
 1  4.88574888508851 -0.13900918441844 -1.17928108110811
 1  5.79014097969797  1.36726103540354 -0.84857615721572
 1 -3.13977207290729 -0.09940544434443 -0.86815972157216
 1  0.55759209090909  1.54611579457946 -0.63006247834783
 1 -1.40708629982998 -4.55769787398740 -1.07224803050305
 1 -2.49435306500650 -3.60216791879188 -1.96242556275627
 1 -0.95678562966297 -4.35598377277728 -2.76388999199920
 1 -2.50691444924492 -3.59495564396440  0.81701894889489
 1  1.22402820952095 -4.94621710421042 -0.08381209870987
 1  2.55503468926893 -5.59041174967497 -1.07407192109211
 1  4.59590401140114 -0.96637268836884  0.86967755395540
 1  5.33509770937094  0.28074251085108  1.84306877757776
 1  4.58962648294830  4.72282274967497 -0.61721170387039
 1  5.70234685748575  3.43423614281428  0.17827435063506
 1  4.50848026542654  4.38303381148115  1.10032133603360
 1  1.75639147114711  5.14637456705671  0.21893168006801
 1 -7.84061683328333 -2.41157715221522  1.02232692669267
 1 -7.10875651995200 -3.75421318721872  1.87995036293629
 1 -6.83017120112011 -3.76909467296730  0.12298388758876
 1 -6.98693603530353 -0.53863419471947 -0.31976004810481
 1 -4.98651349314931  1.10201439833983 -0.92050589868987
 1 -6.05033686338634  0.49722735103510 -2.30136681518152
 1 -4.55202369786979 -0.22301545534553 -1.99880109280928
 1 -3.66603648294829  6.09776243204320  1.56608431243124
 1 -4.28050572807281  4.56646577877788  1.05732787058706
 1  0.19822438773877  6.45153711361136  1.99692242474247
 1 -1.25027641094109  7.21704840034003  1.41756101250125
 1  0.07708689628963  7.03762226272627  0.51041737593759
 1 -3.55540583638364  6.57082296539654 -1.09236705280528
 1 -5.11063288638864  6.17078981998200 -0.43993913561356
 1 -4.32166668776878  4.98362985528553 -1.16170590899090
 1  3.59335464196420 -4.53785801600160  2.08429706670667
 1  7.98617586228623 -1.78064871717172  1.82873303590359

