%nproc=4
%Mem=4GB
# td=(NStates=1) B3LYP/SVP 

TD

0 1
 8 -4.61366148694870 -4.70037011821182  1.77931329492949
 8  2.88042864096410 -4.89231378057806  1.33093102490249
 8  6.99101948334834 -1.53887142824282  1.73814403490349
 8  3.75149688248825 -3.15149427462746  0.02700555895590
 8  7.79398815081508  0.00218883958396  0.19469990069007
 8 -2.90801112991299  2.52425982348235 -0.27382228682868
 7 -0.34174855655566 -0.69980933073307 -0.59216785298530
 7  1.51523920662066  1.78931130993099 -0.40704236633663
 7 -3.46312325532553 -3.16998604540454  0.66484495579558
 7 -0.69823122602260  2.91896231443144 -0.11919694359436
 6  0.56560779317932 -2.53457889618962 -1.36057814091409
 6  0.86967590139014 -1.22048199929993 -0.94722727802780
 6 -0.84497882298230 -2.74000789018902 -1.41090128952895
 6 -1.29204131033103 -1.55262890479048 -0.81670313621362
 6  3.74753269456946  1.34617910321032 -0.33739995639564
 6  2.49933062606261  0.73324465626563 -0.69928148674868
 6  2.21732873717372 -0.57250339613961 -0.86079832483248
 6  3.53660749764977  2.72333034123412  0.01873110021002
 6  1.72074322682268 -3.52023728952895 -1.94249445044504
 6 -5.56730606580658 -2.47478938853885  1.44338427842784
 6 -3.65885794869487 -1.88340340234023  0.16499028402840
 6  2.13944820502050  2.87853428162816 -0.04440191719172
 6 -4.99737593389339 -1.48995449864987  0.42111074997500
 6  5.08987746584658  0.61881155115512 -0.48527158355836
 6 -2.69164012621262 -1.21906867846785 -0.51557197159716
 6 -1.57927586528653 -3.93101760406041 -1.97929117281728
 6 -4.56654412121212 -3.59760826652665  1.36292540714071
 6  1.99017949394940 -4.51337355705571 -0.78382123792379
 6  5.42633250955095 -0.12331839573957  0.82429053515352
 6  4.52635842204220  3.76080731203120  0.24473665746575
 6  1.38613985538554  4.04524893239324  0.31919203870387
 6 -6.92405353595360 -3.06630401020102  1.24137360346035
 6 -5.80087869036904 -0.55688041794179 -0.26160763516352
 6 -0.01016600560056  4.05553022462246  0.18013663926393
 6 -0.89460042174217  5.21540263326333  0.40618524712471
 6 -2.18006333253325  4.79807593039304  0.35652705560556
 6  2.98499134043404 -4.10029664876488  0.18198959795980
 6 -5.37655231603160  0.35767099569957 -1.21989305630563
 6  6.84040660686069 -0.57337562166217  0.85549867246725
 6 -3.48699445874587  5.39898619681968  0.57419823492349
 6 -2.13712714901490  3.27762995429543 -0.06549562476248
 6 -0.40356449394939  6.54709857785779  0.92051714151415
 6 -4.33154169106911  5.75444384928493 -0.78283905960596
 1 -0.34585215011501  0.16014171977198  0.02562200890089
 1  2.85740975557556 -1.31616361846185 -1.08800830943094
 1  2.74485573647365 -2.93172787968797 -2.27482991769177
 1  1.23816059535954 -3.99818173577358 -2.66341870837084
 1 -5.54228603480348 -2.12246063516352  2.36520868136814
 1  4.95108541874187 -0.14121940544054 -1.14218737173717
 1  5.88577054265427  1.37517182648265 -0.84853615321532
 1 -3.14251234693469 -0.16015151895190 -0.64344725032503
 1  0.57706403810381  1.85429661266127 -0.48957842994299
 1 -1.67398298949895 -4.55604770897090 -1.15586639233923
 1 -2.60896452615261 -3.80944864686469 -2.16113543374337
 1 -0.96509646074607 -4.57917609200920 -2.71744534753475
 1 -2.55763952175218 -3.85796194459446  0.69885713271327
 1  0.97109291599160 -4.83363584608461 -0.39079279677968
 1  2.44190337613761 -5.53372608110811 -1.18813332723272
 1  4.79249367036704 -1.11259731083108  0.91745233143314
 1  5.37368156775678  0.33896833343334  1.67636210691069
 1  4.21485900620062  4.93473394079408  0.14638465576558
 1  5.65934255705571  3.49094181338134 -0.54809828662866
 1  4.82982239963996  3.72730823892389  1.27658896279628
 1  1.97317314931493  5.21283121272127  0.56746653355336
 1 -7.95021779337934 -2.81772776727673  1.73818851285128
 1 -6.93949959425943 -4.00388815471547  1.78939130703070
 1 -7.26923510751075 -3.23501126462646  0.14377596679668
 1 -6.84577191889189 -0.60864119541954  0.10880280818082
 1 -4.80125496729673  1.15378957585759 -0.89831367946795
 1 -6.17038886858686  0.66012364066407 -1.66730340884088
 1 -4.75693418891889  0.18404525072507 -2.03785499819982
 1 -3.42018189748975  6.32442509830983  1.02504020802080
 1 -3.99466714421442  4.56920605280528  1.08567070487049
 1  0.33885845114511  6.20822278217822  1.80778351085109
 1 -1.08812019531953  7.43301999749975  1.27383664006401
 1  0.28528771637164  6.84947344784478  0.01274760896090
 1 -4.08768906470647  7.09289517261726 -1.28477629372937
 1 -5.51406322942294  5.92853559455946 -0.59711485318532
 1 -4.13604812591259  4.90211170347035 -1.45847558595860
 1  3.47164247074707 -4.54360859105911  1.90332896989699
 1  8.18501574627463 -1.58530918321832  1.70886104870487

