%nproc=4
%Mem=4GB
# td=(NStates=1) B3LYP/SVP 

TD

0 1
 8 -4.61405152595260 -4.67789787098710  1.96653201680168
 8  3.00733133123312 -4.95567011621162  1.09718765056506
 8  7.07473785518552 -1.59308684978498  1.73312353285329
 8  3.66507824062406 -3.09972909810981  0.08572143054305
 8  7.58549730173017 -0.64488586788679 -0.17482705200520
 8 -3.02062239103910  2.47540493799380 -0.19061396599660
 7 -0.27568194989499 -0.62695204500450 -0.61353999019902
 7  1.53075075777578  1.86973935273527 -0.33899556165617
 7 -3.46693363636364 -3.21460050685069  0.67842631393139
 7 -0.68497990089009  2.92601301950195 -0.00248527242724
 6  0.67627886028603 -2.43087852615262 -1.40663274637464
 6  0.91937087088709 -1.07821777287729 -1.02537509280928
 6 -0.70509483458346 -2.81170505990599 -1.05555575497550
 6 -1.25138724492449 -1.57796143804380 -0.71337280318032
 6  3.79444738603860  1.48765325062506 -0.36688290469047
 6  2.44672536553655  0.93189452125213 -0.59062062066207
 6  2.18125512981298 -0.37115326112611 -0.99261150615062
 6  3.66246008290829  2.76099410761076  0.20944017111711
 6  1.74389554205421 -3.32183744954495 -2.00500070107011
 6 -5.57809714491449 -2.48365027462746  1.36793673367337
 6 -3.62180424332433 -1.90883594559456  0.25928971397140
 6  2.12759701990199  2.99674610281028  0.13298582158216
 6 -5.12528872517252 -1.53276878007801  0.38572721162116
 6  5.12455093319332  0.69480915091509 -0.44011706810681
 6 -2.63294425662566 -1.06708347994800 -0.41831224562456
 6 -1.47298523622362 -4.05623012531253 -1.54809805350535
 6 -4.56689415621562 -3.61772027772777  1.42078119271927
 6  2.17181765776578 -4.51980420012001 -0.98990184598460
 6  5.37219709600960 -0.20567663156316  0.80245835193519
 6  4.60760654685469  3.75030626192619  0.68395057885789
 6  1.29848108950895  4.11259566706671  0.37375749524953
 6 -6.99952108270827 -3.08631601140114  1.05899536563656
 6 -5.81525012751275 -0.60848557845785 -0.27612908730873
 6 -0.05879086808681  4.08501317291729  0.22598122372237
 6 -0.98951991369137  5.23010410341034  0.38742337093709
 6 -2.19463478967897  4.74556067886789  0.26454785768577
 6  3.10750359165917 -4.15139175827583  0.04936633563356
 6 -5.41128578937894  0.39810503910391 -1.20780184718472
 6  6.76532909910991 -0.86857514161416  0.66662978557856
 6 -3.52679843914391  5.46042234043404  0.31964277937794
 6 -2.14808824512451  3.27221941324132  0.01409233403340
 6 -0.67069120662066  6.67318118611861  0.64456954675468
 6 -4.20234877177718  5.70472887778778 -1.14489526522652
 1 -0.74841240614061  0.21249695529553 -0.28263881718172
 1  2.85965998059806 -1.18516051815182 -1.23684319291929
 1  2.63627487838784 -2.68972367926793 -2.02170460516052
 1  1.35683246254625 -3.70197211481148 -2.96258862536254
 1 -5.62874468066807 -2.21410980008001  2.54582674317432
 1  5.34868517871787  0.22058677517752 -1.32178533153315
 1  6.08230019561956  1.49057336663666 -0.25905720532053
 1 -2.89885798149815  0.05628012421242 -0.61899480508051
 1  0.62742907460746  1.92822400540054 -0.27584705680568
 1 -1.52690828202820 -4.79013111731173 -1.03901470717072
 1 -2.41125475517552 -3.69088679067907 -1.89573889408941
 1 -1.02364231533153 -4.32990116451645 -2.46012961596160
 1 -2.63023678147815 -3.68170431883188  1.03512075907591
 1  1.24023983068307 -5.09828231073107 -0.82349606710671
 1  2.40573975977598 -5.41262397089709 -1.62619713361336
 1  4.41976639763976 -0.93235928702870  0.92219280548055
 1  5.51383558315832  0.29591402800280  1.85816028672867
 1  4.33194071437144  4.71748221562156  0.40997101440144
 1  5.66970359315932  3.47151987118712  0.35027155035504
 1  4.68670808820882  3.75227073517352  1.81301260516052
 1  1.83850968296830  5.04944487408741  0.74446423332333
 1 -7.79884265586559 -2.30114610911091  1.12555724972497
 1 -7.20265590989099 -3.90312807870787  2.01215358325833
 1 -7.00417860186019 -3.64843260676068  0.19386097529753
 1 -6.94191153285328 -0.70922125342534  0.04400632853285
 1 -4.62246708850885  1.07645184208421 -0.56730057815782
 1 -6.23827565726573  1.08621624992499 -1.64671134963496
 1 -4.77236573207321 -0.13558671247125 -2.00109132183218
 1 -3.50636051535154  6.34115677147715  0.94735243924392
 1 -4.29820749824983  4.68686781898190  0.92693483128313
 1  0.01891645694569  6.73438539843984  1.51242397489749
 1 -1.67421880518052  7.29342603810381  0.94038329472947
 1 -0.11014182658266  7.19660816131613 -0.01279494529453
 1 -3.60632092789279  6.15140102320232 -1.94617243334333
 1 -5.23048487158716  6.22810555155516 -0.79568471017102
 1 -4.73156767786779  4.65932742504250 -1.38610834923492
 1  3.68958426492649 -4.76228045824582  1.71119975697570
 1  7.94833207790779 -1.85797644994499  1.64875503810381

