%nproc=4
%Mem=4GB
# td=(NStates=1) B3LYP/SVP 

TD

0 1
 8 -4.51074119491949 -4.68402848404840  1.92331769536954
 8  3.00921151925193 -4.89818436763676  1.11592952475248
 8  7.15360574197420 -1.48133567466747  1.75086530703070
 8  3.61217295009501 -3.02900202540254  0.03780663906391
 8  7.70954970697070 -0.45005638493849 -0.18808837813781
 8 -2.97526785558556  2.43036043354335 -0.37345224982498
 7 -0.28572295399540 -0.60900024982498 -0.52105074127413
 7  1.59249693239324  1.76312869166917 -0.38322998509851
 7 -3.34098104110411 -3.03825287208721  0.70234870617062
 7 -0.66620802370237  2.87179759795980 -0.12346737063706
 6  0.63331456385639 -2.43830926922692 -1.39755183828383
 6  0.90563949774977 -1.17182713381338 -0.92119467476748
 6 -0.75203952905291 -2.67340122952295 -1.20010020942094
 6 -1.31605371157116 -1.44740838273827 -0.69159062496250
 6  3.76210415171517  1.39979446474647 -0.21661787818782
 6  2.46137683068307  0.74138547034703 -0.49866142474247
 6  2.19453645794579 -0.56029217501750 -0.85270751575158
 6  3.57894173107311  2.70949895809581  0.08751797889789
 6  1.54698585108511 -3.41449671547155 -1.92489269026903
 6 -5.67935727092709 -2.50564247384738  1.38233817381738
 6 -3.54473653655366 -1.80296535853585  0.19479326432643
 6  2.09400366056606  2.95052148034803  0.00293281628163
 6 -5.13368956525653 -1.49290479367937  0.34987362626263
 6  5.09236771487149  0.59004867486749 -0.29725278167817
 6 -2.71677263946395 -1.00572734433443 -0.45326574097410
 6 -1.60261819951995 -3.86367086938694 -1.56735997969797
 6 -4.47757522432243 -3.66847535323532  1.30249936453645
 6  2.08603907990799 -4.53033525322532 -0.98115097089709
 6  5.48388826512651 -0.17688375227523  0.84955306140614
 6  4.59138492469247  3.80854208550855  0.53058524232423
 6  1.27658890029003  4.04537894539454  0.34956507600760
 6 -6.96547767836784 -3.19769714951495  1.12359182528253
 6 -5.91936053855386 -0.59267399729973 -0.19281075547555
 6 -0.10019500850085  3.99196386798680  0.15797442304230
 6 -1.02150311201120  5.16998809180918  0.48363299189919
 6 -2.28984431063106  4.68938506130613  0.28232963586359
 6  2.99308214951495 -4.03053967306731  0.09347074607461
 6 -5.47582224302430  0.43431866046605 -1.27000806780678
 6  6.84505707190719 -0.69058734283428  0.68620174277428
 6 -3.56079183848385  5.26854315251525  0.39337015211521
 6 -2.08666210251025  3.23595578687869 -0.08434750995100
 6 -0.59896403390339  6.52456632463246  0.76429151895190
 6 -4.01594013091309  5.84969337423742 -0.96014679037904
 1 -0.43076064096410  0.38078378397840 -0.11268182148215
 1  3.05088910351035 -1.18214021612161 -1.11558106670667
 1  2.42279353025302 -2.86777148404841 -2.26255869056906
 1  1.08419519881988 -4.03929584718472 -2.83359572607261
 1 -5.50772257845785 -2.14250263936394  2.32748490899090
 1  5.05069537973797  0.02688740524052 -1.27311046404641
 1  5.91504346994699  1.33906821612161 -0.31791309090909
 1 -3.03019111481148  0.00064456065607 -0.84653755935594
 1  0.55739207090709  1.55495667866787 -0.53406287838784
 1 -1.47505309650965 -4.67502960716072 -0.92188299399940
 1 -2.55154878457846 -3.65058276027603 -1.82362168236824
 1 -1.13697364846485 -4.42925109950995 -2.41799540254025
 1 -2.32290604840484 -3.43443959235924  0.56001324832483
 1  1.26844265096510 -5.00573305580558 -0.62482620012001
 1  2.73023220902090 -5.32912562106211 -1.42134664856486
 1  4.99712413341334 -1.05651170227023  1.25247583378338
 1  5.29893409300930  0.27748218481848  1.65536000670067
 1  4.29621714201420  4.87585805320532  0.08287830513051
 1  5.47003362616262  3.12837555675568  0.12941946514651
 1  4.68161757915792  3.77585309340934  1.67039834373437
 1  1.76787261926193  4.95579550915091  0.72088187508751
 1 -7.76560933253325 -2.50068606310631  1.11071576557656
 1 -7.04219986428643 -4.05537330323032  1.84615698359836
 1 -7.20336852085209 -3.53897166066607  0.13677526672667
 1 -7.05704304600460 -0.78100843214321  0.10259218711871
 1 -5.00103494529453  1.33249744664466 -0.55200904900490
 1 -6.24146597629763  0.92069969826983 -1.78874555305531
 1 -4.70848934443444 -0.10294344814481 -1.88771998469847
 1 -3.56721660096010  6.13230588638864  1.08811651565157
 1 -4.43037071457146  4.40082921512151  0.54255639343934
 1  0.37024158945895  6.40030199009901  1.51104383688369
 1 -1.41684306760676  7.20524722022202  1.45580483688369
 1 -0.25662647504750  6.99112761326133 -0.10549421522152
 1 -3.27408770457046  6.60944682778278 -1.37644546064606
 1 -5.06331815491549  6.42648538953895 -0.90179532123212
 1 -3.99646416751675  5.10783227552755 -1.69801954035404
 1  3.53590889738974 -4.62438666886689  1.95573421042104
 1  8.05396264096410 -1.93389404170417  1.86861702430243

