%nproc=4
%Mem=4GB
# td=(NStates=1) B3LYP/SVP 

TD

0 1
 8 -4.48874899569957 -4.71114119531953  1.85614097769777
 8  3.04685528362836 -4.73487803700370  1.41708964076408
 8  6.86460684208421 -1.61004854595460  1.95617583808381
 8  3.68355008780878 -3.10538966416642  0.00942380078008
 8  7.52018077007701 -0.78587996729673 -0.11420098939894
 8 -3.01212154095410  2.45429282678268 -0.35828073267327
 7 -0.33299768146815 -0.59093844364436 -0.77408604480448
 7  1.57622530523052  1.84183656245625 -0.24874653675368
 7 -3.42899984298430 -2.96856590339034  0.73827229852985
 7 -0.72459386228623  2.95832625082508 -0.07343236713671
 6  0.64175540794079 -2.47129256755676 -1.53109519261926
 6  0.88899783358336 -1.14965491659166 -1.01293384868487
 6 -0.70496482158216 -2.73453734313431 -1.25197539693969
 6 -1.30144225042504 -1.45949959185919 -0.76076754265427
 6  3.79264720602060  1.47702218751875 -0.41461767816782
 6  2.44684537753775  0.88268960076008 -0.59186074467447
 6  2.19166617091709 -0.41722786858686 -0.99599184418442
 6  3.58541237813781  2.83344135233523 -0.12270304320432
 6  1.61654280678068 -3.48399366516652 -1.96321652265227
 6 -5.53288262346235 -2.56980889048905  1.35203514351435
 6 -3.69242130503050 -1.78267332933293  0.11201498649865
 6  2.13767802800280  2.94079050725072  0.03130565356536
 6 -5.09193538983898 -1.53528903210321  0.37745638453845
 6  5.14252273037304  0.69171884188419 -0.44531758815882
 6 -2.69476043824382 -1.06136290789079 -0.45287570197020
 6 -1.50643858155816 -3.92309681198120 -1.74160740444044
 6 -4.37119458625863 -3.60782928862886  1.37850696529653
 6  2.05163563956396 -4.59378159785979 -0.85622847864786
 6  5.42099197549755 -0.06737280118012  0.84295240134013
 6  4.59878566476648  3.83533476477648  0.21782396619662
 6  1.32269351075108  4.15644005150515  0.31297141664166
 6 -6.92553368396840 -3.27831521132113  1.13157262336234
 6 -5.83311191369137 -0.61364609450945 -0.28136961136114
 6 -0.02636762576258  4.17184185578558  0.21946057165717
 6 -0.91804276597660  5.21345243824382  0.43776840544054
 6 -2.17517284348435  4.74662078487849  0.38669007190719
 6  3.02054489578958 -4.10636725582558  0.19415081408141
 6 -5.37736239703970  0.38935416401640 -1.30741180818082
 6  6.74813737993799 -0.82943122722272  0.87048017061706
 6 -3.59359511881188  5.22403870207021  0.57594840994099
 6 -2.00816425272527  3.28848103940394 -0.07682675787579
 6 -0.48467260476048  6.59728359635964  0.89233432323232
 6 -4.27847638453845  5.60134853975398 -0.71158193389339
 1 -0.44169173407341  0.18988469406941 -0.43685423872387
 1  3.01708572317232 -1.06364836693669 -1.10223973257326
 1  2.47380863176318 -3.11922662956296 -2.57672010671067
 1  1.21164794409441 -4.14283620122012 -2.57581994849485
 1 -5.57795960216021 -2.24021241034103  2.52173433393339
 1  5.10025033523352 -0.15387067056706 -1.12830598359836
 1  5.99342130773077  1.35952026132613 -0.79693099269927
 1 -2.86581467716772 -0.01859736353635 -0.67602050765077
 1  0.52788912061206  2.03482466546655 -0.43997346944694
 1 -1.86481207240724 -4.75691779597960 -0.85106591229123
 1 -2.41747537723772 -3.71329903190319 -2.16170549074908
 1 -0.91423137423742 -4.34381255565557 -2.51770537353735
 1 -2.41946570437044 -3.18589473787379  0.96354360136014
 1  1.23197900460046 -5.04681716421642 -0.26143986148615
 1  2.70218940474048 -5.42793550205020 -1.27482199609961
 1  4.62489691069107 -0.92159821092109  1.02104269046905
 1  5.35657985758576  0.72856729332933  1.75480995169517
 1  4.73773129342934  4.67952842024202 -0.39379936263626
 1  5.56191281408141  3.28478119731973 -0.09261273807381
 1  4.52289170657066  4.17775328342834  1.23201450535053
 1  1.89426525852585  5.01603153275328  0.64830461736174
 1 -7.72857562916292 -2.64391038553855  1.61434612861286
 1 -7.11879752405241 -4.25926369226923  1.53243561146115
 1 -7.23762194619462 -3.29566733023302  0.02414400360036
 1 -6.95023236493649 -0.68369870117012 -0.12725079717972
 1 -4.83566840864086  1.16194039093909 -0.80679452755276
 1 -6.26883871357136  0.95051267956796 -1.77483416191619
 1 -4.74016251175117  0.11822866906691 -2.18255946864686
 1 -3.46490636993699  6.12440509630963  1.18033573757376
 1 -4.34404208170817  4.62375150735074  1.14423656145615
 1  0.42141670697070  6.53840580048005  1.70877360986099
 1 -1.43084446774677  7.06099279477948  1.44202345874587
 1 -0.24803561596160  7.16378487898790  0.07356369056906
 1 -3.74191448724873  6.17997388048805 -1.42865068116812
 1 -5.31920374347435  5.84426716771677 -0.38624376607661
 1 -4.30628514961496  4.56379787208721 -1.21450118851885
 1  3.66788209470947 -4.08219244944494  1.92978161516152
 1  7.72354959965997 -2.20773142544254  1.90254041664166

