%nproc=4
%Mem=4GB
# td=(NStates=1) B3LYP/SVP 

TD

0 1
 8 -4.39690981178118 -4.60799088028803  1.91903726732673
 8  3.11787238533853 -4.89847439663966  1.18523645544554
 8  6.91649203060306 -1.45339288038804  1.97801802230223
 8  3.92691442424242 -3.12394151935194 -0.03366050765077
 8  7.73173192519252 -0.47293867316732  0.06676710741074
 8 -3.11229155795580  2.49770716821682 -0.24972987758776
 7 -0.33067744944494 -0.60889023882388 -0.56259489568957
 7  1.51814949764976  1.76522890169017 -0.29161082318232
 7 -3.50169711271127 -3.15585463226323  0.52455092639264
 7 -0.82213361626163  2.94218463666367 -0.19008403230323
 6  0.58772000440044 -2.45532097039704 -1.37392947604760
 6  0.92349128292829 -1.09264921602160 -0.82144469976998
 6 -0.86997132223222 -2.71569545894589 -1.31243144254425
 6 -1.38499060526053 -1.55347898979898 -0.75575704160416
 6  3.71711965326533  1.39800428572857 -0.33877009340934
 6  2.44393508650865  0.78659999179918 -0.57587914651465
 6  2.12620962526253 -0.54110025582558 -0.84490673567357
 6  3.49445328222822  2.67749575777578 -0.01522229512951
 6  1.58208936143614 -3.51290655645565 -1.86273647464747
 6 -5.51927126232623 -2.53388529812981  1.46378631863186
 6 -3.68579064196420 -1.93199826182618  0.05375916091609
 6  2.08474273447345  2.88268469666967  0.03271579457946
 6 -5.07190338663866 -1.51755725892589  0.48676731563156
 6  5.05106358445845  0.67943761376138 -0.43316637303730
 6 -2.65895685788579 -1.15423219481948 -0.52207262166217
 6 -1.55382332003200 -3.92053655595560 -1.87453069676968
 6 -4.43643110991099 -3.53181168686869  1.32581169576958
 6  2.10081055705571 -4.51827404710471 -0.96205906170617
 6  5.38015789208921 -0.17938400230023  0.72023012911291
 6  4.59645543174317  3.73516474777478  0.32983516731673
 6  1.27400864226423  4.04746915441544  0.31765188468847
 6 -6.90161129172917 -3.05813319311931  1.28092755885589
 6 -5.72166076857686 -0.45540026992699 -0.10825229962996
 6 -0.13381837083708  3.98111278287829  0.17455608120812
 6 -0.91464242594259  5.19961105410541  0.56236086468647
 6 -2.28348367456746  4.75280140294029  0.36117752065207
 6  3.15673851515151 -4.11195781488149  0.13710510951095
 6 -5.45524018481848  0.36163139173917 -1.32510357735774
 6  6.85216778297830 -0.68745702980298  0.81492461506151
 6 -3.53249900920092  5.50467676587659  0.39269008410841
 6 -2.13897733403340  3.29066125742574 -0.12267134233423
 6 -0.37885202270227  6.52559642764276  0.95962105190519
 6 -4.14126266316632  5.76031443634364 -0.95848662436244
 1 -0.57237480238024  0.29115482108211 -0.21131168446845
 1  3.00328434303430 -1.16702870497050 -1.15103461206121
 1  2.62891414231423 -2.89153386028603 -2.42773520822082
 1  1.24864164346435 -4.31236315391539 -2.61059342584258
 1 -5.32395420162016 -2.12449083818382  2.54917707820782
 1  5.11612192239224  0.23305802230223 -1.51960511351135
 1  5.85044701030103  1.30962527182718 -0.59692099169917
 1 -3.04131222692269 -0.14168967276728 -0.65519842544254
 1  0.51424775647565  1.72755393839384 -0.39887936003600
 1 -1.90765635683568 -4.83916602080208 -1.12568337403740
 1 -2.61508513821382 -3.78381608360836 -2.26181550175018
 1 -1.08056800790079 -4.27320549494949 -2.76029963296330
 1 -2.62770652845284 -3.65655180358036  0.38297554455446
 1  1.33858966566657 -5.01987446994699 -0.37769148664866
 1  2.59142832863286 -5.35262797129713 -1.49916443034303
 1  5.09136355735574 -1.28052410351035  0.62688327452745
 1  4.98105230483048 -0.08389395279528  1.89432390309031
 1  4.40500802110211  4.51669213661366 -0.52344232693269
 1  5.50412703550355  3.41485420462046  0.24572109530953
 1  4.23657307470747  4.07097260536054  1.33804510841084
 1  1.84623045504550  4.95770570017002  0.52559234613461
 1 -7.66860963256326 -2.34501049554955  1.54231892589259
 1 -7.08698434273427 -4.04784255015502  1.87264963286329
 1 -7.10293847784778 -3.28779654315432  0.15501709090909
 1 -6.76964430613061 -0.43691402270227  0.19213114101410
 1 -4.78239308110811  1.35121931883188 -0.93062691079108
 1 -6.29452128182818  0.65718334663466 -1.87344402290229
 1 -4.70201869736974 -0.00423357715772 -2.13454466716672
 1 -3.35816569586959  6.44789744554455  0.84347205120512
 1 -4.16006368386839  4.86531566376638  1.04648678647865
 1  0.00831539683968  6.32689464936494  1.94016674917492
 1 -0.99791117441744  7.49717641314131  1.03485274167417
 1  0.36127531513151  7.10714921542154  0.19646598079808
 1 -3.44627492329233  6.39230511361136 -1.45120293639364
 1 -5.19507133023302  6.17250999199920 -0.89266440814081
 1 -4.24484900600060  4.87055854815481 -1.70898063646365
 1  3.84661996849685 -4.68186241644164  1.71896053305331
 1  7.74578182288229 -1.87398805110511  1.95879604220422

