%nproc=4
%Mem=4GB
# td=(NStates=1) B3LYP/SVP 

TD

0 1
 8 -4.58384850565057 -4.74571465266527  1.84041940554055
 8  2.80390098819882 -4.58986353555355  1.50414834663466
 8  7.21586196759676 -1.23420096119612  1.81360158065807
 8  3.85937767056706 -3.18428755395540  0.13633649204920
 8  7.58062681468147 -0.70964234353435 -0.34261383068307
 8 -3.03161349014901  2.51244864236424 -0.31765667026703
 7 -0.32490687238724 -0.62098144794479 -0.58109674587459
 7  1.47935561826183  1.77769014781478 -0.40464212631263
 7 -3.42040898389839 -3.16441548834884  0.56475494679468
 7 -0.71588299119912  2.90104052225223 -0.11419644354435
 6  0.66513774617462 -2.43828926722672 -1.29793187628763
 6  0.87014594839484 -1.03606355745575 -0.94479703500350
 6 -0.74281860696070 -2.69421331073107 -1.21376157555756
 6 -1.29168127432743 -1.52691633353335 -0.76035750165016
 6  3.80267820912091  1.42475696099610 -0.37439365576558
 6  2.45173586658666  0.78161949374938 -0.55548710731073
 6  2.17485448974897 -0.47951409720972 -0.94111635663566
 6  3.57513135003500  2.64048205640564  0.10567979507951
 6  1.73389454195420 -3.47822308810881 -1.71410161116112
 6 -5.58198753395340 -2.51444335393539  1.35056499649965
 6 -3.71452351525153 -1.80846590859086  0.01679546454645
 6  2.18183244344434  2.93265969416942  0.06444896789679
 6 -5.11496769306931 -1.57683318651865  0.29558819771977
 6  5.05354383248325  0.66353602360236 -0.60210326672667
 6 -2.63999496169617 -1.12255902750275 -0.67980839523952
 6 -1.54691262896290 -3.97117161946195 -1.59816306000600
 6 -4.57082454925493 -3.62829133483348  1.30174928952895
 6  2.10861133713371 -4.55378759845985 -0.84975783158316
 6  5.44666454275428 -0.04406046994699  0.67186529262926
 6  4.55923170937094  3.69739097039704  0.44802698649865
 6  1.41791303270327  4.10522492999300  0.37782790229023
 6 -7.04348547914791 -3.15147252705271  1.14131359745975
 6 -5.90114871737174 -0.48957368726873 -0.28637011141114
 6 -0.02821781078108  3.98902357395740  0.24845347094709
 6 -0.92654361606161  5.21073216621662  0.61399602820282
 6 -2.22041736793679  4.72322844564456  0.43361476437644
 6  3.02297513881388 -4.03067968706871  0.29915131413141
 6 -5.45626028682868  0.49136436503650 -1.30586165316532
 6  6.77732029822982 -0.75900418451845  0.55187831043104
 6 -3.50581634093409  5.34287058525853  0.52791360646065
 6 -2.08049148544854  3.21877406870687 -0.05253432863286
 6 -0.46855099259926  6.50500436843684  1.05648073787379
 6 -4.19250778767877  5.51210961586159 -0.93504428012801
 1 -0.58517608250825  0.39553525912591 -0.21197175047505
 1  2.98720273487349 -1.23173517561756 -1.10876038463846
 1  2.47062831373137 -3.04641934883488 -2.16846928162816
 1  1.11381816111611 -3.85007692529253 -2.56709907640764
 1 -5.48022982918292 -1.97369575867587  2.40456261676168
 1  4.87360767096710 -0.15427071057106 -1.27023017601760
 1  5.88018998459846  1.54617892719272 -0.72095339493949
 1 -2.70590868656866  0.04236873307331 -0.75775868146815
 1  0.39672600430043  1.95412659565957 -0.37686715881588
 1 -2.07513310451045 -4.76251835603560 -0.87361816751675
 1 -2.47526115581558 -3.55358306030603 -2.24208352855286
 1 -0.94657460856086 -4.46931510591059 -2.33466706970697
 1 -2.60209396719672 -3.53509965836584  0.52479972697270
 1  1.40096590329033 -5.08741122362236 -0.29167288478848
 1  2.75023420922092 -5.23790649914991 -1.53770828472847
 1  4.99740416141614 -1.13560961206121  0.79022960916092
 1  5.44534873447345  0.42101653825383  1.63505797649765
 1  4.77311483178318  4.40801126852685 -0.36992697539754
 1  5.69006562936294  3.29510222942294  0.61828835203520
 1  4.49543896129613  4.27958346644664  1.51413271717172
 1  2.04668050005001  4.92215214481448  0.62737252415242
 1 -8.02335510711071 -2.40258625312531  1.04818951295130
 1 -6.99357500180018 -3.90878864476448  1.78713108100810
 1 -7.10204838883888 -3.61069883338334  0.08978056725673
 1 -6.94348168986899 -0.41842217351735  0.11452338023802
 1 -5.00939578137814  1.33639783668367 -0.79307315541554
 1 -6.32052388208821  0.79682731103110 -1.99916659515952
 1 -4.77968646414641  0.22044889108911 -2.18569978267827
 1 -3.43459333863386  6.30783343914391  1.13667137113711
 1 -4.20614829232923  4.64527365956596  1.12327446524652
 1  0.13499806510651  6.41064302420242  1.92156488898890
 1 -1.28725010831083  7.09593628912891  1.49239849624963
 1  0.16676586418642  7.11265976647665  0.25708204240424
 1 -3.38359865566557  5.99067495059506 -1.69770758685869
 1 -5.03237506060606  6.05682842384238 -0.82283742544254
 1 -4.48168268936894  4.35057654995500 -1.14482422082208
 1  3.56751205770577 -4.38838306850685  1.90781941894189
 1  8.10207745244525 -1.36921757405741  1.65776593919392

