%nproc=4
%Mem=4GB
# td=(NStates=1) B3LYP/SVP 

TD

0 1
 8 -4.48167828862886 -4.69722980418042  1.95938130173017
 8  2.69206980508051 -4.72081663086309  1.36113404520452
 8  7.08286866826683 -1.42753029412941  1.85166538703870
 8  3.61841357415742 -3.02246137133713  0.18202106050605
 8  7.60535928792879 -0.65901728102810 -0.12793236253625
 8 -2.96788711751175  2.54168156565657 -0.17931283588359
 7 -0.33321770347035 -0.57061641144114 -0.73467210341034
 7  1.56553423612361  1.76061844064406 -0.43167482958296
 7 -3.38172511551155 -3.11015006180618  0.58350682198220
 7 -0.71960336323632  2.95207562576258 -0.04878990289029
 6  0.68702993539354 -2.45337077537754 -1.40913299639964
 6  0.89833876767677 -1.20449040014001 -1.01941449674967
 6 -0.80473479857986 -2.70987487688769 -1.31266146554655
 6 -1.34205631183118 -1.51671531343134 -0.82063352925293
 6  3.82591053235324  1.44784927022702 -0.47541375777578
 6  2.41835252825283  0.74316564836484 -0.60379193779378
 6  2.19887689198920 -0.58840498629863 -0.72756500150015
 6  3.57580141704170  2.79814782298230 -0.11822259515952
 6  1.65481663416342 -3.45992125792579 -1.97672787378738
 6 -5.54536387158716 -2.67413932353235  1.33073301330133
 6 -3.62865492839284 -1.89968503050305  0.04062784778478
 6  2.08844310451045  2.92740916911691  0.00231275427543
 6 -5.08430462676268 -1.58936443964396  0.35806444534453
 6  5.04777325542554  0.74055372537254 -0.34943800020002
 6 -2.60882184438444 -1.19809658125813 -0.46360677507751
 6 -1.48255619331933 -4.05140964326433 -1.79401264496450
 6 -4.39043651045105 -3.61291979767977  1.35758487308731
 6  2.08208868486849 -4.60880310001000 -0.97892074787479
 6  5.36365624192419 -0.13077914181418  0.90893900000000
 6  4.58427421362136  3.76869810111011  0.24568675247525
 6  1.36750799219922  4.09282368986899  0.35602572207221
 6 -6.93332446304631 -3.23535091489149  1.08152761886189
 6 -5.83239184168417 -0.63723845374537 -0.18926040044004
 6 -0.05082007100710  4.10010468206821  0.24437306290629
 6 -0.89745070677068  5.19389048204820  0.45690031863186
 6 -2.16578190439044  4.72067819061906  0.44299570247025
 6  2.86961980328033 -3.99154577367737  0.26327772677268
 6 -5.54970963176318  0.51781701030103 -1.14411547854785
 6  6.86377894409441 -0.70408869296930  0.80178330093009
 6 -3.52469822912291  5.44784108230823  0.55273608870887
 6 -2.05036847314731  3.28667085838584  0.03580450525053
 6 -0.49440357785779  6.56444031203120  0.78627371717172
 6 -4.12440097699770  5.72705111001100 -0.81300207590759
 1 -0.42769033393339  0.37423312891289 -0.14930548384838
 1  3.08995300990099 -1.03502550465047 -0.84153366196620
 1  2.60943219411941 -3.12376708360836 -2.35133756845685
 1  1.16417319661966 -3.95867778537854 -2.92576494299430
 1 -5.30020182638264 -2.40352874197420  2.42885504600460
 1  5.05859616981698 -0.02072735623562 -1.09042219521952
 1  5.82736470207021  1.44362867216722 -0.94773607320732
 1 -2.93342143784378 -0.08539404320432 -0.63644655025503
 1  0.63784011571157  1.58014919791979 -0.55394486658666
 1 -1.15627121832183 -5.09709181338134 -1.27944875057506
 1 -2.47541117081708 -3.63293099509951 -1.97329664986499
 1 -1.21456140724072 -3.98607678207821 -3.04105770877088
 1 -2.46048980678068 -3.57451359975998  0.66095334233423
 1  1.26612241894189 -5.14034651715172 -0.54623834133413
 1  2.74868405420542 -5.16774948344835 -1.63682819671967
 1  4.59530395139514 -0.94958100920092  0.78103869006901
 1  5.17173137273727  0.46461089768977  1.93416788748875
 1  4.87915543584359  4.46222669006901 -0.64108409110911
 1  5.67131375417542  3.41523424262426  0.59559608280828
 1  4.14891430883088  4.40840634873487  1.11709301320132
 1  2.00376620862086  4.94957488708871  0.70999078597860
 1 -7.81918469006901 -2.45911190569057  0.84583927792779
 1 -7.14644028832883 -3.81098886478648  2.02571493939394
 1 -7.01411959595960 -3.99954771827183 -0.01216962776278
 1 -6.79356669836984 -0.48252858415842  0.15775770367037
 1 -5.14942978477848  1.36896109300930 -0.66476032413241
 1 -6.50092192189219  0.62541016931693 -1.81699837833783
 1 -4.69588808430843  0.13938078427843 -1.94858607130713
 1 -3.38500838013801  6.55169782558256  1.06827453145315
 1 -4.15966364386439  4.67181631383138  1.31314345214521
 1  0.20450501580158  6.73775573547355  1.60123285578558
 1 -1.35293667696770  7.40653734923492  1.32560181658166
 1  0.04035322292229  7.17087558805881 -0.05956962276228
 1 -3.32933322912291  6.21288717181718 -1.53096091219122
 1 -5.08843066616662  6.17209995099510 -0.70308545024503
 1 -4.32454697579758  4.84364585688569 -1.50258999739974
 1  3.35935124162416 -4.64155838603860  2.00684932193219
 1  7.98244548924893 -1.83810446274627  1.87880804340434

