%nproc=4
%Mem=4GB
# td=(NStates=1) B3LYP/SVP 

TD

0 1
 8 -4.48052817361736 -4.74397447864786  1.79824518811881
 8  2.88221881998200 -4.90181473067307  1.35967389918992
 8  7.11241162256226 -1.37771531263126  1.93173339383938
 8  3.67050878367837 -3.14777390259026  0.20612347074707
 8  7.59415816781678 -0.44260563986399 -0.09256882618262
 8 -2.95450577937794  2.38165556305631 -0.16520142474247
 7 -0.29905428712871 -0.66976632643264 -0.59692832903290
 7  1.54461214391439  1.80764314311431 -0.33619528162816
 7 -3.43691063406341 -3.13633268006801  0.45105357665767
 7 -0.73878528142814  2.97756817501750 -0.19476450035004
 6  0.68262949534954 -2.51250668896890 -1.43551563466347
 6  0.92713164696470 -1.21535148624862 -0.94255681098110
 6 -0.70719504460446 -2.73910780018002 -1.29912011141114
 6 -1.34584669086909 -1.51753539543954 -0.76851831773177
 6  3.72895083638364  1.39733421872187 -0.35551176757676
 6  2.42496318931893  0.74157548934893 -0.59506106470647
 6  2.16299330363036 -0.55279142494249 -0.86860910591059
 6  3.52263610051005  2.73633164136414  0.04424365146515
 6  1.62567371987199 -3.58389365516552 -1.91797199819982
 6 -5.59109844504450 -2.59988189778978  1.35562550255026
 6 -3.56986904980498 -1.78038310031003  0.09786357135714
 6  2.11392565276528  2.90980740894089  0.03066558955896
 6 -5.08320451675167 -1.55689119231923  0.32098073697370
 6  5.04758323642364  0.56563623362336 -0.46019907630763
 6 -2.71633259545955 -1.04581135273527 -0.56709712411241
 6 -1.43695163286329 -3.87033153545355 -1.92900614431443
 6 -4.41609907670767 -3.67877638333833  1.24544365896590
 6  2.05691616761676 -4.58313053275327 -0.86151900770077
 6  5.43425330163016 -0.23360942484248  0.82238034413441
 6  4.53828961516152  3.84392562386239  0.17849003280328
 6  1.37148839023902  4.10681508900890  0.22992311181118
 6 -7.03908503910391 -3.00003738353835  1.19265873197320
 6 -5.97496609910991 -0.55212994289429 -0.16010748514851
 6 -0.08058304730473  4.11083575517552  0.23664228982898
 6 -0.93920488218822  5.21425251825183  0.50946557515752
 6 -2.19992531873187  4.70426654945495  0.35375677857786
 6  3.00219306060606 -4.05493211231123  0.26217761676168
 6 -5.51737639843984  0.47405263386339 -1.06994806180618
 6  6.85265783198320 -0.63287157125713  0.75653877647765
 6 -3.44500025932593  5.40616691489149  0.56684749984998
 6 -2.04036747304731  3.19412160346035  0.00063098789879
 6 -0.44359849734974  6.61456532453245  0.74376946674667
 6 -4.19989852675267  5.73478188308831 -0.70963173887389
 1 -0.61724928982898  0.22194790039004 -0.17080763406341
 1  3.02377639223922 -1.09743174527453 -1.05823533213321
 1  2.49968121902190 -3.18307301420142 -1.98764119881988
 1  1.40121690099010 -4.17522944054405 -2.75067743424342
 1 -5.46100790699070 -2.34743313241324  2.50162232273227
 1  5.05705601580158  0.12868758525853 -1.43908706170617
 1  6.08697066266627  1.37537184648465 -0.56543784338434
 1 -2.98464656035604  0.00691518771877 -0.72482538813881
 1  0.55724205590559  1.96006718971897 -0.48388786088609
 1 -1.57654324552455 -4.88355045924592 -1.29051985768577
 1 -2.33611724142414 -3.48325602760276 -2.10448976917692
 1 -1.06530648174817 -4.23983215761576 -3.11983558655866
 1 -2.45088884668467 -3.40014616301630  0.62236948394840
 1  1.26519232593259 -4.94402688518852 -0.46584030153015
 1  2.69443862966297 -5.30963367186719 -1.36397091099110
 1  4.78038245924593 -1.11498754985499  0.92736332253225
 1  5.24050825042504  0.46674111071107  1.73925839653965
 1  4.62141966226623  4.55534600200020 -0.62299228192819
 1  5.63696031883188  3.58965168436844  0.23680020322032
 1  4.22724214161416  4.72816832493249  1.06924822872287
 1  1.93020885288529  4.98796872647265  0.41736152305231
 1 -7.67178995059506 -2.14858085258526  1.37494218821882
 1 -7.32492813711371 -3.69084685058506  1.99938230613061
 1 -7.14697288128813 -3.62810057355736  0.26836842604260
 1 -6.98343568526853 -0.71994232553255  0.13830575847585
 1 -5.11190603240324  1.34801899879988 -0.48275212331233
 1 -6.46755858555856  0.88011563986399 -1.47037371587159
 1 -4.64271276677668  0.13290013621362 -1.75193640634063
 1 -3.49929980928093  6.38869152495250  1.06717442144214
 1 -4.19069674717472  4.75401453365337  1.06284842264226
 1  0.56288085338534  6.72050401030103  1.38702143464346
 1 -1.30547193049305  7.29698639413941  1.20677993439344
 1  0.06324551215122  6.94139263976398 -0.26021968776878
 1 -3.61997229302930  6.37426330943094 -1.17321513761376
 1 -5.13963578667867  6.28491123212321 -0.72276741844184
 1 -4.50128464956496  4.78285977827783 -1.39068880728073
 1  3.54178948544854 -4.44840907110711  2.02710134713471
 1  8.09510675537554 -1.45547619991999  1.83833399599960

