%nproc=4
%Mem=4GB
# td=(NStates=1) B3LYP/SVP 

TD

0 1
 8 -4.38147826862686 -4.55764584578458  2.01896726032603
 8  2.90387098519852 -4.86362091129113  1.44716264806481
 8  7.07425780718072 -1.46282382348235  1.82402262276228
 8  3.75312704550455 -3.32942206740674  0.09209206760676
 8  7.88371712371237 -0.35727710701070 -0.08166773607361
 8 -3.00610093889389  2.50215761326133 -0.24532943754375
 7 -0.29942432413241 -0.55367471727173 -0.69237787398740
 7  1.52707038973897  1.78078045684568 -0.35148681078108
 7 -3.39795673867387 -3.11957100390039  0.51578004930493
 7 -0.79914131703170  2.82646306450645 -0.02605762966297
 6  0.60135136753675 -2.53345878417842 -1.27862994609461
 6  0.96296523032303 -1.17558750985099 -1.00368292359236
 6 -0.82352667776778 -2.68071196059606 -1.32553275267527
 6 -1.34082618881888 -1.47011065296530 -0.76530799669967
 6  3.81159910121012  1.40634511981198 -0.39545576197620
 6  2.55093578657866  0.75366669846985 -0.70498205680568
 6  2.24541154545455 -0.65462160796080 -0.85818806380638
 6  3.53997783468347  2.72909091729173 -0.05136590949095
 6  1.54898605110511 -3.60847611341134 -1.83832403340334
 6 -5.52878221342134 -2.45335724532453  1.27600754075408
 6 -3.61267333023302 -1.84886994899490 -0.03273948894889
 6  2.14000826102610  2.89423585178518 -0.06503398039804
 6 -5.05858205450545 -1.55252075527553  0.21884052295230
 6  5.03768224632463  0.67770744074407 -0.51844490089009
 6 -2.67282824502450 -1.00185695729573 -0.59692010641064
 6 -1.54188212591259 -3.88142264456446 -1.74089733343334
 6 -4.43236070287029 -3.56225473117312  1.33843295789579
 6  1.86630710671067 -4.64315653535354 -0.81696455225523
 6  5.52132200850085 -0.07675373927393  0.66333443954395
 6  4.57805359155916  3.75328655995600  0.38094027782778
 6  1.26113735513551  4.06510091759176  0.30715083458346
 6 -6.90486161676168 -3.06228360816082  1.03895336143614
 6 -5.77615621812181 -0.51565629552955 -0.25912738713871
 6 -0.09863485248525  3.99163383498350  0.26884551015101
 6 -1.02641360306031  5.08035912891289  0.62684731333133
 6 -2.30502582878288  4.69962608540854  0.49228063096310
 6  2.87334017531753 -4.21663828292829  0.34498589758976
 6 -5.43956861766177  0.50875610421042 -1.26708777577758
 6  6.98520108630863 -0.63980226432643  0.75021814441444
 6 -3.53308906820682  5.34326062426243  0.51091190629063
 6 -2.11796523282328  3.18753094439444 -0.00768984418442
 6 -0.61808594609461  6.60012388038804  0.85414050385039
 6 -4.25033357025703  5.74967337223722 -0.77741851755176
 1 -0.17112467736774  0.25850155575558 -0.18609916321632
 1  3.27435144974497 -1.34229623172317 -1.03833334193419
 1  2.45382663356336 -3.16259096599660 -2.29796223092309
 1  0.94862164146415 -4.04444636223622 -2.84842720922092
 1 -5.70078188438844 -1.89897828692869  2.34422658315832
 1  5.09289960016002  0.03759847634764 -1.48452160516052
 1  5.92108407400740  1.34470878017802 -0.70030132973297
 1 -2.97876597229723  0.10087458365837 -0.74224713031303
 1  0.51523785548555  1.76038722172217 -0.65047451955196
 1 -1.62235782698270 -4.56662876707671 -0.85959676537654
 1 -2.55468909860986 -3.71087878987899 -2.13537285748575
 1 -1.12065201630163 -4.30710888528853 -2.72088569156916
 1 -2.29985374317432 -3.37967411581158  0.91799904690469
 1  0.98463427012701 -5.19308179067907 -0.45343906140614
 1  2.67195638143814 -5.28716142464246 -1.16209072297230
 1  5.00258467946795 -1.11321737283728  0.79475006120612
 1  5.23503770337034  0.37045148174817  1.72203667436744
 1  4.40176769706971  4.67015748314831 -0.17245722842284
 1  5.63018964176418  3.49812253145315  0.44791131433143
 1  4.18660807820782  4.45447095519552  1.34415571947195
 1  1.65324115611561  5.10807073667367  0.53722350925093
 1 -7.64694746634664 -2.34520051455146  1.25267996199620
 1 -6.99089473377338 -3.82065983188319  1.78293066096610
 1 -6.83992217621762 -3.49955771927193 -0.02410082088209
 1 -6.79604694639464 -0.40541087238724  0.27709963786379
 1 -5.00584542634263  1.34279847674767 -0.77269111721172
 1 -6.36573840354035  0.76294392269227 -1.86393307180718
 1 -4.62099059455946  0.12718956515651 -1.90559177187719
 1 -3.46551643094309  6.34657731353135  1.06476418041804
 1 -4.38589626712671  4.89619875207521  1.21698383618362
 1 -0.13136857155716  6.54769672957296  1.88721145364537
 1 -1.50011139443944  7.21315801130113  1.19441869826983
 1  0.11342052965297  6.95042354285428  0.05060139433943
 1 -3.78481877767777  6.51757764086409 -1.37048486458646
 1 -5.22762458555856  6.18061080208021 -0.32930807250725
 1 -4.45366988808881  4.86046753905391 -1.44349408780878
 1  3.71726703320332 -4.63415764596460  1.98199683668367
 1  7.98536578127813 -1.69622027432743  1.77504766736674

