%nproc=4
%Mem=4GB
# td=(NStates=1) B3LYP/SVP 

TD

0 1
 8 -4.66382650345035 -4.75375545674567  1.82469783338334
 8  2.96662726082608 -4.82894744394439  1.22337026882688
 8  7.10284066546655 -1.60326786788679  1.75012523302330
 8  3.86606833963396 -3.23960308550855 -0.08091523312331
 8  7.61348010001000 -0.63161454075408 -0.24534410371037
 8 -3.03361369016902  2.50371776927693 -0.29504440904090
 7 -0.15758013971397 -0.60129947974797 -0.51449008520852
 7  1.56680436313631  1.81100347914791 -0.38855051715171
 7 -3.44438138113811 -3.16242528932893  0.61870034133413
 7 -0.71719312221222  2.91414183238324 -0.03577860176018
 6  0.72364359675968 -2.48950438873887 -1.35099718281828
 6  0.97094602840284 -1.18326827792779 -0.82442499779978
 6 -0.68032235733573 -2.64955884528453 -1.24906510591059
 6 -1.23899600580058 -1.44461810371037 -0.57448891479148
 6  3.80874881618162  1.46755124042404 -0.30231644804480
 6  2.50432112511251  0.88476980878088 -0.52415397399740
 6  2.20765777007701 -0.53084923072307 -0.72031427642764
 6  3.54935877277728  2.78164617281728  0.00139936703670
 6  1.63672482498250 -3.55443070887089 -1.88292849384938
 6 -5.46513584878488 -2.49611152075208  1.40028996899690
 6 -3.66046810971097 -1.88198326032603  0.22437622262226
 6  2.05469973017302  2.93095952415241  0.07306982998300
 6 -4.99471566786679 -1.45436093929393  0.42003064196420
 6  5.11891036913691  0.81906157615762 -0.38695175157516
 6 -2.68541950415041 -1.04818158975898 -0.35556597099710
 6 -1.49068700640064 -3.79814431673167 -1.82132537623762
 6 -4.54144161096110 -3.69683818951895  1.33857297189719
 6  2.00844132013201 -4.59503172287229 -0.86566942274227
 6  5.47351722802280 -0.19496556045605  0.73702180828083
 6  4.39469525572557  3.85741697299730  0.42947513131313
 6  1.30631187258726  4.19910431793179  0.26360648014801
 6 -7.07008813941394 -2.97645502530253  1.23004247034703
 6 -5.79640824332433 -0.63491822172217 -0.30802227662766
 6 -0.05936092509251  4.10680535213521  0.29701832743274
 6 -1.07137809950995  5.20119121212121  0.57950257885789
 6 -2.38375370157016  4.70737686048605  0.34295569846985
 6  3.02189503080308 -4.11789840894089  0.18267966696670
 6 -5.39840450125013  0.42829805840584 -1.29626069306931
 6  6.80293285948595 -0.77665594969497  0.65583870647065
 6 -3.59081484078408  5.49098539673967  0.24854566966697
 6 -2.11452488878888  3.28148033933393 -0.11356043124312
 6 -0.52995713321332  6.46429029702970  1.07720281008101
 6 -4.14789332623262  5.52108051295130 -1.15663643934393
 1 -0.25987355225523  0.34836054165417 -0.16532708600860
 1  3.07055106970697 -1.39579158125813 -0.69692920152015
 1  2.49943119401940 -3.12281698859886 -2.11343377807781
 1  1.02716949624962 -4.12068398599860 -2.73952631913191
 1 -5.27901970817082 -2.04914330343034  2.34299646014601
 1  5.20861117131713  0.31989670617062 -1.38294144714471
 1  5.82604457005701  1.69573388268827 -0.57639893949395
 1 -3.09305740144014  0.10979547574758 -0.17640054565456
 1  0.42305863756376  1.77584876787679 -0.45552502460246
 1 -1.46593218441844 -4.70423252745274 -1.16093689938994
 1 -2.47493112281228 -3.39337703970397 -2.23476279647965
 1 -1.03626357745775 -4.18738691309131 -2.72842644564456
 1 -2.58444220202020 -3.73173932233223  0.47522476947695
 1  1.01690749744975 -4.96408889138914 -0.37944166166617
 1  2.45132431823182 -5.53749645814581 -1.26631114501450
 1  4.70566498749875 -1.04967101820182  0.80553113931393
 1  5.36231043064307  0.26447088368837  1.72185665636564
 1  4.57777529782978  4.66673714111411 -0.44426440914091
 1  5.38560518331833  3.31126384558456  0.77037356055605
 1  3.89334875227523  4.60887639573957  1.39873117701770
 1  1.88560439243924  5.09776970657066  0.65820560746075
 1 -7.68865163676368 -2.02709870437044  1.33731842584258
 1 -7.25082072637264 -3.81401916781678  1.83216558445845
 1 -7.18252643664366 -3.27596536003600  0.31288287748775
 1 -6.87387472917292 -0.75918624992499 -0.01575964806481
 1 -4.85114995679568  1.15325952285229 -0.98488233633363
 1 -6.31498332803280  0.72662029032903 -1.84986166466647
 1 -4.90673916941694 -0.20980413421342 -1.98410962366237
 1 -3.37494737403740  6.47041969776978  0.59227693169317
 1 -4.43984166166617  5.00949008120812  0.83532567036704
 1 -0.34387982268227  6.29453141304130  2.16739947244724
 1 -1.15764714801480  7.28303499899990  1.15208446484648
 1  0.39100828842884  7.03675217571757  0.44041037523752
 1 -3.27589788558856  5.97641352445244 -1.85999381548155
 1 -4.97736956005601  6.24795753675367 -1.19984512621262
 1 -4.25203972507251  4.36537803010301 -1.57678741714171
 1  3.67453275977598 -4.54677890809081  1.75487412441244
 1  8.08363560826083 -1.88074872717272  1.58970913351335

