%nproc=4
%Mem=4GB
# td=(NStates=1) B3LYP/SVP 

TD

0 1
 8 -4.46343646444644 -4.70290037123712  1.83810917451745
 8  3.03149374747475 -4.95770031923192  1.12873080488049
 8  7.16892727412741 -1.20197773887389  1.99871009150915
 8  3.62555428822882 -3.15840496569657  0.02932579097910
 8  7.60163891589159 -0.82482386168617 -0.16002557185719
 8 -3.07634796359636  2.44799219671967 -0.12107701230123
 7 -0.27625200690069 -0.56624597439744 -0.50344898109811
 7  1.49911759445945  1.74343672247225 -0.30264192629263
 7 -3.43052999599960 -3.11274032083208  0.49186765806581
 7 -0.82460386328633  2.93840425862586 -0.13333835773577
 6  0.62314354675468 -2.46836227452745 -1.45866794989499
 6  0.94586352015202 -1.10771072217222 -1.01641419671967
 6 -0.78909323442344 -2.64244813421342 -1.37962816221622
 6 -1.27975008120812 -1.44112775467547 -0.73913537943794
 6  3.83239118041804  1.48934341964196 -0.36119233563356
 6  2.51209190219022  0.79919125092509 -0.60559211781178
 6  2.16918392269227 -0.52822896869687 -0.81608385338534
 6  3.54084792169217  2.75977398559856  0.13059228632863
 6  1.60363151565157 -3.60866613241324 -1.89508970997100
 6 -5.46159549474948 -2.48206011561156  1.46099603960396
 6 -3.62359442234223 -1.82881794379438  0.00094387938794
 6  2.15732999319932  2.90092652085209  0.10284280728073
 6 -4.99045524182418 -1.50509601280128  0.40254889378938
 6  5.11622010011001  0.72476214621462 -0.38865192159216
 6 -2.65141610381038 -1.01129790139014 -0.47101751615162
 6 -1.48731666936694 -3.89002350465046 -1.90359360306031
 6 -4.55733320012001 -3.64219272497250  1.27575669026903
 6  1.92928340434043 -4.58302052175218 -0.80026288208821
 6  5.44594447074707 -0.15372143604360  0.78282638873887
 6  4.54550033623362  3.81424265556556  0.54420660446045
 6  1.36267750915091  4.06024043154315  0.25330545004500
 6 -6.92580371097110 -3.08962634243424  1.27202666876688
 6 -5.77321592409241 -0.49190392029203 -0.02636411081108
 6 -0.01995698469847  4.04992966456646  0.23758238383838
 6 -0.94232519421942  5.20604169716972  0.37997262586259
 6 -2.20591591779178  4.77788391119112  0.29618102100210
 6  2.93357619891989 -4.19546616571657  0.10207160616062
 6 -5.45295995679568  0.45414064266427 -1.15624669166917
 6  6.85793836003600 -0.68877716181618  0.80595371797180
 6 -3.47379313861386  5.44852115031503  0.36671748684869
 6 -2.11777521382138  3.22360455175518 -0.02129120432043
 6 -0.56888102560256  6.60567443544354  0.85358044784478
 6 -4.33695223212321  5.46111451635164 -1.04048482418242
 1 -0.45332289718972  0.33071877747775 -0.32318287158716
 1  3.10424443904390 -1.30285228732873 -0.98923843244324
 1  2.61106235713571 -3.24150885778578 -2.09079151385138
 1  1.13759053835384 -3.99877179477948 -2.70104247074707
 1 -5.44449625582558 -2.13931232033203  2.38320048054806
 1  5.23431374157416  0.07381209770977 -1.34132728572857
 1  6.07807977357736  1.40696500580058 -0.74766606620662
 1 -2.80573866956696 -0.04227973177318 -0.38745165076508
 1  0.47864419611961  1.86769795279528 -0.53720319241924
 1 -1.80728631983198 -4.51947405160516 -1.07972877857786
 1 -2.55663929362936 -3.57171487348735 -2.41415073527353
 1 -0.91415136623662 -4.44350252465247 -2.70808441144114
 1 -2.55582934073407 -3.47899404780478  0.62105935293529
 1  1.07637344404440 -5.03655613811381 -0.33927764526453
 1  2.46431561736174 -5.51516422492249 -1.30617513141314
 1  5.01292571357136 -1.12726877797780  0.64989557575758
 1  5.12424662426243  0.15540997759776  1.65350982168217
 1  4.59312683298330  4.55141560896090 -0.15176515921592
 1  5.55852247504751  3.30444316351635  0.72377890109011
 1  4.24592400980098  4.37527303540354  1.51732303620362
 1  1.93120895289529  5.07670760036004  0.62247203410341
 1 -7.78818158975898 -2.41367736223622  1.52879757375738
 1 -7.19050469476948 -3.99832759865987  2.05178754665467
 1 -7.33883206720672 -3.74018178167817  0.30301189038904
 1 -6.69395673737374 -0.36946727802780  0.47324925282528
 1 -5.05881072287229  1.33858805570557 -0.61659550765076
 1 -6.32180401010101  0.64929255755576 -1.63159983848385
 1 -4.93833232873287  0.04156100230023 -2.01288250095010
 1 -3.46174605390539  6.49535219101910  0.75252295629563
 1 -4.09006668416842  4.94040317251725  1.27804994279428
 1  0.05371993729373  6.64834679457946  1.82641537403740
 1 -1.35701708500850  7.36742343784378  0.81943119951995
 1  0.14944413201320  7.02727122762276 -0.04463812961296
 1 -3.85545584138414  5.96361224432443 -1.66691450755076
 1 -5.32688451155115  5.96660940194019 -0.80476561826183
 1 -4.33124764586459  4.37856934923492 -1.54645438383838
 1  3.52703801030103 -4.56474070427043  1.85194383138314
 1  8.11024826952695 -1.50547119941994  1.94815497809781

