%nproc=4
%Mem=4GB
# td=(NStates=1) B3LYP/SVP 

TD

0 1
 8 -4.34033415421542 -4.69350943214321  2.01118648224822
 8  2.83188378647865 -4.86943149234923  1.19764769656966
 8  7.12351273267327 -1.61187872897290  1.87288750925093
 8  3.58479021182118 -3.02597172237224  0.13739659805981
 8  7.65469422142214 -0.75437681698170 -0.08004757405741
 8 -3.10261058985899  2.43392078957896 -0.21046595119512
 7 -0.30269465116512 -0.53015236503650 -0.65429406560656
 7  1.57271495419542  1.79205158395840 -0.47318898099810
 7 -3.44161110411041 -3.13893294009401  0.63490196149615
 7 -0.79561096399640  2.89904032223222 -0.10817584148415
 6  0.66458769116912 -2.41200663896390 -1.45736781988199
 6  0.95730466426643 -1.01559151025103 -1.08115067036704
 6 -0.72306663176318 -2.66024991439144 -1.30096029542954
 6 -1.36299840604060 -1.43859750165017 -0.81997346324632
 6  3.88024596589659  1.49551403670367 -0.25623183958396
 6  2.57314800780078  0.89498082988299 -0.57986954555456
 6  2.30172717701770 -0.44111025682568 -0.97960020502050
 6  3.58013185008501  2.77617562576258  0.10093932103210
 6  1.61654280678068 -3.46473173897390 -1.92553275427543
 6 -5.55027436263626 -2.58343025262526  1.37475741574157
 6 -3.65618768166817 -1.84392945494549  0.18102188718872
 6  2.14843910411041  3.02730915911591  0.05355787878788
 6 -5.09222541884188 -1.52603810701070  0.40556919581958
 6  5.10625910401040  0.73612328232823 -0.37381043744374
 6 -2.69447040924092 -1.06840361196120 -0.50309072347235
 6 -1.50800873857386 -3.86573107540754 -1.58012125582558
 6 -4.43507097389739 -3.63940244594459  1.42579169376938
 6  1.94303477947795 -4.56174839453945 -0.90613346914691
 6  5.50535041134113 -0.16671273517352  0.79349745584558
 6  4.64714050025002  3.81692292359236  0.49929211301130
 6  1.26179742114211  4.14057846534653  0.12222234173417
 6 -6.95922705330533 -3.22044942474247  1.03994346044604
 6 -5.78114671717172 -0.57017174707471 -0.25787726212621
 6 -0.06563155215522  3.96496116771677  0.09745837143714
 6 -1.04648561026103  5.17222831583158  0.37223185178518
 6 -2.27983330953095  4.72173829662966  0.26812821572157
 6  2.80984382568257 -3.98413503260326  0.17325872487249
 6 -5.28285294609461  0.41972720132013 -1.15489655665567
 6  6.88979154535454 -0.81621990609061  0.78921204380438
 6 -3.60754651395139  5.33766006420642  0.53028384348435
 6 -2.17618105440544  3.12571476277628  0.00519144394439
 6 -0.40329446694669  6.40438430643064  0.90162525232523
 6 -4.29705824272427  5.70172857775778 -0.87459823552355
 1 -0.31654921982198  0.43303900950095 -0.38346890019002
 1  3.15438945354535 -0.96878888098810 -1.00293980258026
 1  2.58598984988499 -3.05822052895290 -2.26630906560656
 1  1.28431521082108 -4.04846676427643 -2.85462782928293
 1 -5.73473527972797 -2.08718710781078  2.29833199369937
 1  5.29709001920192  0.14166888338834 -1.32896604960496
 1  5.98170013561356  1.49589389868987 -0.49285058465847
 1 -2.80895899159916  0.06281077727773 -0.44146705230523
 1  0.65432176387639  1.85104628762876 -0.68388786088609
 1 -1.67548313951395 -4.64167627182718 -0.86135694139414
 1 -2.56768039773977 -3.84030173217322 -2.03905322552255
 1 -0.82047199829983 -4.49301747614761 -2.38272187518752
 1 -2.54045780358036 -3.67299344774477  0.62371961896190
 1  0.98392419911991 -4.90559304180418 -0.45359907740774
 1  2.49862904870487 -5.38206091459146 -1.54891940584058
 1  4.59875429642964 -0.78602465356536  1.01904249044904
 1  5.42220642024202  0.43596803340334  1.76584105480548
 1  4.62194971527153  4.58904937233723 -0.27179716241624
 1  5.72212883568357  3.69942266146615  0.18463498669867
 1  4.82472188958896  4.26695220332033  1.63771507540754
 1  1.52826865886589  5.11976190579058  0.36959674657466
 1 -7.61748452005201 -2.39337533203320  1.02341703570357
 1 -7.56307195149515 -3.82185995189519  1.95346771467147
 1 -6.99590777477748 -3.53223098659866  0.05601719091909
 1 -6.76225356705670 -0.51101143244324  0.19967189508951
 1 -4.79913475527553  1.36991118801880 -0.87603145124512
 1 -5.95293712341234  0.84352198049805 -1.86059273777378
 1 -4.59086758225823  0.01477832403240 -1.99004021672167
 1 -3.39000888018802  6.10806346214621  1.17514521852185
 1 -4.26514419191919  4.93247237943794  1.12136427422742
 1  0.40050461576158  6.28126008590859  1.72070480298030
 1 -1.19533091639164  7.07427412291229  0.98469772617262
 1  0.20937012461246  6.76439493999400 -0.00685435123512
 1 -3.68811910771077  6.38342422552255 -1.47719553565357
 1 -5.19612143524352  6.21641438243824 -0.88200334203420
 1 -4.83772829392939  4.89511100340034 -1.33795353375338
 1  3.60362566906691 -4.63653788398840  1.62996163316332
 1  8.04506175087509 -1.74004465676568  1.82753291589159

