%nproc=4
%Mem=4GB
# td=(NStates=1) B3LYP/SVP 

TD

0 1
 8 -4.60557067786779 -4.85416549774977  1.76339170277028
 8  3.14556515461546 -4.87509205840584  1.30944887668767
 8  7.05377575897590 -1.45627316841684  1.95131535203520
 8  3.77320905370537 -3.05611473667367 -0.05731287288729
 8  7.58477722972297 -0.28875025432543  0.07932836353635
 8 -3.10681100990099  2.53154055155516  0.00533562896290
 7 -0.34541892359236 -0.63890324012401 -0.69228786498650
 7  1.57088477117712  1.75964834363436 -0.59567122922292
 7 -3.51125806880688 -3.23783283008301  0.65812428372837
 7 -0.75673707660766  2.94608502670267 -0.15130015391539
 6  0.63306453885389 -2.54657009530953 -1.28593067616762
 6  0.85928486228623 -1.14162411351135 -0.92198475377538
 6 -0.75324965006501 -2.68095198459846 -1.28872907230723
 6 -1.31164327052705 -1.51230487238724 -0.72849431533153
 6  3.75415335663566  1.36466095139514 -0.51973819021902
 6  2.45830652365236  0.78362969476948 -0.75575713431343
 6  2.16031303560356 -0.60140628642864 -0.87365961096110
 6  3.57120095699570  2.76679468766877 -0.14285505840584
 6  1.68248940144014 -3.56311157695770 -1.75618581958196
 6 -5.73982331753175 -2.70112202180218  1.27828776877688
 6 -3.63291535443544 -1.94137919991999  0.13521730673067
 6  2.11304556475648  2.91700812901290 -0.21073855085509
 6 -5.08294449074907 -1.54130963416342  0.49526816571657
 6  5.12867134523452  0.63260293029303 -0.46841989838984
 6 -2.67225818801880 -1.12915968756876 -0.41826224062406
 6 -1.57177511521152 -3.90768527082708 -1.74711795549555
 6 -4.63343080988099 -3.72902140784078  1.18757787238724
 6  2.03597407340734 -4.68874109380938 -0.87392024782478
 6  5.51382125842584 -0.03710977487749  0.95625373147315
 6  4.66018180438044  3.69137036833683  0.32310449424942
 6  1.40901214261426  4.05231963946395  0.08994911441144
 6 -7.06198732933293 -3.20512789258926  0.98266773287329
 6 -5.74374297679768 -0.55575030493049 -0.08269974437444
 6 -0.05897088608861  4.04584925652565  0.18855748134813
 6 -0.90319128082808  5.23838493149315  0.52458708730873
 6 -2.16489181538154  4.82131825462546  0.32840424332433
 6  3.10563340464046 -4.06802342144214  0.16379777877788
 6 -5.33682834363436  0.60151538013801 -1.13760482748275
 6  6.78384095029503 -0.60764904900490  0.91657478007801
 6 -3.48985474477448  5.44530082828283  0.49866068116812
 6 -2.09556299259926  3.40961315261526  0.00697162196220
 6 -0.34596873437344  6.60622449044905  0.78425351515152
 6 -4.20696923382338  5.88758716361636 -0.72892366806681
 1 -0.35346291119112  0.39719542514251 -0.24218477177718
 1  2.92804681928193 -1.28521052315231 -1.19942945154515
 1  2.56692794369437 -3.13270797769777 -2.12447488218822
 1  1.18080485978598 -3.80109202680268 -2.79032139863986
 1 -5.62785459165917 -2.41502989208921  2.36267842834283
 1  5.03987429762976 -0.40480576407641 -0.99082223522352
 1  5.74363632923292  1.28850315961596 -0.89598089768977
 1 -2.94120221592159 -0.07458296209621 -0.36304921052105
 1  0.50265659735974  1.83885506850685 -0.74952442454245
 1 -1.74190978217822 -4.55171727592759 -0.85715652135214
 1 -2.59484311401140 -3.48147584958496 -2.03169248944895
 1 -1.24945489658966 -4.42413058745875 -2.54131773477348
 1 -2.61691544934493 -3.56543269166917  0.76119336633663
 1  1.15197100380038 -5.26051853435344 -0.40210392789279
 1  2.53504269006901 -5.48688139663966 -1.41308582248225
 1  4.63548796979698 -0.84215026612661  1.34384497069707
 1  5.43241744134413  0.52538697529753  1.66281075177518
 1  4.34533205350535  4.88427889528953  0.04281429872987
 1  5.81713833663366  3.52096481568157 -0.09238271507151
 1  4.56314573197320  3.63547905600560  1.58164946884688
 1  1.85344117611761  4.82869279887989  0.67923771067107
 1 -7.97346011761176 -2.57502349684969  1.39782447644764
 1 -7.20910655495550 -4.22225999189919  1.55342771067107
 1 -7.14408259225923 -3.48273603710371 -0.11556996779678
 1 -6.82994033573357 -0.65153548484848  0.28575050295030
 1 -4.86638147994799  1.44939913681368 -0.56353020112011
 1 -6.33119494919492  0.83933156145614 -1.65915259375938
 1 -4.67669616511651  0.12949979617962 -1.82114332703270
 1 -3.32259213851385  6.54921757755776  1.10919862386239
 1 -4.04131180868087  4.69704883708371  1.08340047784779
 1  0.42310687598760  6.64672663256326  1.39240197269727
 1 -1.21970335363536  7.22183887938794  1.16187544394439
 1  0.05883507110711  6.91103960446045 -0.14854852065207
 1 -3.47625792159216  6.49546542964296 -1.34147196329633
 1 -5.09689151225122  6.38687142814281 -0.40834597629763
 1 -4.61115563666367  4.98115960826083 -1.23735347374737
 1  3.73624893139314 -4.30599482968297  1.86373501050105
 1  8.00139738443844 -1.71819247154715  1.86727689028903

