%nproc=4
%Mem=4GB
# td=(NStates=1) B3LYP/SVP 

TD

0 1
 8 -4.48152827362736 -4.80768084928493  1.81939730333033
 8  2.96132673077308 -5.01916646584658  1.08544647644764
 8  7.01625200660066 -1.42283982508251  2.07979820032003
 8  3.62722445524552 -3.16220534573457 -0.02824996659666
 8  7.68283703570357 -0.41974335363536  0.10882131283128
 8 -3.06069639843984  2.43976137363736 -0.30568547314731
 7 -0.29300368206821 -0.58151750155016 -0.51237987418742
 7  1.62661034373437  1.77569994879488 -0.33467512961296
 7 -3.34529147214721 -3.20436948374837  0.66733520482048
 7 -0.78543994689469  2.93777419561956 -0.10994601850185
 6  0.62636386878688 -2.42080751905191 -1.41967405050505
 6  0.90349928372837 -1.09116906800680 -0.99064161946195
 6 -0.85518984408441 -2.54963885328533 -1.39692989238924
 6 -1.33866597279728 -1.39484312621262 -0.68751021692169
 6  3.84471241254125  1.42549703500350 -0.35318153455346
 6  2.53291398439844  0.75432676447645 -0.58923048164816
 6  2.20533753805381 -0.57974412021202 -0.81809405440544
 6  3.60159399629963  2.72925093329333  0.02470169726973
 6  1.59935108760876 -3.44287955375538 -1.99419962096210
 6 -5.53077241244124 -2.57687959755976  1.43603354335434
 6 -3.64302636553655 -1.85628069006901  0.23902768776878
 6  2.19931419161916  2.91288771697170 -0.02845032203220
 6 -5.01606780308031 -1.53630913411341  0.57702634153415
 6  5.11861033913391  0.64680435043504 -0.40614367076708
 6 -2.67233819601960 -1.01839861146115 -0.34577499189919
 6 -1.59657759545955 -3.73095759805981 -1.91075431913191
 6 -4.39643711051105 -3.71616012171217  1.33540265486549
 6  2.00150062606261 -4.60315253495350 -1.05347820362036
 6  5.34680455675568 -0.17155321922192  0.88444655075508
 6  4.61272705890589  3.78708994029403  0.43652583638364
 6  1.41505274667467  4.11692610011001  0.17642776227623
 6 -6.95361649224922 -3.19279665946595  1.12460192629263
 6 -5.84254285678568 -0.64866959685969 -0.00909238363836
 6 -0.03615860486049  4.00904557615762  0.04951357695770
 6 -0.93990495219522  5.18995008800880  0.40253488208821
 6 -2.24501982818282  4.72414853765377  0.28555995889589
 6  2.92141498279828 -4.16554317341734  0.02056345534553
 6 -5.57204186498650  0.56346157475748 -0.97817888488849
 6  6.90011257745775 -0.70205848994899  0.96969009160916
 6 -3.53069882918292  5.35894219241924  0.41738255335534
 6 -2.12784622092209  3.21443363466347 -0.09247832303230
 6 -0.52760689818982  6.65055892389239  0.55952104190419
 6 -4.14102263916392  5.72344074897490 -0.91243201890189
 1 -0.31102866776678  0.23512921852185 -0.20245079837984
 1  3.01081509610961 -1.27472947504750 -0.93390289888989
 1  2.59339058995900 -2.91513622052205 -2.44824725942594
 1  1.11976875617562 -3.88673059065907 -2.85516788328833
 1 -5.46688849504950 -2.34967335643564  2.56806896739674
 1  5.21888219841984 -0.04065934943494 -1.13271642464246
 1  5.95683764936494  1.53598790809081 -0.63032433203320
 1 -3.09668776447645 -0.01716722052205 -0.45395830143014
 1  0.55934226592659  1.83844502750275 -0.39255872797280
 1 -1.40830642184218 -4.74821692589259 -1.33430423612361
 1 -2.75087871757176 -3.58546624862486 -1.96467578777878
 1 -1.19036898799880 -4.04287246164616 -2.95040864386439
 1 -2.49631338913891 -3.62380852925293  0.65641288828883
 1  1.05853165986599 -4.94556703920392 -0.62104582208221
 1  2.53247243304330 -5.38762147064707 -1.59033354725473
 1  4.75102952395240 -0.96753280438044  0.79201978817882
 1  5.18506270587059  0.48731316791679  1.88072254295430
 1  4.74118163846385  4.69472994039404 -0.30167014971497
 1  5.54821144394440  3.45089780898090  0.45188171137114
 1  4.41180059745975  4.16237174527453  1.48767007090709
 1  1.93818965096510  4.94873480308031  0.43450323722372
 1 -7.96031880348035 -2.59575557005701  1.34794948894890
 1 -6.97209285358536 -3.98831659755976  1.87314968286829
 1 -7.01700988498850 -3.71914967846785  0.22828441764176
 1 -6.93285062676268 -0.68289862116212  0.26890881878188
 1 -5.06906174797480  1.46946114301430 -0.48318216631663
 1 -6.50101193089309  0.72876050435044 -1.64825150365037
 1 -4.65122361786179  0.32325917211721 -1.71045225792579
 1 -3.56915679497950  6.25659831563156  1.17403510751075
 1 -4.28560623812381  4.65567469966997  0.76251838963896
 1 -0.00088552325232  6.70969292919292  1.50469320182018
 1 -1.31508289158916  7.47819451495150  0.54126338273827
 1  0.08395758335834  6.88650715121512 -0.20332399819982
 1 -3.19382967876788  6.30714659775978 -1.49462727882788
 1 -4.97353917701770  6.34417715871587 -0.73044818651865
 1 -4.48757327842784  4.93185467776778 -1.50305004340434
 1  3.60617592409241 -4.65834006420642  1.63743238023802
 1  7.90873811851185 -1.79394004630463  1.96396655925593

