%nproc=4
%Mem=4GB
# td=(NStates=1) B3LYP/SVP 

TD

0 1
 8 -4.49447956875688 -4.76606668786879  1.89989535313531
 8  3.13008360646065 -4.86209075827583  1.25747367916792
 8  7.02452283368337 -1.54535207630763  1.97905812631263
 8  3.84348608140814 -3.20466959215922 -0.08824596619662
 8  7.62588134013401 -0.58922030133013  0.00709113981398
 8 -3.02188251705170  2.42642003950395 -0.13157806240624
 7 -0.28408278997900 -0.56136548634863 -0.76275491169117
 7  1.55785346804680  1.86720909970997 -0.57722938503850
 7 -3.45548249124912 -3.20123917071707  0.55490396169617
 7 -0.78331973487349  2.95221563976398 -0.11391641554155
 6  0.65016624902490 -2.54977041534153 -1.38819090219022
 6  0.89657859165917 -1.15634558565857 -1.06931948724873
 6 -0.75361968706871 -2.65679956935694 -1.24466466586659
 6 -1.35312741894189 -1.38923256515652 -0.78834029992999
 6  3.79177711901190  1.41720620592059 -0.31705792219222
 6  2.53923461646165  0.90657198899890 -0.59162072067207
 6  2.16475347964797 -0.51394754055406 -0.88570081508151
 6  3.54394823172317  2.81138914711471 -0.02970374327433
 6  1.59844099659966 -3.52612787858786 -1.90219042004200
 6 -5.57800713591359 -2.49614152375238  1.33798373837384
 6 -3.68296035893589 -1.80902596459646  0.07822160716072
 6  2.13678793899390  3.00194662286229 -0.15445292229223
 6 -5.05812200850085 -1.46629213241324  0.51859049794979
 6  5.09586806490649  0.59856952695270 -0.23382643904390
 6 -2.70017097929793 -1.05138190979098 -0.42314272867287
 6 -1.58474641234123 -3.85206970927093 -1.74953819751975
 6 -4.51926939373937 -3.65619412511251  1.28216733133313
 6  2.04603507950795 -4.56057827752775 -0.91276413221322
 6  5.45061493779378 -0.24131019491949  0.94210231633163
 6  4.60009579577958  3.91058228952895  0.40676286008601
 6  1.40050129152915  4.13481788928893  0.08114823432343
 6 -6.91371250185018 -3.08001538133813  1.15255472157216
 6 -5.84703330583058 -0.51552628252825 -0.04967644204420
 6 -0.03204819381938  4.09019369096910  0.10324895049505
 6 -0.98496945864586  5.15109620262026  0.45671029962996
 6 -2.25807113331333  4.69141526432643  0.30169157205721
 6  3.13976681798180 -4.10497711681168  0.10638203720372
 6 -5.48282294309431  0.56153138173817 -1.08209927692769
 6  6.78465103130313 -0.80353863796380  0.87306042864286
 6 -3.57621338063806  5.21856815501550  0.47745856095610
 6 -2.05739917621762  3.27774996629663 -0.07670674587459
 6 -0.53775791329133  6.60030389838984  0.81214630443044
 6 -4.29711824872487  5.60050845574558 -0.85352612831283
 1 -0.29070663556356  0.25673137873787 -0.23874442774277
 1  2.93221723632363 -1.39556155825583 -0.99914942354235
 1  2.51554280518052 -3.24804951185118 -2.28895132983298
 1  1.27429420872087 -4.01777369496950 -2.91779414591459
 1 -5.43405521172117 -2.33678206730673  2.40056221672167
 1  5.31270158035804 -0.26547183068307 -1.13029618261826
 1  5.89365133073307  1.36418072737274 -0.22207350695070
 1 -2.69594769046905  0.01522601880188 -0.32236514211421
 1  0.38577490919092  1.89751093409341 -0.65029450155016
 1 -1.38770436163616 -4.69675177937794 -1.16776758245825
 1 -2.60084371407141 -3.28275597759776 -1.81171049124912
 1 -1.21261121222122 -4.16966514091409 -2.68573217621762
 1 -2.48055181298130 -3.48140428882888  0.67608485548555
 1  1.24879068576858 -4.99663214571457 -0.11790550805080
 1  2.45908509430943 -5.55997870637064 -1.34048856275628
 1  4.72282670367037 -1.17870392149215  0.96865745194519
 1  5.33430763036304  0.47443187978798  1.86981145184518
 1  4.50175769606961  4.74822528992899 -0.16982696539654
 1  5.55570219301930  3.55630835003500  0.37471399459946
 1  4.16952637003700  4.07929343744374  1.41882318621862
 1  2.06278211021102  5.04743467306731  0.38854864176418
 1 -7.75978875047505 -2.45828182268227  1.61495618961896
 1 -7.10117576187619 -4.17291505740574  1.56766913481348
 1 -7.22749093309331 -3.25763352685269  0.05698728792879
 1 -6.82581992369237 -0.53092342364236  0.17763969186919
 1 -5.10387522932293  1.58804300120012 -0.64852870097010
 1 -6.36269809950995  0.78627625592559 -1.69073575207521
 1 -4.89879837533753  0.16716356255626 -1.96709792249225
 1 -3.53938381768177  6.29921257705771  0.91520922492249
 1 -4.43773145064507  4.80129926212621  1.00581271907191
 1  0.15410997629763  6.34885684558456  1.78880161266127
 1 -1.44327571087109  7.22598929442944  1.11393064946495
 1  0.17976716431643  7.27864636513651  0.20915724992499
 1 -3.75094539033903  6.64229011211121 -1.16948476457646
 1 -5.25634745784578  5.96285902690269 -0.69505464716472
 1 -4.04636915801580  4.91102259455946 -1.63957369576958
 1  3.64915022152215 -4.41902613281328  1.89640827782778
 1  7.95641288598860 -2.06681733403340  1.80551071367137

