%nproc=4
%Mem=4GB
# td=(NStates=1) B3LYP/SVP 

TD

0 1
 8 -4.46766688748875 -4.71568164936494  1.96889225282528
 8  2.83251384948495 -4.92213676287629  1.22846077787779
 8  7.12527290869087 -1.59132667376738  1.77699792029203
 8  3.72581431423142 -3.26638576377638  0.17667052545255
 8  7.55390414241424 -0.63853523282328 -0.22475204450445
 8 -3.10970129892989  2.56239363686369 -0.15678058265827
 7 -0.25677005870587 -0.57702705250525 -0.62507114331433
 7  1.50569825252525  1.81576395519552 -0.30809247134713
 7 -3.41162810581058 -3.13271231803180  0.67193566486649
 7 -0.83205460836084  2.91183160136014 -0.00630565446545
 6  0.71163239563956 -2.45397083538354 -1.34736681978198
 6  0.99010794459446 -1.17026697779778 -0.87790034533453
 6 -0.66768109320932 -2.62745663506351 -1.31450164956496
 6 -1.28079018521852 -1.47571121302130 -0.82305377127713
 6  3.77832577387739  1.50623510881088 -0.28395461186119
 6  2.48873956695670  0.87321865366537 -0.51888344694469
 6  2.26610361466147 -0.46406255205521 -0.75607785278528
 6  3.51118495539554  2.78867687588759  0.05300452755276
 6  1.63275442794279 -3.44831009680968 -1.92579278027803
 6 -5.48251758695870 -2.52780469006901  1.41577151715172
 6 -3.65567763066307 -1.81610667266727  0.08188197319732
 6  2.01759601980198  2.98541496969697  0.05683820682068
 6 -4.92711890819082 -1.44539004220422  0.42288092699270
 6  5.14504298239824  0.82054172417242 -0.35352840924092
 6 -2.62622358455846 -1.09369614121412 -0.47345776017602
 6 -1.40834877257726 -3.84890939323932 -1.86205944964496
 6 -4.46279374617462 -3.66615512121212  1.33252236683668
 6  2.01600207620762 -4.56953917361736 -0.97860071587159
 6  5.46006588288829 -0.22158822272227  0.81107921402140
 6  4.48059384558456  3.79063029432943  0.38916109990999
 6  1.19447068846885  4.12486689418942  0.32717283678368
 6 -6.96044717531753 -3.12364974477448  1.10977044314431
 6 -5.66049465196520 -0.44703943384338 -0.06375785018502
 6 -0.14458944794479  3.97931260286029  0.22039066466647
 6 -0.97195815751575  5.21333242624262  0.50350497909791
 6 -2.27423274947495  4.85770189298930  0.21009241214121
 6  2.90593343464346 -4.16604322342234  0.14650604960496
 6 -5.27124178497850  0.57038226682668 -1.14856592359236
 6  6.76320888708871 -0.86694497859786  0.72757588018802
 6 -3.59961572087209  5.44808110631063  0.35863667876788
 6 -2.20205364166417  3.32084427572757 -0.06316539173917
 6 -0.44335847334733  6.54530839883988  0.82629771957196
 6 -4.27855639253925  5.33993239813981 -1.14450522622262
 1 -0.34037160206021  0.27310301590159 -0.23259381268127
 1  2.91814582918292 -1.14591659375938 -1.08830833943394
 1  2.50088133903390 -2.98168287518752 -2.38651108580858
 1  1.40199697899790 -3.88491040864086 -2.95083745024502
 1 -5.63339514571457 -2.21118950805080  2.34798695919592
 1  5.40064037423742  0.33359807630763 -1.24359751275128
 1  5.83106507210721  1.65298960826083 -0.46965826542654
 1 -3.00202829852985 -0.12906841064106 -0.56851975757576
 1  0.33784011571157  1.66093727672767 -0.48339781188119
 1 -1.32166775797580 -4.91195329952995 -1.31082188788879
 1 -2.47354098379838 -3.86358406040604 -2.33458277847785
 1 -0.79543949504950 -4.12949112351235 -2.93814741774177
 1 -2.54298805660566 -3.53446959535954  0.52532977997800
 1  1.14873067976798 -5.00031251375137 -0.57211092859286
 1  2.62999218501850 -5.31799450795079 -1.53471798569857
 1  4.67622204320432 -0.98975502660266  0.88760934713471
 1  5.34301850145015  0.36721115771577  1.87764223492349
 1  4.66931445174518  4.72080254765477 -0.24884486718672
 1  5.68350497329733  3.26221894109411  0.53941046424642
 1  4.07468688608861  4.06595210331033  1.49713101700170
 1  1.61910774277428  5.31259118871887  0.58840862776278
 1 -7.87403017461746 -2.43274926942694  1.40750544454446
 1 -7.01743738803880 -4.12370013591359  1.88943131103110
 1 -7.10693887788779 -3.43588135163516 -0.02333074387439
 1 -6.81592893459346 -0.30831116241624  0.30588251615162
 1 -4.42787762956296  1.19479367626763 -0.80564441254125
 1 -6.22872470217022  1.22713034133413 -1.45875255375538
 1 -4.92698119361936 -0.18835198899890 -2.08669988268827
 1 -3.31895177447745  6.55472812861286  0.52173987798780
 1 -4.03755143264326  4.91095022722272  1.20556269406941
 1  0.42929749504951  6.46445840574057  1.65413814631463
 1 -1.17335871917192  7.25467216271627  1.06759601600160
 1  0.03633282088209  6.94657315781578  0.02358869306931
 1 -3.86168646444644  6.08693457655766 -1.87647546364636
 1 -5.30609243234323  5.80237297829783 -1.23237837953795
 1 -3.98647316841684  4.24138563086309 -1.30563030143014
 1  3.58521382788279 -4.69651388158816  1.76600523752375
 1  8.04799204390439 -1.94379503180318  1.54735489808981

