%nproc=4
%Mem=4GB
# td=(NStates=1) B3LYP/SVP 

TD

0 1
 8 -4.58703882468247 -4.58246832803280  1.96262162576258
 8  3.03344394249425 -4.85213976317632  1.40329826162616
 8  7.10247062846285 -1.49948748984898  1.78011823232323
 8  3.77451918471847 -3.24110323552355  0.14555741414141
 8  7.74558331033103 -0.42915429472947 -0.15327489678968
 8 -3.05044537333733  2.53324072157216 -0.29406431103110
 7 -0.33148753045305 -0.55248459825983 -0.63906254245425
 7  1.56313399609961  1.77514989378938 -0.25903756585659
 7 -3.45796273927393 -3.11323036983698  0.52275074637464
 7 -0.81374277717772  2.97900831903190 -0.02977800170017
 6  0.63825505790579 -2.51340677897790 -1.29762184528453
 6  0.91990092389239 -1.19270922202220 -0.96750930623062
 6 -0.75732005710571 -2.71574546394640 -1.25298549794979
 6 -1.30623272947295 -1.50884452635264 -0.86342780868087
 6  3.79851779307931  1.36976146144614 -0.39452566896690
 6  2.46928762176218  0.78230956275628 -0.54403596219622
 6  2.17203420772077 -0.51852799859986 -0.88528077307731
 6  3.64066790369037  2.75394340254025 -0.00576134903490
 6  1.59542069456946 -3.53714898069807 -1.76827702870287
 6 -5.49094843004300 -2.50650255985599  1.42768270827083
 6 -3.65499756265627 -1.85060012201220 -0.03076929192919
 6  2.17135139533953  2.97514394259426  0.06113863686369
 6 -5.03867006330633 -1.50861636483648  0.30727936683668
 6  5.05212369046905  0.67332700270027 -0.50111316771677
 6 -2.72561352355236 -1.06429320092009 -0.67746816121612
 6 -1.52214015171517 -4.02168667096710 -1.83104634833483
 6 -4.50309777657766 -3.56611511721172  1.33556267086709
 6  2.06109658565857 -4.60545276497650 -0.84721757755776
 6  5.43158303460346 -0.12292835673567  0.79705781188119
 6  4.58238402460246  3.75105633693369  0.30442262606261
 6  1.36355759715972  4.08683309080908  0.21428154765477
 6 -6.93460459105911 -3.08367574737474  1.24215368146815
 6 -5.84468307080708 -0.56959168906891 -0.28492996739674
 6 -0.12013700270027  4.02664733633363  0.32369099469947
 6 -0.93332429412941  5.21089218221822  0.54653928252825
 6 -2.19638496469647  4.76902302510251  0.37277868076808
 6  3.02797563886389 -4.17187380648065  0.24768616761676
 6 -5.51229589038904  0.38130335893589 -1.39025009200920
 6  6.85748831503150 -0.71962024612461  0.70281340394039
 6 -3.58597435673567  5.46968326652665  0.46539735483548
 6 -2.12791622792279  3.30976316761676 -0.02672174737474
 6 -0.53718785628563  6.55075894389439  1.13085817561756
 6 -4.24727326422642  5.59338774367437 -0.84021479717972
 1 -0.56367393229323  0.38272397799780 -0.42833338663866
 1  2.82179619421942 -1.26725872797280 -1.21331083968397
 1  2.55925717661766 -3.22328703560356 -2.09219165386539
 1  1.14042082138214 -4.07319923752375 -2.74098646514652
 1 -5.44648645484548 -2.07566595569557  2.42492465296530
 1  5.26892720292029  0.01307602410241 -1.35538869186919
 1  5.87314928052805  1.35467977727773 -0.44924622422242
 1 -2.82747084278428 -0.09288479227923 -0.75880878647865
 1  0.76049238093809  1.86568775177518 -0.70773024512451
 1 -1.79994558575858 -4.70087219141914 -1.08195900160016
 1 -2.45734936463646 -3.77683538553855 -2.39280860106011
 1 -0.89184913601360 -4.40824899929993 -2.63652725572557
 1 -2.48852261006101 -3.55240138853885  0.59263651065107
 1  1.30125593229323 -5.16485896839684 -0.30059377687769
 1  2.50359954575458 -5.38438114661466 -1.54388890279028
 1  4.83825824682468 -0.91501755285528  0.96376696289629
 1  5.30233443304331  0.43407784438444  1.69710418111811
 1  4.40774829512951  4.86031649904991 -0.34631461416142
 1  5.59115573837384  3.56076879607961 -0.02287576437644
 1  4.21108052545254  4.02244775287529  1.30833213711371
 1  2.02159799179918  5.03589351895190  0.41079086598660
 1 -7.62047481908191 -2.37661365586559  1.72553724772477
 1 -6.87840348464846 -4.05942370827083  1.79001136903690
 1 -7.30415859985999 -3.44661242474247  0.20697228642864
 1 -6.99732707440744 -0.70731106240624  0.01157308520852
 1 -5.17220206200620  1.33047724462446 -1.04855870397040
 1 -6.25880771047105  0.62467009530953 -2.17764444294429
 1 -4.75501399689969  0.06227307350735 -2.24371558425843
 1 -3.53960383968397  6.42155481128113  0.97673537753775
 1 -4.06218389588959  4.88682781498150  1.05499763756376
 1  0.06908147344734  6.35398735863586  1.99387211971197
 1 -1.43447483078308  7.13507020252025  1.15041429782978
 1  0.16892608020802  7.30281878237824  0.41727806200620
 1 -3.81725202100210  6.36637252035204 -1.53402121822182
 1 -5.35329715281528  5.94501724272427 -0.70134527622762
 1 -4.40383490459046  4.50284177647765 -1.16628636703670
 1  3.78758406490649 -4.52129635983598  1.78222685968597
 1  7.94010125482548 -1.90355100740074  1.77736789938994

