%nproc=4
%Mem=4GB
# td=(NStates=1) B3LYP/SVP 

TD

0 1
 8 -4.45483560436044 -4.48417849904990  2.03827919151915
 8  2.89822042014201 -4.91430597979798  1.48669660146015
 8  7.27290767216722 -1.28634617571757  1.87920814131413
 8  3.72546427922792 -3.25521464666467  0.09944280268027
 8  7.60675942794279 -0.77879925922592 -0.43617318661866
 8 -3.11909223802380  2.48791618911891 -0.10574547914791
 7 -0.32917729942994 -0.68784813461346 -0.64183281948195
 7  1.52791047374737  1.78097047584758 -0.25310697279728
 7 -3.47993493649365 -3.05956500330033  0.56091456275628
 7 -0.74456585948595  2.96514693289329  0.03996897299730
 6  0.65029626202620 -2.53998943724372 -1.27722980608061
 6  0.90492942674267 -1.20524047514751 -0.93305586088609
 6 -0.77826215131513 -2.67870175957596 -1.27654785418542
 6 -1.35667777397740 -1.56005964786479 -0.86738820472047
 6  3.88655659695970  1.46148063336334 -0.38118433483348
 6  2.49276996999700  0.79974130593059 -0.58546010461046
 6  2.14307131143114 -0.48522466826683 -0.86291853685369
 6  3.56295013191319  2.69017702590259 -0.01175194809481
 6  1.62745389788979 -3.59191445724572 -1.77785798679868
 6 -5.59097843304330 -2.55702761236124  1.26112605260526
 6 -3.66925898879888 -1.73626868886889  0.02943672867287
 6  2.15694995519552  2.95637206540654  0.04565708870887
 6 -5.11691788808881 -1.43529903310331  0.26224486338634
 6  5.16317479557956  0.67270694069407 -0.44525758215822
 6 -2.69181014321432 -1.03663043464346 -0.63863427782778
 6 -1.53364130183018 -3.78976347864786 -1.93848709240924
 6 -4.42194966176618 -3.59125763146315  1.38157727232723
 6  2.02173264926493 -4.68791101080108 -0.67493034883488
 6  5.50984086038604 -0.11419748364836  0.81402950905091
 6  4.53848963516352  3.91181241254125  0.18181036483648
 6  1.33252449384938  4.14364877237724  0.29306942644264
 6 -6.86103723432343 -3.38540592039204  0.88775824192419
 6 -5.89004760726073 -0.50504523442344 -0.34255572997300
 6 -0.04714970397040  4.10561523312331  0.29060768636864
 6 -1.04836579827983  5.24333542654265  0.58396302490249
 6 -2.28407373357336  4.67318344114411  0.34473587648765
 6  3.03544638593859 -4.23678029712971  0.38486988598860
 6 -5.45974063486349  0.54798002660266 -1.33502456945695
 6  6.97696026222622 -0.70893917801780  0.62224534713471
 6 -3.54206996629663  5.36934323252325  0.50563137823782
 6 -2.12029546584658  3.27712990429043  0.04922584738474
 6 -0.58155229272927  6.55286915491549  0.99671476127613
 6 -4.18997753465346  5.61844024892489 -0.82405318101810
 1 -0.39239680458046  0.28052375797580 -0.37465801910191
 1  2.89550356495650 -1.09851185328533 -1.03032254085409
 1  2.59914116501650 -3.20023473037304 -2.06178861356136
 1  1.29874665396540 -4.38329024662466 -2.56930929742974
 1 -5.82194400060006 -2.18838722782278  2.38260042054205
 1  5.06223653385339  0.10230494699470 -1.41301445444544
 1  5.88209017461746  1.42510681998200 -0.48752005160516
 1 -2.80528862456246  0.03709820602060 -0.60562346794679
 1  0.70936726842684  1.94187537053705 -0.26874634673467
 1 -1.96901249244924 -4.58150025422542 -1.04283508920892
 1 -2.48137176687669 -3.39459716171617 -2.63040236043604
 1 -0.83495344644464 -4.39733790819082 -2.67864146714671
 1 -2.39947370517052 -3.38495464386439  0.79501674867487
 1  0.99403521022102 -5.00725320782078 -0.17992170967097
 1  2.69565875167517 -5.46736944544454 -1.17345185908591
 1  4.98771319231923 -1.00562661376138  0.88821940814081
 1  5.44396859645965  0.39641407800780  1.84857932863286
 1  4.31874939523952  4.82117258465847 -0.32453243594359
 1  5.42943956675668  3.69944266346635 -0.33194667146715
 1  4.69947936533653  4.24261977007701  1.34405570947095
 1  1.86280211221122  5.05560549014901  0.42744253115312
 1 -7.73321609320932 -2.78443443794379  0.78352304630463
 1 -6.99678532283228 -4.03285105100510  1.68338070597060
 1 -6.75737392139214 -3.85578334183418 -0.25305371617162
 1 -6.87830517221722 -0.30140047134714  0.08788071597160
 1 -5.26250109190919  1.49506370327033 -0.71566541464146
 1 -6.41113294299430  0.77061468976898 -2.04085076357636
 1 -4.61459995549555  0.12520936713671 -1.70405161786179
 1 -3.62427230653065  6.23050570637064  1.12636034003400
 1 -4.28446612411241  4.66710584278428  0.96588872667267
 1 -0.01890732543254  6.56750871077108  1.95511824432443
 1 -1.43273465676568  7.41220791629163  0.65091434783478
 1  0.18387757535754  6.92676117661766  0.29280561476148
 1 -3.77292758855886  6.37634351745174 -1.34134195029503
 1 -5.23187501060106  6.01881462246225 -0.59065420712071
 1 -4.20107462856286  4.73770526282628 -1.28776851525153
 1  3.65534084058406 -4.64263849404940  1.97305594259426
 1  8.18506575127513 -1.65049570187019  1.50443060566057

