%nproc=4
%Mem=4GB
# td=(NStates=1) B3LYP/SVP 

TD

0 1
 8 -4.53630375117512 -4.54733481468147  2.03544890849085
 8  3.10643124122412 -4.88141269046905  1.24655258705871
 8  6.70943132453245 -1.73832137323732  1.73907412791279
 8  3.70387212001200 -3.06276540174017 -0.00432757435744
 8  7.60594934693469 -0.66949832913291 -0.03922349164916
 8 -2.97173750255025  2.33990138763876 -0.23499840444044
 7 -0.27667204890489 -0.57950730053005 -0.76622525872587
 7  1.47645532823282  1.82265464426443 -0.19417107920792
 7 -3.48553549654965 -3.12207125392539  0.62261073237324
 7 -0.68046944984498  2.86601701990199 -0.11426645054505
 6  0.72929416181618 -2.53860929922992 -1.33500558365837
 6  1.02475140894089 -1.10955090619062 -1.02101465676568
 6 -0.76112043714371 -2.75704959435944 -1.22708290769077
 6 -1.28782088828883 -1.56661030293029 -0.79560102600260
 6  3.77882582388239  1.49567405270527 -0.38621483788379
 6  2.52318301130113  0.78953028482848 -0.69119067766777
 6  2.26752375667567 -0.50376652245225 -1.01153339833983
 6  3.57290112701270  2.76470447864786  0.11056028312831
 6  1.70156130863086 -3.50577584338434 -1.89207940894089
 6 -5.54385372057206 -2.47220913051305  1.27619755975598
 6 -3.58391045394539 -1.84714977697770  0.02331611661166
 6  2.05770003020302  2.97106353455346  0.08217074007401
 6 -5.00228642494249 -1.47171267446745  0.25589422832283
 6  5.06555503360336  0.77961763176318 -0.50347340374037
 6 -2.61001196339634 -1.07519429102910 -0.58787920232023
 6 -1.41042898059806 -3.94622912521252 -1.78823206690669
 6 -4.51812927972797 -3.55457396309631  1.42849196379638
 6  2.09594007000700 -4.52387460716072 -0.86351920772077
 6  5.32214209050905 -0.02399846374637  0.75959406550655
 6  4.57259304550455  3.90635186648665  0.37935011881188
 6  1.28915015641564  4.04026843434343  0.46988710821082
 6 -6.97978910951095 -2.93800117991799  1.35208467456746
 6 -5.66110471297130 -0.41976670657066 -0.18362983738374
 6 -0.08661365036504  3.98973364496450  0.29082770837084
 6 -1.08335929762976  5.05517661066107  0.61224585318532
 6 -2.28534386058606  4.64779090189019  0.39253065596560
 6  3.02065490679068 -4.01964858395840  0.16326772577258
 6 -5.25760042084208  0.50235546414641 -1.27312837983798
 6  6.69014158035804 -0.80993927802780  0.76108923152315
 6 -3.61552731203120  5.34070036823682  0.49485030013001
 6 -2.12592602890289  3.12976516781678  0.01848277307731
 6 -0.67595173267327  6.50925479347935  0.78805389518952
 6 -4.15520405730573  5.52689109400940 -0.98978975467547
 1 -0.46435400030003  0.35251095669567 -0.19618017131713
 1  3.12711672627263 -1.19520152225223 -1.29708921752175
 1  2.52717396829683 -2.85368007490749 -2.23837627232723
 1  1.16468324762476 -4.32415433303330 -2.55061742824282
 1 -5.37894970117012 -1.97178556765677  2.22583474397440
 1  5.07759807000700  0.10587530403040 -1.30042319531953
 1  5.95436740234023  1.43684799409941 -0.68953025262526
 1 -2.78904700040004  0.15464996119612 -0.59996290189019
 1  0.46832316401640  1.98670985398540 -0.55524499659966
 1 -1.57833342454245 -4.82058416261626 -1.01329213491349
 1 -2.35364899459946 -3.78420612261226 -2.24019333953395
 1 -0.85902585368537 -4.32874104850485 -2.69196279927993
 1 -2.53630738853885 -3.55278142654265  0.99949719671967
 1  1.26230203690369 -5.15570805330533 -0.24147786528653
 1  2.60293947974798 -5.32509521802180 -1.27654216811681
 1  4.61466588758876 -0.61461751285129  1.03225381158116
 1  5.55176937653766  0.67718215481548  1.54090856155616
 1  4.33111063136314  4.75749621702170 -0.25902588528853
 1  5.58213483628363  3.63511623082308  0.11722824602460
 1  4.46670608800880  4.54871037913791  1.35805710961096
 1  1.97071290329033  4.95356528612861  0.63530331723172
 1 -7.52800557215722 -1.91921791629163  1.04674936893689
 1 -7.28167381168117 -3.32327009290929  2.32966533443344
 1 -7.14840302430243 -3.94566232973297  0.58321991119112
 1 -6.55022236393639 -0.48097842914291  0.16589851775178
 1 -4.71510635243524  1.33833803070307 -1.16695054315432
 1 -6.17116894659466  0.78739636793679 -1.89950662916292
 1 -4.54788328382838  0.22036888308831 -1.98680989368937
 1 -3.42785266456646  6.33690634643464  0.97168487248725
 1 -4.31516919441944  4.76052518471847  1.05545768356836
 1 -0.36879231393139  6.66621858175818  1.92255498799880
 1 -1.39424080738074  7.29760645614561  0.90177943434343
 1 -0.02609342174217  6.94045254575458 -0.00920458625863
 1 -3.61643193899390  6.38080396349635 -1.47593540964096
 1 -5.09215103820382  6.18434117511751 -0.89625476717672
 1 -4.37486200730073  4.58019951225122 -1.49010874927493
 1  3.88512381888189 -4.43710794099410  1.81926056305631
 1  7.54968221292129 -2.26329698199820  1.80789095169517

