%nproc=4
%Mem=4GB
# td=(NStates=1) B3LYP/SVP 

TD

0 1
 8 -4.59594971577158 -4.73109319051905  1.87455281888189
 8  3.11298189628963 -5.03240778997900  1.09835776757676
 8  6.91045142654265 -1.74507204830483  1.72473269376938
 8  3.61383311611161 -2.97743686888689  0.16229908830883
 8  7.66159491149115 -0.49145052435244 -0.06458602790279
 8 -3.01086141494149  2.51183858135814 -0.33062796739674
 7 -0.23423780548055 -0.55030438023802 -0.55344398059806
 7  1.61961964466447  1.83170554935494 -0.38679034113411
 7 -3.48262520552055 -3.16039508630863  0.68704717601760
 7 -0.73888529142914  2.96219663786379 -0.07692271617162
 6  0.69744097649765 -2.49501493979398 -1.31779386248625
 6  0.91792072587259 -1.14454440554055 -0.84377693299330
 6 -0.68384270937094 -2.74761865126513 -1.27766796619662
 6 -1.26972907910791 -1.49548319021902 -0.69891135703570
 6  3.68532647394739  1.49857434273427 -0.37292350875087
 6  2.51434212721272  0.88707003880388 -0.67094865346535
 6  2.31007801210121 -0.48202434823482 -0.91898414341434
 6  3.56126996389639  2.80564857305731  0.06726595369537
 6  1.73105425792579 -3.49867513331333 -1.87891809280928
 6 -5.65298463366337 -2.57149905950595  1.33509344934493
 6 -3.68832089498950 -1.85114017601760  0.14536832183218
 6  2.10889514971497  2.91703813201320 -0.06249372637264
 6 -5.06283247954795 -1.49905540874087  0.43459209810981
 6  5.02233071117112  0.67900757075708 -0.39089214561456
 6 -2.66359732193219 -1.05142191379138 -0.41099151355136
 6 -1.45822376007601 -3.94966946924692 -1.60546379007901
 6 -4.53058052485249 -3.61125963166317  1.35149426402640
 6  2.16262673867387 -4.58906112581258 -0.92783563936394
 6  5.28712858915892 -0.16095215911591  0.82798090419042
 6  4.61411719791979  3.89633086438644  0.31848403220322
 6  1.38215945734573  4.15661006850685  0.21619173867387
 6 -7.04556568716872 -3.20653803360336  1.11925139123912
 6 -5.77762636513651 -0.58988371827183 -0.22295376977698
 6 -0.07100208920892  4.11899657125713  0.18852747834783
 6 -1.01223218491849  5.20944203720372  0.49067369596960
 6 -2.23546887308731  4.81938806160616  0.34314571747175
 6  2.95568841014101 -4.10771739083908  0.10876227522752
 6 -5.38191285208521  0.44175940454045 -1.28246931393139
 6  6.73896646284629 -0.75654393849385  0.80297341994199
 6 -3.52941870117012  5.37985428362836  0.52405322042204
 6 -2.10812424872487  3.35991818311831 -0.05185426062606
 6 -0.39852398989899  6.56330019801980  0.89292438223822
 6 -4.27035557245724  5.45376378127813 -0.93206398209821
 1 -0.38344590949095  0.29720542614261 -0.14807536083608
 1  3.18144215881588 -1.25267726982698 -1.31692120072007
 1  2.62040329122912 -2.97031173807381 -2.34153658835884
 1  1.21919869916992 -4.06111802940294 -2.76115848234823
 1 -5.64304611081108 -2.27120550965096  2.42307446794679
 1  5.03807411761176 -0.01587687118712 -1.24074722772277
 1  5.92121408700870  1.29746405570557 -0.61970326992699
 1 -2.73898199389939  0.18344284048405 -0.38125103070307
 1  0.51950828252825  2.01856303930393 -0.38824829692969
 1 -1.28999459065907 -4.95693779797980 -1.07222802850285
 1 -2.59824345404540 -3.81144884688469 -1.43520284048405
 1 -1.31615156625663 -4.06900507490749 -2.73197680068007
 1 -2.60848460626063 -3.56377252565256  0.32501974897490
 1  1.28097390409041 -5.01514399689969 -0.42679639713971
 1  2.54681386718672 -5.52456516501650 -1.32691720562056
 1  4.61558597959796 -1.12330838193819  0.82106269246925
 1  5.28177237683768  0.33456789338934  1.83127759845985
 1  4.81896941724172  4.46780724812481 -0.78175815851585
 1  5.65424204700470  3.42336505570557  0.83672019521952
 1  4.07058647604761  4.68287379547955  1.21468277217722
 1  1.89904573657366  5.07745767536754  0.60820060696070
 1 -7.74147691929193 -2.45787178167817  1.48983367736774
 1 -6.99001464576458 -4.16526429232923  1.52814518241824
 1 -7.16462464646465 -3.19905766926693  0.14149573877388
 1 -6.86883422512251 -0.37831816311631  0.10024195209521
 1 -4.98336317811781  1.34034823172317 -0.87488133623362
 1 -6.33549537923792  0.86602423072307 -1.61987866636664
 1 -4.65825432093209 -0.16451960576058 -2.09438065076508
 1 -3.45027490679068  6.34830748654865  0.89406711071107
 1 -4.28178585608561  4.86150528272827  1.24998713651365
 1  0.27495206050605  6.76048800870087  2.00092282478248
 1 -1.07690907420742  7.44303099859986  0.69161841824182
 1  0.43904309190919  6.93643214371437  0.07199353355336
 1 -3.79053934973497  6.18058394149415 -1.44092190829083
 1 -5.32085390849085  5.90773351435143 -0.86451159285929
 1 -4.36071059215922  4.43244473677368 -1.35230496889689
 1  3.69684499099910 -4.54277850805080  1.71713035003500
 1  7.81813905860586 -2.03643429572957  1.71764192679268

