%nproc=4
%Mem=4GB
# td=(NStates=1) B3LYP/SVP 

TD

0 1
 8 -4.44645476627663 -4.77125720692069  1.93520888448845
 8  2.92607320542054 -4.66408095729573  1.31683961576158
 8  6.87846822822282 -1.38986652775278  1.89449967046705
 8  3.98451018381838 -3.20640976617662 -0.01678882048205
 8  7.60920967296730 -0.78481986128613 -0.13181275057506
 8 -3.08649897869787  2.50883828132813 -0.22207711231123
 7 -0.31163554525453 -0.71217056685669 -0.49621825802580
 7  1.56024370707071  1.80620299909991 -0.40070173227323
 7 -3.51285822882288 -3.24371341814181  0.48725719701970
 7 -0.77926932983298  2.90314073227323  0.02520749684969
 6  0.69221045344534 -2.43308874717472 -1.35626770987099
 6  0.90935986978698 -1.16084603570357 -0.91916447174717
 6 -0.69130345544554 -2.73669755915592 -1.18859905930593
 6 -1.33060516671667 -1.57210085198520 -0.61033249914992
 6  3.76910485178518  1.43236772207221 -0.44287050345035
 6  2.45192588558856  0.82724405620562 -0.71314287288729
 6  2.19976698099810 -0.49038518431843 -0.93570581558156
 6  3.55879971687169  2.72843085128513 -0.02957373027303
 6  1.63397454995500 -3.47228249404940 -1.92554275527553
 6 -5.60788012321232 -2.64592650225023  1.32867280728073
 6 -3.63537560046005 -1.85562062406241  0.11493527852785
 6  2.18859311951195  2.98825525372537 -0.05670314731473
 6 -5.06174237053705 -1.54340984418442  0.40995963486349
 6  5.12439091719172  0.70453012301230 -0.49865292169217
 6 -2.73044400660066 -1.13069984158416 -0.41959237363736
 6 -1.42883082078208 -3.97334183648365 -1.77967121082108
 6 -4.48095556235624 -3.63271177687769  1.29957907250725
 6  2.05037551355136 -4.45983820352035 -0.89800265606561
 6  5.36056593289329 -0.16707277117712  0.81351945804580
 6  4.55519130533053  3.73603483478348  0.37182936673667
 6  1.41730297169717  4.10892530003000  0.29301942144214
 6 -6.98016914751475 -3.19706708650865  1.07381684778478
 6 -5.82111071357136 -0.56736146604660 -0.20659213361336
 6 -0.08005299429943  4.02965763736374  0.32303092869287
 6 -0.95200616231623  5.16010710371037  0.57006163476348
 6 -2.24968029422942  4.77139326212621  0.35762716561656
 6  3.04417725902590 -4.00814743384338  0.20557195619562
 6 -5.55516017681768  0.41627685628563 -1.23455452245225
 6  6.79113167936794 -0.74758304240424  0.82043516611661
 6 -3.58880463976398  5.61813811201120  0.43555437053705
 6 -2.08488192449245  3.23187537883788  0.00958188298830
 6 -0.39768390589059  6.58941280928093  0.79001409120912
 6 -4.11473000990099  5.88477688258826 -0.90507128282828
 1 -0.46886445134513  0.19553525912591 -0.03900445374537
 1  2.94301831643164 -1.04837683978398 -1.26416592519252
 1  2.47103835473547 -2.94701940884089 -2.47348978367837
 1  1.06303308260826 -3.96740865846585 -2.79199156565657
 1 -5.69317112331233 -2.29926831593159  2.28533069356936
 1  5.20564087428743  0.06827154365437 -1.34135728872887
 1  5.96321828742874  1.41568587788779 -0.45645694529453
 1 -2.89574767046705 -0.22495799959996 -0.70298320392039
 1  0.55969230093009  1.72420360336034 -0.67075654775478
 1 -1.49633522472247 -4.96909901410141 -1.39902070777078
 1 -2.54129775947595 -3.52904060606061 -1.92041136133613
 1 -1.02701265236524 -4.17209538393839 -2.85059866286629
 1 -2.64556831463146 -3.80394654305431  0.61926917391739
 1  1.31491729842984 -4.86474895739574 -0.42168588608861
 1  2.59634882068207 -5.34580728922892 -1.29955446934693
 1  4.67608202920292 -0.96774282538254  0.62576316251625
 1  5.46228042764276  0.67431186778678  1.65102957365737
 1  4.50688820912091  4.73998446584659 -0.23266324902490
 1  5.57160378317832  3.37678039723972  0.11183770697070
 1  4.58272769016902  3.82956846494649  1.36389769366937
 1  1.80300613261326  5.04620455005500  0.59435922282228
 1 -7.57628039963996 -2.32980897539754  1.28980367436744
 1 -7.19284492879288 -4.11961972787279  1.68502086998700
 1 -7.01209939393939 -3.54835259875988  0.02342393159316
 1 -6.77642498419842 -0.19056938823882  0.48374030193019
 1 -4.91433627542754  1.32151634853485 -0.71298514661466
 1 -6.42436426612661  0.73802143044304 -1.65696237473747
 1 -5.02176067156716  0.01778862506251 -1.97465867856786
 1 -3.52256213551355  6.50651330713071  0.92647035103510
 1 -4.29425710321032  4.97688682088209  0.95314745254525
 1  0.21828639393939  6.70077203710371  1.75353808630863
 1 -1.43609499279928  7.04245094059406  1.08663792019202
 1  0.21267045464546  7.04345284578458  0.05882221642164
 1 -3.51835213101310  6.33738962206221 -1.57782559865987
 1 -5.11338316141614  6.40046278727873 -0.91089623132313
 1 -4.03685820692069  4.99374086638664 -1.72556229462946
 1  3.57086239273927 -4.27746197639764  2.03955259225923
 1  7.83331057575757 -1.79498015031503  1.82898306090609

