%nproc=4
%Mem=4GB
# td=(NStates=1) B3LYP/SVP 

TD

0 1
 8 -4.46819694049405 -4.82287236843684  1.76985234883488
 8  2.76625722382238 -4.71853640284028  1.30450838263826
 8  6.94547492889289 -1.49985752685269  1.96100632113211
 8  3.61603333613361 -3.10963008820882  0.12092495089509
 8  7.67850660266027 -0.74990636993699 -0.01379094839484
 8 -3.06352668146815  2.46872426992699 -0.33402830743074
 7 -0.23746812851285 -0.59388873867387 -0.54104274047405
 7  1.53470115281528  1.80044242304230 -0.44126578867887
 7 -3.38669561256126 -3.17586663346335  0.56644511581158
 7 -0.74458586148615  2.91409182738274 -0.20369539343934
 6  0.56437767016702 -2.61221665996600 -1.35323740684068
 6  0.96390532433243 -1.17129708080808 -0.95117767306731
 6 -0.72227655275528 -2.74248813821382 -1.31556175557556
 6 -1.27023913011301 -1.39016265816582 -0.86012747864786
 6  3.85320326162616  1.46075056035604 -0.39254547094709
 6  2.51594228722872  0.85390672247225 -0.67175873447345
 6  2.21288829312931 -0.48121426722672 -0.87875012001200
 6  3.53663750065006  2.78673668186819 -0.00506127902790
 6  1.68953010551055 -3.49583484928493 -1.91865206620662
 6 -5.54389372457246 -2.58001991159116  1.35131507150715
 6 -3.61077314021402 -1.83321838383838  0.10370415541554
 6  2.09403366356636  3.02244867306731 -0.18105558255826
 6 -4.99821601790179 -1.49061456465647  0.45434407330733
 6  5.12610108820882  0.72215188518852 -0.44418747514751
 6 -2.55514647684768 -1.06114288588859 -0.41539195359536
 6 -1.56915485318532 -3.94126862916292 -1.77198044174417
 6 -4.45059252605261 -3.68196670237024  1.32565167976798
 6  2.16948742474247 -4.62989520922092 -0.95959881568157
 6  5.39841971827183 -0.12598866276628  0.85917402350235
 6  4.56254204040404  3.92338356965697  0.21041322512251
 6  1.26281752315231  4.17506191369137  0.17286740624062
 6 -6.97950908150815 -3.11401878167817  1.19302876897690
 6 -5.70434903740374 -0.46788151805181 -0.06539801420142
 6 -0.05419040804080  4.06857152875287  0.17923654925493
 6 -0.92392335403540  5.17316840984098  0.56981160976098
 6 -2.16672199839984  4.71060718351835  0.34919632253225
 6  2.86327916921692 -4.05745236433643  0.15992739173917
 6 -5.51542620342034  0.48588381698170 -1.21361242824282
 6  6.81680424662466 -0.73683196729673  0.82499562216222
 6 -3.52442820212021  5.30223652185219  0.58406922202220
 6 -2.08261169746975  3.28320051135114 -0.04372344754475
 6 -0.49883402090209  6.55456932493249  0.96730181998200
 6 -4.24211274817482  5.59065747064706 -0.79381015671567
 1 -0.31917948284828  0.30270597619762 -0.12575312861286
 1  3.08184219881988 -1.18169017111711 -0.91710121872187
 1  2.50009126002600 -3.14010871777178 -2.21593402810281
 1  1.28512529182918 -4.05866778437844 -2.78321068756876
 1 -5.54680648684869 -1.99744813391339  2.44338649914992
 1  4.99609992019202 -0.00202548604860 -1.18408156115612
 1  5.85522748834883  1.44923923322332 -0.47358865846585
 1 -2.76642473817382 -0.02851835563556 -0.45546845244524
 1  0.45827215891589  1.87379856285629 -0.68828830093009
 1 -1.44018961016102 -4.68352045624562 -1.21994279998000
 1 -2.64634826452645 -3.62185988798880 -1.77494681488149
 1 -1.40124007510751 -4.14278245264526 -2.91195479847985
 1 -2.46197995579558 -3.69538568696870  0.71996924392439
 1  1.21751755845585 -5.03496597909791 -0.28346206370637
 1  2.71803098889889 -5.42095480398040 -1.41504601850185
 1  4.79333375437544 -1.07499355045505  0.94110469666967
 1  5.37547174677468  0.52136657325733  1.63603807450745
 1  4.58082560286029  4.64638510591059 -0.59089907260726
 1  5.59907653045305  3.36023874307431  0.27596411961196
 1  4.25337475487549  4.75229073717372  1.23825512941294
 1  1.83838967096710  5.01868179777978  0.47638742564256
 1 -7.64772754435444 -2.28816481098110  1.41492618661866
 1 -7.13477912221222 -3.89687745364536  1.92279464736474
 1 -7.13730191419142 -3.50783854735474  0.25406699589959
 1 -6.71139848154815 -0.44145447674767  0.48311023892389
 1 -5.19578442024202  1.41875607250725 -0.93789763786379
 1 -6.39438126782678  0.72314994329433 -1.87096377487749
 1 -4.86350484598460  0.23762060826083 -2.07544875757576
 1 -3.20251013031303  6.26019867566757  1.30911861586159
 1 -4.24700237773777  4.72909204140414  1.23028516631663
 1  0.17833239853985  6.58541050095010  2.04238697119712
 1 -1.28343972727273  7.16351304680468  1.51229048544854
 1  0.11862104970497  6.90884938543854  0.11891822602260
 1 -3.75066536233623  6.34504038713871 -1.31811962806281
 1 -5.39326114921492  5.82184492549255 -0.63753889558956
 1 -4.09367388848885  4.59846133843384 -1.26806654505451
 1  3.25273057955796 -4.30954518471847  2.19129776677668
 1  7.77270451515152 -1.88269892219222  2.09060922352235

