%nproc=4
%Mem=4GB
# td=(NStates=1) B3LYP/SVP 

TD

0 1
 8 -4.72228234903490 -4.78728881008101  1.77386274987499
 8  3.26597719581958 -4.91590613981398  1.18869680148015
 8  7.04283466486649 -1.36502404350435  1.90232045254525
 8  3.72284401720172 -3.12625175037504 -0.00983812541254
 8  7.48504725672567 -0.86984836413641 -0.25115468476848
 8 -3.09766009480948  2.51767916541654 -0.28824372897290
 7 -0.23142752445245 -0.60474982478248 -0.39496813301330
 7  1.50438812151215  1.77184956375638 -0.27265892799280
 7 -3.45938288128813 -3.20089913671367  0.66438490979098
 7 -0.76276767966797  3.03595401360136 -0.13263828772877
 6  0.73841507390739 -2.47829326762676 -1.39320140324032
 6  0.97174610841084 -1.18839879097910 -0.87574012931293
 6 -0.70943526862686 -2.66718060746075 -1.29651985138514
 6 -1.20058216441644 -1.42382602450245 -0.62511397729773
 6  3.79356729802980  1.43216770207021 -0.24830104650465
 6  2.50190088308831  0.79292062386239 -0.44999655825583
 6  2.26825382968297 -0.48713485928593 -0.85531777677768
 6  3.63220705760576  2.79186719491949  0.03958318541854
 6  1.70669182168217 -3.49803506930693 -1.85266546754675
 6 -5.57218655385539 -2.51458336793679  1.37467740774077
 6 -3.67398946184618 -1.82983804580458  0.13883766876688
 6  2.16962122232223  2.90067649584958  0.10578310131013
 6 -5.04921111741174 -1.52412791599160  0.42457109600960
 6  5.06716519461946  0.80123979397940 -0.42970602700270
 6 -2.72994395659566 -1.09708648024802 -0.41034144854485
 6 -1.43868180588059 -3.90368487078708 -1.66808005170517
 6 -4.52737020382038 -3.67148565426543  1.34543365796580
 6  2.14013448944895 -4.54938715841584 -0.90101295709571
 6  5.36942681898190 -0.13905996989699  0.71344945104510
 6  4.64565035123512  3.75553678497850  0.31949413321332
 6  1.33193443484348  4.15734014151415  0.24864498399840
 6 -7.01820295089509 -2.92591997179718  1.12467193329333
 6 -5.81892049454946 -0.67809253915392 -0.23098457285729
 6 -0.02989797879788  4.05811048264826  0.02767139273927
 6 -1.00082104380438  5.24426551955196  0.48696332493249
 6 -2.24160948714872  4.77306342914291  0.32948435133513
 6  3.04348719001900 -4.09782640174017  0.13077447644764
 6 -5.56526118691869  0.38632386098610 -1.36939800680068
 6  6.73258582478248 -0.81055934003400  0.74185730833083
 6 -3.59179493879388  5.40968726692669  0.44503531863186
 6 -2.10339377567757  3.23832602390239 -0.10844992019202
 6 -0.50604474197420  6.63429729772977  0.95357044684468
 6 -4.27566610351035  5.63242164706471 -0.86104688038804
 1 -0.37714527942794  0.48220392599260 -0.13680423372337
 1  2.97707172177218 -1.28943094519452 -1.11005051365136
 1  2.62599385028503 -2.94565927282728 -2.13432586728673
 1  1.41640842014201 -4.17373929152915 -2.77954032053205
 1 -5.68507031323132 -2.14167255635564  2.32024418491849
 1  5.14882519271927  0.04058877537754 -1.18302145514552
 1  5.93150511611161  1.47145145444544 -0.55484678427843
 1 -3.23363145884588 -0.12854835863586 -0.55056796239624
 1  0.47900423212321  2.31195237823782 -0.69865933803380
 1 -1.71279687088709 -4.60645274947495 -0.74919572527253
 1 -2.53946757645765 -3.53094079607961 -2.06521584178418
 1 -0.84522447354736 -4.46956513091309 -2.59177278027803
 1 -2.51389514731473 -3.71232738113811  0.72284953195320
 1  1.36999280598060 -5.09820230273027 -0.42214593209321
 1  2.52462164796480 -5.47976068456846 -1.55372988688869
 1  4.46630105110511 -0.84325037613761  0.79328991519152
 1  5.30989518911891  0.35202963956396  1.65477994869487
 1  4.84079159945995  4.43076354375438 -0.70108009070907
 1  5.67731435423542  3.09009172837284  0.53549007220722
 1  4.37275669306931  4.59308481658166  1.23527483138314
 1  1.85357118911891  5.09622955255526  0.54250403730373
 1 -7.66638941054105 -2.18086408090809  1.24218891289129
 1 -7.24759040334033 -3.75822358825883  1.90882325022502
 1 -7.33778196219622 -3.10504826832683  0.14854644384438
 1 -6.97185452715271 -0.50549088038804 -0.01127920002000
 1 -5.06360120192019  1.25365956285629 -0.88023187128713
 1 -6.36436826652665  0.72835046334633 -1.74219089758976
 1 -4.80194869036904 -0.04250740454045 -2.23075428812881
 1 -3.53121300060006  6.26526918271827  1.20019772377238
 1 -4.24086176367637  4.77425655785579  1.04597673547355
 1  0.44166873217322  6.61304326422642  1.70389312181218
 1 -1.26249763306331  7.32399909540954  1.08547780418042
 1 -0.01877268966897  7.22539103960396 -0.00085375117512
 1 -4.01804210001000  6.47162304540454 -1.53138095419542
 1 -5.44540636373637  5.92071481248125 -0.69615475717572
 1 -4.33937845894589  4.58101959425943 -1.48288802720272
 1  4.13623893039304 -4.65732996319632  1.68113675067507
 1  7.88209545424542 -1.80868152045205  1.80783094569457

