%nproc=4
%Mem=4GB
# td=(NStates=1) B3LYP/SVP 

TD

0 1
 8 -4.47619774057406 -4.64092417361736  1.96652201580158
 8  2.89081968006801 -4.81107565676568  1.44476240804080
 8  7.22354273567357 -1.50742828392839  1.64054427492749
 8  3.76044777757776 -3.17450657585759  0.16901976037604
 8  7.52294104610461 -0.74107548684868 -0.44932450175018
 8 -2.98093842264226  2.33261065856586 -0.27713261786179
 7 -0.32717709940994 -0.58626797659766 -0.54487312351235
 7  1.59189687238724  1.79902228102810 -0.28160982308231
 7 -3.48553549654965 -3.14791383818382  0.63046151745175
 7 -0.72845424832483  2.92514293249325 -0.08831385528553
 6  0.59582081448145 -2.47876331463146 -1.33418550165017
 6  0.89485841964196 -1.09695964706471 -0.92805536083608
 6 -0.75022934803480 -2.69647353675367 -1.29273947334733
 6 -1.37016912311231 -1.51143478537854 -0.77833929982998
 6  3.83833177447745  1.54717920322032 -0.17540375677568
 6  2.48272896589659  0.84357568936894 -0.50764232283228
 6  2.20246725102510 -0.46998314411441 -0.76575882088209
 6  3.53016685358536  2.84486249444944  0.12230145724572
 6  1.67211836433643 -3.41023628942894 -1.85042524352435
 6 -5.60057939313931 -2.56796870647065  1.33671361136114
 6 -3.65569763266327 -1.81755681768177  0.12231601660166
 6  2.12677693789379  2.96159258745875  0.13343586658666
 6 -5.02903910021002 -1.43678918211821  0.34551319021902
 6  5.07068554665467  0.73910358035804 -0.36878993539354
 6 -2.67679864206421 -1.05847261886189 -0.45839625402540
 6 -1.43602153985399 -3.90476497879788 -1.85440868456846
 6 -4.48255572237224 -3.55551405710571  1.33904301890189
 6  2.11389186518652 -4.59474169386939 -0.84664752055206
 6  5.40447032333233 -0.21371743564356  0.73171127722772
 6  4.52329811601160  3.87369860116012  0.43124530833083
 6  1.36312755415542  4.12573698119812  0.44141426092609
 6 -6.95690682128213 -3.11805918571857  1.04346381248125
 6 -5.85052365486549 -0.46883161306131 -0.27020849524953
 6 -0.04672966196620  4.01224589618962  0.31838046364636
 6 -0.95198616031603  5.22276336933693  0.61193582218222
 6 -2.16847217341734  4.70350647344734  0.31241264416442
 6  2.95722856415642 -4.08712533163316  0.27760915991599
 6 -5.47266192699270  0.51662689128913 -1.31364243124312
 6  6.79352191839184 -0.82666095019502  0.50446356895690
 6 -3.65340109940994  5.24969126732673  0.34403521862186
 6 -2.06475991229123  3.14501669296930 -0.01580065526553
 6 -0.62616675417542  6.55853972197220  0.78961405120512
 6 -4.20195873277328  5.61091949684969 -1.01865264096410
 1 -0.47341490639064  0.36206191179118 -0.22390294359436
 1  3.17762177677768 -1.35572757485749 -0.82515202380238
 1  2.59819107000700 -3.02731743864387 -2.15144757945794
 1  1.31755853515352 -3.93946586418642 -2.76681904840484
 1 -5.66302810901090 -2.37249563866387  2.37940010051005
 1  5.00610092029203  0.16210092659266 -1.44174732773277
 1  6.03856582218222  1.43230754005400 -0.36872817241724
 1 -2.82745084078408 -0.14412991679168 -0.83829673527353
 1  0.52189852155216  1.75775695869587 -0.40552002410241
 1 -1.61593718491849 -4.81981408560856 -1.29734053975398
 1 -2.52405603530353 -3.74810251225123 -2.26227554775478
 1 -0.70968091919192 -4.41414958935894 -2.57453105610561
 1 -2.49385314311431 -3.47130327872787  0.80648789578958
 1  1.22265807250725 -5.09023150565057 -0.40932464996500
 1  2.83953313911391 -5.21013372187219 -1.42232674657466
 1  4.75103952495250 -1.14500055115512  0.97562814901490
 1  5.55588978857886  0.08922335893589  1.80748521922192
 1  4.60675819611961  4.81175164256426 -0.49562954565457
 1  5.55564218701870  3.57324004320432  0.54140066326633
 1  4.23534295169517  4.39905541364136  1.34215551945194
 1  1.80273610561056  5.16381631123112  0.66457624452445
 1 -7.81258403000300 -2.46026202070207  1.27044173817382
 1 -7.00374601890189 -3.90487825372537  1.72840520842084
 1 -7.15356354035404 -3.34930269376938 -0.15938434923492
 1 -6.88091543324332 -0.52882321362136  0.25143707160716
 1 -4.90824566636664  1.52349654655466 -0.90823467156716
 1 -6.33861569126913  0.99286691499150 -2.08131480998100
 1 -4.64619311481148 -0.05486864066407 -2.02804401710171
 1 -3.70176005530553  6.09824248004800  1.17502520652065
 1 -4.21228890639064  4.40113924612461  0.72027416521652
 1  0.23244781008101  6.45294725462546  1.57657038953895
 1 -1.48178956225623  7.22622931843184  1.06320557695770
 1 -0.11243205560556  6.94390289078908 -0.04303796959696
 1 -3.57553784958496  6.52296817991799 -1.36746456255626
 1 -5.28139996309631  5.78027076807681 -0.56745188688869
 1 -4.08918343944394  4.95451694399440 -1.75980571897190
 1  3.73004831133113 -4.40911514171417  1.83564220122012
 1  8.18333557825783 -1.70175082738274  1.63664382698270

