%nproc=4
%Mem=4GB
# td=(NStates=1) B3LYP/SVP 

TD

0 1
 8 -4.42337245804581 -4.80115019621962  1.83624898849885
 8  2.98566916501650 -4.78030257945795  1.32215014681468
 8  7.10368074947495 -1.57001454255426  1.73880410091009
 8  3.78703043584358 -3.20522964816482 -0.09913705530553
 8  7.72649140114011 -0.25238661796180 -0.00447001630163
 8 -3.12827315611561  2.49427682518252 -0.14827973257326
 7 -0.23058744044404 -0.59524887468747 -0.50039867606761
 7  1.50883856655666  1.71390376917692 -0.35613727582758
 7 -3.40906784978498 -3.10171921872187  0.64671314261426
 7 -0.79595099799980  2.87626804500450 -0.05446046994699
 6  0.53183441584158 -2.53353879217922 -1.26054813791379
 6  0.89257819161916 -1.18560851195120 -0.81730428572857
 6 -0.83430775587559 -2.62059594899490 -1.21791199059906
 6 -1.34794690089009 -1.46660030193019 -0.66840830673067
 6  3.74612255355536  1.36608109340934 -0.36066228262826
 6  2.49590028302830  0.75623695549555 -0.63185474407441
 6  2.17953495779578 -0.55453159895990 -0.88527077207721
 6  3.57954179107911  2.69809781798180 -0.02119289218922
 6  1.51099225172517 -3.51284655045505 -1.91686188718872
 6 -5.68189752495250 -2.69172108170817  1.17022696269627
 6 -3.58558062096210 -1.77946300830083  0.11956574157416
 6  2.17072133233323  2.84846127432743  0.04598712171217
 6 -4.99223541984198 -1.55907141034103  0.31202984188419
 6  5.06969544764476  0.67115678567857 -0.33169622602260
 6 -2.65230619281928 -0.95111188278828 -0.26594700910091
 6 -1.64003194089409 -3.90726522882288 -1.64673791749175
 6 -4.43872133893389 -3.68013651935194  1.31861097569757
 6  1.89918039403940 -4.54686690639064 -0.82085494129413
 6  5.42628250455046 -0.13867993189319  0.80497860396040
 6  4.55770155635564  3.81287251855186  0.24993717751775
 6  1.51264250565057  4.05157956545655  0.15835595509551
 6 -6.98764989558956 -3.30323770357036  0.81678114421442
 6 -5.75621422392239 -0.49578430833083 -0.22288376277628
 6 -0.01218620762076  3.98284295589559  0.21436006160616
 6 -0.94972593429343  5.19552064506451  0.52279690829083
 6 -2.18989431563156  4.73997011981198  0.34005540844084
 6  2.89353219451945 -4.12178879797980  0.09542094109411
 6 -5.34759942074207  0.55998122672267 -1.13819488648865
 6  6.88116068226823 -0.67486577067707  0.77849097169717
 6 -3.49460521982198  5.37685398359836  0.47127794289429
 6 -2.14860829712971  3.26702889418942  0.06567749254925
 6 -0.40586472397240  6.69941380938094  0.64113920372037
 6 -4.18681721862186  5.70720912581258 -0.87984876057606
 1 -0.56760432533253  0.36193189878988 -0.21365191849185
 1  2.97721173577358 -1.28863086518652 -1.05081459005901
 1  2.56930818171817 -2.87901260816082 -2.08799123382338
 1  1.26044282358236 -3.83193511111111 -2.84668703520352
 1 -5.72902470867087 -2.38680706980698  2.33602576307631
 1  5.10985129532953  0.04629934643464 -1.28944209720972
 1  5.87421938753875  1.51095540484048 -0.61642294189419
 1 -2.61437953365337  0.06702119831983 -0.25751865746575
 1  0.45799213091309  1.82629381238124 -0.61567103920392
 1 -1.67769336053605 -4.71347345154515 -0.80636144184418
 1 -2.65122875257526 -3.52730043204320 -1.90802012221222
 1 -1.14684463556356 -4.51892006640664 -2.39614321732173
 1 -2.69345310311031 -3.78882503090309  0.64556180318032
 1  1.14304011071107 -4.91311379387939 -0.23221693919392
 1  2.10174936073607 -5.56477918641864 -1.01301581548155
 1  4.74238865986599 -0.91660771187119  1.04524511071107
 1  5.21272547214722  0.50888532513251  1.88972344304430
 1  4.38110563086309  4.57298776617662 -0.74069405210521
 1  5.49937656045605  3.47035975517552  0.10541706490649
 1  4.28012743014301  4.57525303340334  1.09539084298430
 1  1.86916274827483  4.94209413901390  0.39709949684968
 1 -7.89107187878788 -2.57294328882888  1.04152884688469
 1 -7.19096474077408 -4.37462522842284  1.26147851575157
 1 -7.09875805980598 -3.73622138563856 -0.33655206600660
 1 -6.84180152185219 -0.49774010531053  0.13267519541954
 1 -5.02708755055506  1.54933913081308 -0.51306515461546
 1 -6.25846767646765  0.77819544784478 -1.53804048254826
 1 -4.57095559105911  0.33883072927293 -2.11648286098610
 1 -3.43659353865387  6.38386104190419  0.99471717571757
 1 -4.23651132863286  4.69149828202820  1.13068520632063
 1 -0.09405484018402  6.81455341524152  1.67790052255226
 1 -1.38946032933293  7.44736143164316  0.44980423682368
 1  0.32480166776678  6.86417491799180  0.00832716691669
 1 -3.60814110991099  6.59393527662766 -1.26947476357636
 1 -5.22369419251925  6.22844558555856 -0.68580372207221
 1 -4.11783630473047  4.96003749604960 -1.49890962936294
 1  3.79848515501550 -4.32001623182318  1.91194983198320
 1  8.08687593229323 -1.90909156145615  1.79368953155316

