%nproc=4
%Mem=4GB
# td=(NStates=1) B3LYP/SVP 

TD

0 1
 8 -4.53449357015702 -4.86109619081908  1.72926829042904
 8  2.85240583868387 -4.82130667986799  1.23112104390439
 8  7.01596197759776 -1.69804734583458  1.65650587108711
 8  3.81942367516752 -3.28154727992799 -0.01474861646165
 8  7.55639439143914 -0.57182856215622 -0.17582715201520
 8 -3.00351067986799  2.54148154565457 -0.40369527412741
 7 -0.34985936763676 -0.50904025382538 -0.48396703290329
 7  1.60387807050705  1.93161554035404 -0.30652231433143
 7 -3.40073701670167 -3.14786383318332  0.62656112741274
 7 -0.68690009290929  3.02159257745775 -0.06006103000300
 6  0.59470070247025 -2.50590602890289 -1.38220030313031
 6  0.94640357415742 -1.10586053715372 -0.94549710501050
 6 -0.82302662776278 -2.60736462586259 -1.27014721412141
 6 -1.34281638783878 -1.44645828772877 -0.67729919581958
 6  3.77698563986399  1.41576606190619 -0.11766798319832
 6  2.47367806080608  0.87148848064806 -0.37515907450745
 6  2.13561056535654 -0.48051419721972 -0.71637388238824
 6  3.57057089398940  2.83076108430843  0.19493872097210
 6  1.66682783528353 -3.45716098189819 -1.96603680468047
 6 -5.52029136433643 -2.64387629722972  1.47995793579358
 6 -3.54464652755276 -1.97650271227123  0.11402518751875
 6  2.12189644984498  2.99517594579458 -0.02577005400540
 6 -4.99377557385739 -1.64544004720472  0.40619925882588
 6  5.00606908500850  0.76113578357836 -0.31944500090009
 6 -2.72895385758576 -1.04020079167917 -0.43726414081408
 6 -1.47034497219722 -3.91818632093209 -1.78743198689869
 6 -4.49362682948295 -3.70492899859986  1.28289740434043
 6  2.13876435243524 -4.64416663636364 -0.98925178097810
 6  5.34283415971597 -0.11575763966397  0.81170927702770
 6  4.54655044124412  3.78794002530253  0.64722690649065
 6  1.35770701210121  4.18878328582858  0.22812293179318
 6 -7.01980311091109 -3.12005938573857  1.46937640374037
 6 -5.79536813931393 -0.63388811871187 -0.09302077647765
 6 -0.05155014401440  4.08676334793479  0.28579720532053
 6 -0.98478944064406  5.25616670967097  0.44268889748975
 6 -2.18935426162616  4.77110323312331  0.17297870077008
 6  3.03756659795980 -4.15446206530653  0.10705210421042
 6 -5.43325798659866  0.30683591219122 -1.19712077907791
 6  6.81459402560256 -0.82521080518052  0.70412353495350
 6 -3.50967672697270  5.50255655385538  0.25605642074207
 6 -2.12825626192619  3.34980717201720 -0.21740081528153
 6 -0.52395653315332  6.58723259125913  0.81992708250825
 6 -4.18655719261926  5.71209961486149 -1.12961373707371
 1 -0.52204976987699  0.47460316591659 -0.06748730203020
 1  2.99338335293529 -1.12828483058306 -1.05901541014101
 1  2.53408465936594 -2.92450715761576 -2.29372180688069
 1  1.16621340064006 -3.99939185678568 -2.80836320282028
 1 -5.33918572477248 -2.33329171827183  2.54710687118712
 1  4.87039734993499  0.05096981348135 -1.36280943394339
 1  5.99123108870887  1.53600791009101 -0.59556085568557
 1 -3.18900699639964 -0.10331583538354 -0.57412031763176
 1  0.62156848854886  2.02186336933693 -0.35974544664466
 1 -1.33801939313931 -4.76727883208321 -1.07195800150015
 1 -2.49937356705671 -3.47387508950895 -1.72379169936994
 1 -1.13857380848085 -4.22116029042904 -2.66913051605160
 1 -2.40582434023402 -3.65779192759276  0.80237748474848
 1  1.19881568826883 -5.05441792429243 -0.49446316381638
 1  2.87559674547455 -5.29835254375438 -1.77874238813881
 1  4.54528894989499 -1.03243929502950  0.78571915811581
 1  5.40663486308631  0.40268470507051  1.78814328502850
 1  4.42627014731473  4.70151061846185 -0.10500048274827
 1  5.65793241604160  3.34888760796080  0.52425894909491
 1  4.53938335573557  4.17099260736074  1.74709601350135
 1  1.99770560256026  5.04555448504850  0.63295308220822
 1 -7.76814958655866 -2.34227022152215  1.79881457545755
 1 -7.18036368066807 -3.79557732363236  2.27650001790179
 1 -7.12163034703470 -3.69746751025103  0.40375196439644
 1 -6.80620796249625 -0.39205953725372  0.43957588548855
 1 -4.81607644944494  1.09828402530253 -0.75655950405041
 1 -6.42227405710571  0.94229185748575 -1.66785346384639
 1 -4.70894939043904 -0.21524467826783 -1.88055926862686
 1 -3.29695957525753  6.46589924572457  0.82086979097910
 1 -4.13541121862186  4.81728086028603  0.89511164896490
 1 -0.16773220792079  6.55135709560956  1.85712844534453
 1 -1.32635401870187  7.33630032553255  0.66780603700370
 1  0.46368555615562  6.91635013551355  0.20342667686769
 1 -3.64989528532853  6.45417130023002 -1.78910672677268
 1 -5.20523234633463  5.93214595559556 -1.06225136683668
 1 -4.13362788388839  4.72759425172517 -1.54822456085609
 1  3.76866217271727 -4.55749998019802  1.77731636863686
 1  7.87111435613561 -2.10171082338234  1.69914007660766

