%nproc=4
%Mem=4GB
# td=(NStates=1) B3LYP/SVP 

TD

0 1
 8 -4.59844996579658 -4.75964604580458  1.85123048664867
 8  3.40185078317832 -4.97804235343534  1.14588252005201
 8  6.99422980438044 -1.60530807190719  1.84228444894489
 8  3.81882361516152 -3.16731585678568 -0.20056719831983
 8  7.67482623462346 -0.42055343464346  0.06135656635664
 8 -3.02002233103310  2.49925732323232 -0.30732563716372
 7 -0.32141652335234 -0.52646199599960 -0.62662129832983
 7  1.49834751745174  1.86453883268327 -0.36008767086709
 7 -3.51724866786679 -3.16196524332433  0.65253372467247
 7 -0.70310171307131  2.94225464366437 -0.00976600050005
 6  0.55311654405441 -2.47625306360636 -1.30109219231923
 6  0.93413234703470 -1.18343829492949 -0.86434899019902
 6 -0.78235256035604 -2.64939882928293 -1.10970116951695
 6 -1.27692979917992 -1.44526816871687 -0.66067753365337
 6  3.78080602190219  1.42824731003100 -0.41147736413641
 6  2.49669036203620  0.81171250305031 -0.57476903550355
 6  2.15081208550855 -0.58619476527653 -0.83235548054805
 6  3.47465130203020  2.76419442764276  0.04984421152115
 6  1.46528768126813 -3.58585385118512 -1.89969017001700
 6 -5.63897323252325 -2.55693760336034  1.38693863386339
 6 -3.65777784068407 -1.77103216521652  0.17816160116012
 6  2.13889815001500  3.01822825102510 -0.05335281228123
 6 -5.10013620992099 -1.48141364456446  0.44650328922892
 6  5.07682616071607  0.74836450645065 -0.41576463286329
 6 -2.73180414261426 -1.14281105270527 -0.43356377077708
 6 -1.54252218991899 -3.94032853515352 -1.63153639733973
 6 -4.51598906570657 -3.75597410311031  1.35001411601160
 6  1.92285276127613 -4.56026824652465 -0.87032988878888
 6  5.42369224552455 -0.16050211411141  0.81109921602160
 6  4.51515730193019  3.79495072637264  0.36500868466847
 6  1.38939018041804  4.19632403990399  0.21379149864986
 6 -6.99251038163816 -3.19968734853485  0.98870833693369
 6 -5.85674427692769 -0.54318904880488 -0.13416489088909
 6  0.02327733873387  4.16017068866887  0.25324394999500
 6 -0.94343530523052  5.21782287528753  0.58660328892889
 6 -2.21130645684568  4.66969309210921  0.26018742164216
 6  3.12752559385939 -4.24807142624262  0.02328372737274
 6 -5.45582024282428  0.42963819241924 -1.12972403940394
 6  6.81970453665367 -0.66377466156616  0.87604072667267
 6 -3.49902566186619  5.38850514871487  0.30363117821782
 6 -2.08843227952795  3.21110330163016 -0.05681475667567
 6 -0.54807894539454  6.59172304030403  0.90735582538254
 6 -4.02714125102510  5.82712111701170 -1.10422119781978
 1 -0.48651621652165  0.42438814441444 -0.22361291459146
 1  3.28820283488349 -0.92950495259526 -1.03481298989899
 1  2.29825107600760 -3.28187289418942 -2.41656409110911
 1  1.02417919721972 -4.13531544914491 -2.68789115561556
 1 -5.59680148634863 -2.45063345244524  2.49134129462946
 1  5.19957026722672 -0.02230751425143 -1.20672382538254
 1  5.81916388198820  1.50174448374838 -0.53245454505451
 1 -2.88085618131813 -0.02683818761876 -0.74617752335234
 1  0.57831416311631  2.05081626462646 -0.57046651875188
 1 -1.59726531773177 -4.88290039423942 -0.93367417311731
 1 -2.53427705740574 -3.68000570257026 -1.95101442164216
 1 -0.93963391449145 -4.48169634403440 -2.39108271127113
 1 -2.52324608240824 -3.49280542894289  0.38770601760176
 1  1.11924773147315 -4.89965244774477 -0.31148486598660
 1  2.02602178797880 -5.55597830633063 -1.49710422432243
 1  4.75337975897590 -1.03983003410341  0.87715830203020
 1  5.05329952955296  0.38430286688669  1.76614108480848
 1  4.12390991129113  4.72860332773277 -0.14978496119612
 1  5.63907052985298  3.61373409260926  0.01270779397940
 1  4.52409182658266  4.16329183728373  1.36472777667767
 1  1.96643247524752  5.01637156675667  0.58738852575258
 1 -7.89437220882088 -2.67636363086309  1.32792748674867
 1 -6.96081172547255 -4.22021978787879  1.52720508840884
 1 -7.04586277027703 -3.65921368486849 -0.07557596839684
 1 -6.90839818151815 -0.42031236253625  0.26800872877288
 1 -4.54394923672367  1.12934713161316 -0.46710055815582
 1 -6.22572440214021  1.01073870217022 -1.72703938243824
 1 -4.83437193269327 -0.08902205600560 -1.96404761746175
 1 -3.58847872717272  6.36077873367337  0.93568127212721
 1 -4.37019469696970  4.52656178837884  0.58656079387939
 1  0.12471703700370  6.45220718061806  1.64126685918592
 1 -1.53691507480748  7.15091178667867  1.39484874127413
 1  0.16040522812281  6.95907440794079  0.05246158035804
 1 -3.46518681448145  6.62304818791879 -1.71492930903090
 1 -4.98622044514451  6.53947668866887 -0.88971411311131
 1 -4.29071359245925  5.05501699399940 -1.91873161156116
 1  4.12457776427643 -4.63120735093509  1.73436207320732
 1  8.00815806050605 -1.94356500880088  1.60992115471547

