%nproc=4
%Mem=4GB
# td=(NStates=1) B3LYP/SVP 

TD

0 1
 8 -4.62581270207021 -4.80244032523252  1.74513987758776
 8  2.73682428052805 -4.66090063926393  1.52514044584458
 8  7.24945532693269 -1.63692123322332  1.66475669616962
 8  3.63672540534053 -3.08409753495350  0.25889874827483
 8  7.60060881288129 -0.55675705500550 -0.29172874217422
 8 -3.01318164696470  2.42148954645465 -0.16357126172617
 7 -0.29329371107111 -0.62187153695370 -0.58286692289229
 7  1.53760144284428  1.80017239603960 -0.43591525362536
 7 -3.59471641464146 -3.24422346914691  0.41409988128813
 7 -0.72600400330033  2.99787020522052 -0.23643866776678
 6  0.68142937533753 -2.48060349864986 -1.43142522562256
 6  0.93691262506251 -1.20714066516652 -0.94995755105511
 6 -0.67531185628563 -2.73741763116312 -1.27174737413741
 6 -1.24480658685869 -1.57669131103110 -0.80794226012601
 6  3.77133507480748  1.45691017631763 -0.30846706310631
 6  2.44456514951495  0.81446277807781 -0.57201876047605
 6  2.22002900720072 -0.47855400120012 -0.82902514751475
 6  3.47418125502550  2.70633864206421 -0.05315608850885
 6  1.71151230373037 -3.52820808660866 -1.91751195219522
 6 -5.62342167736774 -2.54900681028103  1.38081802180218
 6 -3.64801686458646 -1.86527158915892  0.03149693469347
 6  2.12630689088909  2.94258068626863 -0.02200967796780
 6 -5.02415861216122 -1.39921542474247  0.45346398529853
 6  5.11234971307131  0.77070674067407 -0.29802285868587
 6 -2.58422938513851 -1.17599437103710 -0.52382279667967
 6 -1.49999793749375 -3.90212471477148 -1.82419566326633
 6 -4.50874834163416 -3.62974147984798  1.29684879947995
 6  2.04180465646565 -4.55002722242224 -0.75537839363936
 6  5.57067694399440 -0.07893395729573  0.93781188728873
 6  4.45012079827983  3.91302253355336  0.28711089488949
 6  1.41087232863286  4.06040044754475  0.26185630513051
 6 -6.98272940354035 -3.02290967076708  1.10373984008401
 6 -5.72976157865787 -0.41208593849385 -0.16693816821682
 6 -0.02031702070207  4.03780845244524  0.11968059365937
 6 -0.93908487018702  5.15575666866687  0.52073670227023
 6 -2.20676600280028  4.65992211501150  0.33617502040204
 6  2.87505034633463 -4.01651827092709  0.36030742974297
 6 -5.26871153195319  0.47619284788479 -1.14656572357236
 6  6.88656122232223 -0.74928321242124  0.62786590919092
 6 -3.61894765406541  5.28032433063306  0.49789060416042
 6 -2.02921635793579  3.25722791409141  0.00512143694369
 6 -0.45768990649065  6.60389425742574  0.96776186598660
 6 -4.37487602450245  5.61771017591759 -0.70138091379138
 1 -0.71625919081908  0.31239694529453 -0.17233778707871
 1  3.17352136673667 -1.11327332943294 -1.04435394399440
 1  2.74989624052405 -3.27139184608461 -2.17746018071807
 1  1.37365414471447 -4.16782870047005 -2.81928429492949
 1 -5.67822962916292 -2.07089547864786  2.37320948144815
 1  5.10208051825183 -0.16496177967797 -1.19398255125512
 1  5.98492045764576  1.34261857115712 -0.65315661526153
 1 -2.71439953565357 -0.10015551935194 -0.76970987658766
 1  0.50198653035304  1.78073925692569 -0.50414988708871
 1 -1.64636022722272 -4.82594469866987 -1.17937874357436
 1 -2.65817944764476 -3.66698440044004 -2.07558687888789
 1 -1.01099105020502 -4.27065523992399 -2.76615021802180
 1 -2.69009276707671 -3.63566971537154  0.56307355435544
 1  1.41187699439944 -4.97901038353835 -0.48590230773077
 1  2.58913809960996 -5.26969967846785 -1.27357187108711
 1  4.63833825482548 -0.71812786388639  1.30301088728873
 1  6.07186138573857  0.61656609320932  1.87375184588459
 1  4.30587810811081  4.84259472687269 -0.51113109580958
 1  5.43712033483348  3.36956967616762  0.22000852405241
 1  4.17986740414041  4.43353886198620  1.27959926382638
 1  1.92181801380138  4.90398032763276  0.61086087298730
 1 -7.84164693629363 -2.27559355385538  1.12241693569357
 1 -6.91671731603160 -3.80653841974197  1.99277164506451
 1 -7.00915909990999 -3.65104286778678  0.03327491669167
 1 -6.81161850355035 -0.39687001830183  0.24370629852985
 1 -4.77545238703870  1.42409660656066 -0.90173402150215
 1 -6.13243507320732  0.91454908320832 -1.60007668616862
 1 -4.69177767326733  0.06410325652565 -1.96950816351635
 1 -3.68574845414541  6.13246590239024  1.13430113411341
 1 -3.93603128062806  4.46819595179518  1.10069220702070
 1  0.31381594689469  6.53659561946195  1.72995572807281
 1 -1.28464984828483  7.10817751325132  0.99607886428643
 1  0.12686187378738  7.14705320582058  0.18769510371037
 1 -3.80015031083108  6.32070795389539 -1.47524534063406
 1 -5.35737756085609  5.90215295629563 -0.48976411811181
 1 -4.63222774387439  4.76214770707071 -1.26056579497950
 1  3.26860216671667 -4.25801003120312  2.31622025902590
 1  8.04141138583858 -1.98014866716672  1.40364052665267

