%nproc=4
%Mem=4GB
# td=(NStates=1) B3LYP/SVP 

TD

0 1
 8 -4.66426654745475 -4.85203528472847  1.63076844044404
 8  3.11408200630063 -4.79370391959196  1.38777670947095
 8  7.30469085048505 -1.18696623772377  1.92051227172717
 8  3.60648238103810 -3.01764088928893  0.15472833123312
 8  7.58685743774377 -0.77790917021702 -0.32055162446245
 8 -3.00577090589059  2.38587598509851  0.01998709410941
 7 -0.25651003270327 -0.62698204800480 -0.52194083028303
 7  1.56894457715772  1.74951733053305 -0.43651531363136
 7 -3.46101304430443 -3.10384943174317  0.78298676997700
 7 -0.74112551545155  2.86278669686969 -0.05217024092409
 6  0.59655088748875 -2.41952739103910 -1.40662274537454
 6  0.92999193299330 -1.19987993909391 -0.94895745104510
 6 -0.78969329442944 -2.68772266166617 -1.32830302970297
 6 -1.34603670987099 -1.44341798369837 -0.79898136403640
 6  3.83178111941194  1.41900638593859 -0.36399261566157
 6  2.51284197719772  0.73520485228523 -0.60992255085509
 6  2.17728473277328 -0.51380752655266 -0.86411865686569
 6  3.63196703360336  2.72847085528553  0.06729595669567
 6  1.65093624612461 -3.47762302810281 -1.81083128412841
 6 -5.72315165036504 -2.51865377497750  1.25441538153815
 6 -3.63459552245225 -1.89113417541754  0.14041782678268
 6  2.23519777997800  2.90075650385038  0.03546606960696
 6 -5.01681787808781 -1.49747525072507  0.37560619951995
 6  5.15423390149015  0.60531020102010 -0.55832888928893
 6 -2.63950491269127 -1.04610138173817 -0.43613402780278
 6 -1.49524746244624 -3.86549105140514 -1.81727497119712
 6 -4.59662712951295 -3.66849535523552  1.29108822342234
 6  1.99454993099310 -4.55618783848385 -0.80208306410641
 6  5.47240711701170  0.05274921102110  0.84247235333533
 6  4.63777956415642  3.90171140244024  0.30082226602660
 6  1.40992223362336  3.97555196269627  0.22210232973297
 6 -7.04683581418142 -2.98812619241924  1.02480194629463
 6 -5.80314891739174 -0.52428715861586 -0.20775224962496
 6 -0.00061505050505  4.01791646324632  0.22547117271727
 6 -0.98244920662066  5.14847594059406  0.50468509710971
 6 -2.23033836003600  4.66245236803680  0.33322472537254
 6  2.97500034133413 -4.06327294639464  0.23704510351035
 6 -5.60831549234923  0.52260748934893 -1.23350441744174
 6  6.87006957315732 -0.72602088618862  0.70818394099410
 6 -3.55707146644664  5.30625692389239  0.39860067516752
 6 -2.10420385668567  3.25095728702870  0.02920384518452
 6 -0.59450358785879  6.47272114011401  0.90983607340734
 6 -4.16227476437644  5.69221762666267 -0.93188396409641
 1 -0.50245781068107  0.40502620822082 -0.36959751305131
 1  3.04050806540654 -1.35119712181218 -0.75755526412641
 1  2.51907315821582 -2.89064377127713 -2.27288972367237
 1  1.28317509680968 -3.92360427802780 -2.74039640614061
 1 -5.59358116431643 -1.95803419251925  2.35766792729273
 1  5.04361467166717 -0.28393367686769 -1.23119627262726
 1  5.92440440604060  1.22613692299230 -1.06435773537354
 1 -2.77793588928893 -0.03553905770577 -0.39483238883888
 1  0.56444277597760  1.74234541754175 -0.47741721382138
 1 -1.64490008120812 -4.79634173837384 -1.03441424712471
 1 -2.65120875057506 -3.37551525352535 -2.07605692589259
 1 -0.94993494459446 -4.39600777517752 -2.68793239623962
 1 -2.72739649744974 -3.60846699509951  0.59030627762776
 1  1.13018882558256 -4.99145162766277 -0.28442215971597
 1  2.49518870467047 -5.42017472597260 -1.19882439633963
 1  4.65448986998700 -0.87372342344234  1.16432701890189
 1  5.54990919051905  0.76066050265026  1.68739321002100
 1  4.19978749904991  5.02560302770277  0.01717173447345
 1  5.70244686748675  3.54723744294429 -0.17158063486349
 1  4.65749516691669  4.02487799589959  1.36607791169117
 1  1.83081891389139  4.87102703230323  0.52341212811281
 1 -8.05104787638764 -2.43411940644064  1.17595228922892
 1 -7.33132877717772 -3.98606637253725  1.58004037193719
 1 -6.99060724472447 -3.70464822832283  0.09002059125913
 1 -6.83194053575358 -0.45931626292629  0.26411833973397
 1 -5.02517735953595  1.46309050595060 -0.72222607070707
 1 -6.53126495619562  1.05607323562356 -1.53026970547055
 1 -4.93553204870487  0.17571441764176 -2.03787500020002
 1 -3.72720259955996  6.06324898069807  1.30262796679668
 1 -4.27522520002000  4.35032416461646  0.85411754955496
 1  0.12954752005201  6.36737869776978  1.73855658815882
 1 -1.49493087638764  7.13785048054805  1.01033028942894
 1 -0.11473228562856  6.99108760926092  0.02874920912091
 1 -3.59289958575858  6.25143102620262 -1.34359217531753
 1 -5.06477830093009  6.22035477647765 -0.63776891859186
 1 -4.23041756285629  5.16843833613361 -1.81217095549555
 1  3.84300960746075 -4.63003723392339  2.07481611861186
 1  8.22019926462646 -1.30442109440944  1.56822698529853

