%nproc=4
%Mem=4GB
# td=(NStates=1) B3LYP/SVP 

TD

0 1
 8 -4.51871199199920 -4.71817189838984  1.87330269386939
 8  2.74815541364136 -4.90077462666267  1.29574750655066
 8  7.23096347774777 -1.34673221432143  1.87469769026903
 8  3.76854858765877 -3.16263538873887  0.32926578497850
 8  7.44719347134713 -0.69747112641264 -0.28801837113711
 8 -2.98757908670867  2.43237063456346 -0.29693459805981
 7 -0.30820520222022 -0.59486883668367 -0.46881551775177
 7  1.61303898659866  1.81917429622962 -0.32250391249125
 7 -3.40067701070107 -2.98609765656566  0.73986245754575
 7 -0.68524992789279  2.90721113931393  0.00052502860286
 6  0.63310454285429 -2.49240467876788 -1.24814689778978
 6  0.93501243504350 -1.20050000110011 -0.77294985028503
 6 -0.71820614571457 -2.70769465886589 -1.17781798119812
 6 -1.34708681488149 -1.45051869376938 -0.71181264716472
 6  3.79203714501450  1.41061554685469 -0.35230144654465
 6  2.53876456945695  0.72912424422442 -0.50831238983898
 6  2.17483448774877 -0.51209735553555 -0.88271051605161
 6  3.61485532243224  2.72920092829283 -0.07205797869787
 6  1.69029018151815 -3.37983324912491 -1.88189839083908
 6 -5.60088942414241 -2.62776468606861  1.23471341134113
 6 -3.68759082198220 -1.69456451845185  0.14562834783478
 6  2.16418067826783  2.97926435463546 -0.11061853885389
 6 -5.10595679197920 -1.55731123432343  0.36336497539754
 6  5.11572005010501  0.59479914991499 -0.51627468386839
 6 -2.75859682188219 -0.98917568916892 -0.55543595799580
 6 -1.54165210291029 -3.90116461876188 -1.83997724142414
 6 -4.52369983678368 -3.63135164086409  1.28142725732573
 6  2.08576905290529 -4.49865208490849 -0.92977583338334
 6  5.52801267756776 -0.03009907380738  0.83820192629263
 6  4.62709849604961  3.81518274957496  0.02505468926893
 6  1.31893313471347  4.10564497199720  0.22403252275228
 6 -7.01261239183918 -3.21797917771777  0.77392685878588
 6 -5.89346794929493 -0.62019674957496 -0.22240371477148
 6 -0.03415840484048  4.07636230783078  0.15908453405341
 6 -0.96567752945294  5.16256734973497  0.53948857745775
 6 -2.26693201940194  4.71224734753475  0.36983838673867
 6  2.91907474877488 -4.06911353045304  0.26989838883888
 6 -5.32258691949195  0.36067129572957 -1.22819388638864
 6  6.88938150435044 -0.67160544464446  0.73414653725373
 6 -3.56786254555456  5.33177947614761  0.57167798289829
 6 -2.13887732403240  3.22070426172617 -0.03471254645465
 6 -0.46539067656766  6.49485335333533  0.96122121192119
 6 -4.24222275917592  5.64450285518552 -0.74988576427643
 1 -0.62333989888989  0.16527223282328 -0.07094764806481
 1  3.17558157275728 -1.13516551865187 -0.90022953155316
 1  2.44316556745675 -2.89598430533053 -2.41929436413641
 1  1.23321010031003 -3.89917183478348 -2.87923028952895
 1 -5.59648145434543 -2.22243063216322  2.39959211971197
 1  5.21764207440744 -0.05463074657466 -1.30120327332733
 1  5.83493545914591  1.23693800310031 -0.94876617621762
 1 -2.79321741744174  0.02543703990399 -0.82271517711771
 1  0.56138246994700  1.65916709970997 -0.72494196629663
 1 -1.48813440464046 -4.59842194639464 -1.00147095279528
 1 -2.46752038173817 -3.73963166516652 -2.22001132133213
 1 -0.86361631273127 -4.17915609000900 -2.49717332033203
 1 -2.58371212901290 -3.47287343574358  0.76206345334533
 1  1.08772457915792 -4.92354483698370 -0.58066178367837
 1  2.61918110391039 -5.19830253875388 -1.42427694159416
 1  4.97357177817782 -0.76077212831283  1.27061764796480
 1  5.83210741034103  0.90157459405941  1.73766823752375
 1  4.14334185448545  4.88988945634563 -0.13216319901990
 1  5.86990361316132  3.72583530273027 -0.40212368916892
 1  4.82058147554755  4.21113662176218  1.16853815771577
 1  1.87967379937994  5.05248517811781  0.18268805570557
 1 -7.93307607920792 -2.39129512401240  1.07982267626763
 1 -7.31776742104210 -4.01547931383138  1.49829219711971
 1 -7.14971315531553 -3.45621338483848 -0.23140155095510
 1 -7.08448579027903 -0.64785511681168  0.00733266116612
 1 -5.03965880768077  1.34647884478448 -0.74011785988599
 1 -6.39873170287029  0.82655028332833 -1.66108278677868
 1 -4.71456995249525  0.04333117931793 -2.03502471517152
 1 -3.43389326862686  6.28156081188119  1.14315201920192
 1 -4.29343702120212  4.47705683788379  1.12353449124912
 1  0.26161072637264  6.42383434333433  1.77921065356536
 1 -1.03843522682268  7.15676237173717  1.32925218161816
 1 -0.19593040544054  7.24981348184818  0.10278661286129
 1 -3.71017131293129  6.40838672177218 -1.19164698079808
 1 -5.33350517361736  6.04469721072107 -0.39593473517352
 1 -4.41537605870587  4.79764125642564 -1.40198993739374
 1  3.29886519301930 -4.58561279147915  2.04383302030203
 1  8.14607185188519 -1.75183583588359  1.50819098169817

