%nproc=4
%Mem=4GB
# td=(NStates=1) B3LYP/SVP 

TD

0 1
 8 -4.61677179797980 -4.74432451365136  1.65951131473147
 8  2.58409900800080 -4.88164271347135  1.34004193599360
 8  7.24642502390239 -1.24062160326033  1.78392861336134
 8  3.50006173897390 -3.05252437763776  0.38617147554755
 8  7.63169192119212 -0.55458683798380 -0.27545711501150
 8 -2.95497582638264  2.44099149664966 -0.22100700530053
 7 -0.27278165986599 -0.59021837163716 -0.63747238343834
 7  1.60329801250125  1.75805818461846 -0.43997565966597
 7 -3.52745968896890 -3.19534858165817  0.52603107440744
 7 -0.67126852975298  2.94872529072907 -0.02613763766377
 6  0.67414864726473 -2.51332677097710 -1.34625670877088
 6  0.93364229802980 -1.11351130223022 -0.95778833413341
 6 -0.70443476857686 -2.63788767816782 -1.31650184958496
 6 -1.30359246544654 -1.37044068596860 -0.74139560546055
 6  3.80938888018802  1.43892837813781 -0.30362657905791
 6  2.53845453845385  0.81247257905791 -0.56371793039304
 6  2.22875988028803 -0.45835198099810 -0.74836708170817
 6  3.60910474737474  2.74505251345135 -0.09441021392139
 6  1.62693384588459 -3.50149541534153 -1.77057725872587
 6 -5.56617595279528 -2.53357526712671  1.28686862686269
 6 -3.56672873577358 -1.87750281228123  0.07958174317432
 6  2.14291855205521  2.95060148834883 -0.00171764876488
 6 -5.00800699699970 -1.53077858105811  0.39695833473347
 6  5.19428790689069  0.69675934593459 -0.48312136853685
 6 -2.72457341954195 -1.00503727532753 -0.57493790819082
 6 -1.47176511421142 -3.93448795109511 -1.71001424512451
 6 -4.55331279807981 -3.67531603730373  1.25436455105511
 6  1.97604808080808 -4.52284450415041 -0.78147100290029
 6  5.59726960326033 -0.05030109400940  0.64505261136114
 6  4.61574736093609  3.88011924322432  0.24039622342234
 6  1.29828106950695  4.03248765626563  0.30829094859486
 6 -7.05219635023502 -3.13021040084008  1.20605007110711
 6 -5.79940854335434 -0.55840056995700 -0.24353582798280
 6 -0.12738772777278  4.07511218281828  0.29830845644564
 6 -1.01355231693169  5.15111620462046  0.57780240884088
 6 -2.21001632783278  4.67008313111311  0.39237063996400
 6  2.78706154745475 -4.09812643174317  0.32831423042304
 6 -5.40061472227223  0.36868209680968 -1.32942400940094
 6  6.87743030923092 -0.70816910101010  0.64134725732573
 6 -3.48940469976998  5.21992829102910  0.60954176927693
 6 -2.01714515081508  3.20169236053605 -0.00486956215622
 6 -0.45116925442544  6.51650551855186  0.92643773357336
 6 -4.14436297319732  5.48744714961496 -0.78601937763776
 1 -0.38774633953395  0.31935764136414 -0.14130468376838
 1  2.84631864646465 -1.11716371847185 -0.88942845144514
 1  2.57708895979598 -3.05499020592059 -2.05976841154115
 1  1.39295607490749 -3.92491440904090 -2.90594296079608
 1 -5.48038984518452 -2.23911230033003  2.42401456195620
 1  5.08529884008401  0.19886460296030 -1.35084823782378
 1  5.77541950755076  1.48655296459646 -0.70743204280428
 1 -3.09360745644564  0.00285478167817 -0.69460236583658
 1  0.77774410611061  1.80467165016502 -0.64195366746675
 1 -1.40791638283828 -4.78515061926193 -0.91594239993999
 1 -2.36726035573557 -3.68471617361736 -1.89749907010701
 1 -0.88755870697070 -4.26393456785678 -2.60119372237224
 1 -2.66788054585459 -3.57557370577058  0.61381862886289
 1  1.14387019371937 -4.78049053155316 -0.16723044054405
 1  2.58934812061206 -5.47091980048005 -1.23510802470247
 1  4.84662908390839 -0.78715476657666  0.68843943014301
 1  5.58331253085309  0.65273971057106  1.71604607530753
 1  4.22490001030103  4.73843431083108 -0.60759074177418
 1  5.59474609740974  3.40448316751675  0.01188771197120
 1  4.46570598799880  4.24033954205421  1.09942124602460
 1  1.92703853585359  5.05292522212221  0.33303309020902
 1 -7.73590636223622 -2.21491748624862  1.55567026102610
 1 -7.24051969626963 -3.94934270017002  2.03117548544855
 1 -7.51108929292929 -3.60070783428343  0.26065765496550
 1 -7.01990933263326 -0.60990132143214 -0.21301937403740
 1 -4.78624346614661  1.08553275017502 -0.80715456355636
 1 -6.32186401610161  0.92833046134613 -1.84478115661566
 1 -4.90702919841984  0.05206205240524 -2.22497371007101
 1 -3.48595847514751  6.09457211301130  1.29807751175117
 1 -4.26804448194819  4.50309944214422  1.07795993379338
 1  0.21471603690369  6.30574253415342  1.75786851935193
 1 -1.33285466876688  7.22947964346435  1.30564982138214
 1  0.03847303490349  6.98783728422842 -0.09170283608361
 1 -3.33383367916792  6.14891077417742 -1.42182999909991
 1 -5.04420624372437  6.11136387738774 -0.87300244194419
 1 -4.30029455055505  4.54534602690269 -1.39281902030203
 1  3.21034634113411 -4.60795502570257  2.07496613361336
 1  8.23200044474447 -1.50486113841384  1.48741890449045

