%nproc=4
%Mem=4GB
# td=(NStates=1) B3LYP/SVP 

TD

0 1
 8 -4.51788190899090 -4.69102918411841  1.87903326692669
 8  2.87406800490049 -4.75541009020902  1.38833676547655
 8  6.95673605500550 -1.73984152525253  1.71067128762876
 8  3.76283801660166 -3.23439256445645 -0.04030117171717
 8  7.68815756775678 -0.50711209050905  0.04678510921092
 8 -3.01740206900690  2.43048044554455 -0.32175708030803
 7 -0.27350173187319 -0.58522787258726 -0.63025166136614
 7  1.55689337203720  1.72943532233223 -0.33757541964196
 7 -3.38456539953995 -3.13571261806181  0.70862933423342
 7 -0.82193359625963  2.86049646784678 -0.06623164706471
 6  0.67273850625063 -2.40944638293829 -1.36472855595560
 6  0.93371230503050 -1.10609056015602 -0.97809036433643
 6 -0.74221854695470 -2.67454134353435 -1.18074827422742
 6 -1.29814192039204 -1.45806944884488 -0.70158162406241
 6  3.79402734403440  1.46694117941794 -0.34838105450545
 6  2.54202489548955  0.78552988478848 -0.64673623222322
 6  2.22677968226823 -0.52314846064606 -0.90324256925693
 6  3.47389122602260  2.81330933913391  0.03326255335534
 6  1.63990514301430 -3.43722898869887 -1.98005820682068
 6 -5.45655499069907 -2.54709661926193  1.44686462646265
 6 -3.62616467936794 -1.90778584058406  0.13612739773977
 6  2.06884114431443  2.93750017821782  0.04506702970297
 6 -5.03819001530153 -1.47802330553055  0.39309794869487
 6  5.11633011111111  0.71629129912991 -0.40716377277728
 6 -2.67238820102010 -1.07882465406541 -0.48484889928993
 6 -1.51569950765077 -3.88299280158016 -1.74803804750475
 6 -4.42283975077508 -3.55280378607861  1.42224133873387
 6  2.07245772177218 -4.49963218291829 -1.02226508230823
 6  5.37667754405441 -0.18189425332533  0.82327043314331
 6  4.51973775997600  3.88907013831383  0.46282846664666
 6  1.32512375377538  4.11309571707171  0.13048316781678
 6 -6.87550868146815 -3.10569794959496  1.17937740384038
 6 -5.72789139163916 -0.55019974987499 -0.26289776417642
 6 -0.03999898889889  4.04314898649865  0.16412503810381
 6 -1.06079704140414  5.18537963096310  0.42827745634563
 6 -2.28053337953795  4.58916503930393  0.35852725562556
 6  2.91208404970497 -4.10710732983298  0.15368676767677
 6 -5.30593525432543  0.47861308990899 -1.23228429542954
 6  6.74739730593059 -0.81795007910791  0.77483060566057
 6 -3.61537729702970  5.28231452965297  0.55533634873487
 6 -2.09129256555656  3.19044123542354 -0.06543561876188
 6 -0.64438857635764  6.58177204520452  0.76681177097710
 6 -4.07340587748775  5.80909931483148 -0.89928070377038
 1 -0.24959252415242  0.49664537013701 -0.49791034433443
 1  3.11095511011101 -1.21879388148815 -1.23708321692169
 1  2.54608585948595 -3.06959166606661 -2.55349778447845
 1  1.07137391669167 -4.09826174377438 -2.71941430793079
 1 -5.46016782298230 -1.96568495759576  2.35084724522452
 1  5.56592690289029  0.13468818531853 -1.42110526352635
 1  6.04704667026703  1.41421573087309 -0.14694599419942
 1 -2.99889798549855  0.00154465066507 -0.44070697629763
 1  0.52679901160116  1.79188037103710 -0.51138061016101
 1 -1.27171276247625 -4.85621772597260 -1.10632143784378
 1 -2.65572920262026 -3.61784948694869 -1.74296361656166
 1 -1.33365331643164 -4.10783895829583 -2.76803040604060
 1 -2.55838959675968 -3.69757590599060  0.56273352035203
 1  1.20174598129813 -5.08412089458946 -0.58030174767477
 1  2.56018520432043 -5.43056576507651 -1.50062457635764
 1  4.82576699769977 -1.15551160226023  0.70688127432743
 1  5.23699789938994  0.57819225582558  1.62100657135714
 1  4.27229474977498  4.97147761516152  0.02964298159816
 1  5.55060168296830  3.57592031123112  0.16391291449145
 1  4.60702011941194  3.91491699979998  1.61173247714771
 1  1.77900373237324  4.91128105770577  0.61457124402440
 1 -7.57999077067707 -2.21956795129513  1.23024771877188
 1 -7.17635327962796 -3.82993075897590  1.91694406230623
 1 -6.94970315431543 -3.49696746024602  0.22878446764676
 1 -6.83956129782978 -0.67304763606361 -0.16450452255226
 1 -4.57998284008401  1.32414661156116 -0.94864871297130
 1 -6.31996382608261  1.01789941824182 -1.47671434993499
 1 -4.77553604910491 -0.10687384118412 -2.15834704740474
 1 -3.54504438373837  6.04521717751775  1.32440014401440
 1 -4.34465214271427  4.50295942814281  0.95350748854886
 1  0.03955852115212  6.44284624452445  1.87438017051705
 1 -1.53428481178118  7.38499519501950  0.95889514591459
 1 -0.13786459885989  7.01098959945995  0.04372070627063
 1 -3.40175047084708  6.61611749484948 -1.39478729482948
 1 -5.10069189228923  6.42764550555056 -0.77073221492149
 1 -4.34133865496550  4.87404889718972 -1.64236397479748
 1  3.50430573707371 -4.42257648784878  1.96931556855686
 1  7.97588483318332 -1.85742639493949  1.82102226482648

