%nproc=4
%Mem=4GB
# td=(NStates=1) B3LYP/SVP 

TD

0 1
 8 -4.42492261306131 -4.73718379957996  1.77876323992399
 8  3.08247884598460 -4.88549309850985  1.34818275007501
 8  7.08470885228523 -1.73992153325333  1.60874109460946
 8  3.75316704950495 -3.13861298649865  0.00157301570157
 8  7.64847359935994 -0.41773315261526 -0.25096466576658
 8 -2.97588791759176  2.34860225772577 -0.21669657425743
 7 -0.32550693239324 -0.50960030983098 -0.53065170137014
 7  1.60213789648965  1.86342872167217 -0.18631029312931
 7 -3.53772071507151 -3.04619366616662  0.56188465976598
 7 -0.73293469636964  2.92768318651865 -0.07882290619062
 6  0.68240947334733 -2.46495193349335 -1.31320340344034
 6  0.88920785458546 -1.11603155425543 -0.91783433873387
 6 -0.74164848994899 -2.64832872227223 -1.17424762416242
 6 -1.35665777197720 -1.42365600750075 -0.70003146904690
 6  3.82552049334933  1.36790127542754 -0.29200541694169
 6  2.48699939293929  0.80565189698970 -0.46585814441444
 6  2.15419242354235 -0.45490163596360 -0.84489673467347
 6  3.67425126202620  2.70846885508551  0.01917114421442
 6  1.59323047554755 -3.51033629942994 -1.71870207120712
 6 -5.55098443364336 -2.57630954055406  1.38027796779678
 6 -3.70228229112911 -1.81949701170117  0.09004278927893
 6  2.18998325852585  2.98376480468047  0.04178670167017
 6 -5.12019821612161 -1.43341884508451  0.39119775867587
 6  5.15832431053105  0.58241791179118 -0.38265132153215
 6 -2.74172513471347 -0.96502327392739 -0.41696211061106
 6 -1.57474541224122 -3.83039754205421 -1.79590283398340
 6 -4.47769523632363 -3.61683018871887  1.27836695129513
 6  1.87012748874888 -4.49552177187719 -0.71800465626563
 6  5.58023790009001 -0.01735779967997  0.88025613171317
 6  4.70171595779578  3.72686391769177  0.23010519431943
 6  1.34421566296630  4.10259466696670  0.35019513901390
 6 -6.94951608220822 -3.05584296409641  0.99762922902290
 6 -5.80738934143414 -0.53319804970497 -0.22784425882588
 6 -0.09368435743574  4.08325299689969  0.19586821242124
 6 -0.97882884458446  5.13952504550455  0.55708033663366
 6 -2.22497782398240  4.66383250605061  0.35507691059106
 6  2.98668150945094 -4.07348396749675  0.19781118011801
 6 -5.45448010881088  0.31076630523052 -1.34574564156416
 6  6.90680324652465 -0.72256054015402  0.68197131973197
 6 -3.55299105840584  5.40986728492849  0.34912572767277
 6 -2.07648108440844  3.20873306460646 -0.02115119031903
 6 -0.57558169566957  6.55646951495150  0.85884097389739
 6 -4.38566710361036  5.42646105100510 -0.89776055175518
 1 -0.54066163106311  0.44167987358736 -0.20778133143314
 1  3.09387340194019 -1.14674667676768 -1.03694320292029
 1  2.59714096499650 -3.09362406930693 -2.10507294199420
 1  1.18313509280928 -3.83251516911691 -2.54906727322732
 1 -5.38740054625463 -2.25322371147115  2.26796895739574
 1  5.16538684888489 -0.32405768926893 -1.12012516551655
 1  6.14240620622062  1.09712402170217 -0.96822812241224
 1 -2.98870696639664  0.06811130733073 -0.53804671027103
 1  0.55241157285729  1.88393957695770 -0.29887936003600
 1 -1.63694928612861 -4.73371547574757 -1.28014882058206
 1 -2.62898652835284 -3.37709541154115 -2.03507282748275
 1 -1.25061501260126 -4.05230340474047 -2.91716531953195
 1 -2.70009376717672 -3.76868301670167  0.46354360136014
 1  1.04157996469647 -4.70791327382738  0.19835611811181
 1  2.23108229402940 -5.55941865036504 -1.14446896079608
 1  4.75747016801680 -0.70778682978298  1.23985457165717
 1  5.72898709830983  0.76051048764877  1.83202767346735
 1  4.33203072337234  4.60119058645865 -0.21860184288429
 1  5.86000262306231  3.51764448364837 -0.00563404020402
 1  4.48657807520752  4.06331183928393  1.10087139103910
 1  1.85838167016702  5.00011994159416  0.65196498339834
 1 -7.78829160076008 -2.14394038853885  1.23584827882788
 1 -7.35201084538454 -3.85595336123612  1.72672504040404
 1 -7.09594777877788 -3.36455421892189 -0.02988139893989
 1 -6.99358670037004 -0.64825515681568 -0.27196526862686
 1 -5.28512335413541  1.36580077697770 -1.08080192829283
 1 -6.25915774547455  0.52836046434643 -2.35218189668967
 1 -4.51398989448945 -0.08885203900390 -1.92058327102710
 1 -3.71591147044704  6.62546520232023  0.76839454345435
 1 -4.18707638513851  4.75326445864586  1.00557269506951
 1 -0.07368280298030  6.59180114001400  1.78246097859786
 1 -1.48371975527553  7.32510920642064  0.90206946334633
 1  0.03049223682368  7.09750825132513 -0.05427909370937
 1 -3.65123541934193  5.88263414651465 -1.78029584568457
 1 -5.29800162326233  6.02778551955195 -0.70285542724272
 1 -4.82549707080708  4.42317380968097 -1.27581732013201
 1  3.90010531703170 -4.39874410461046  1.76153479047905
 1  7.86093333803380 -2.24499515181518  1.56415657825783

