%nproc=4
%Mem=4GB
# td=(NStates=1) B3LYP/SVP 

TD

0 1
 8 -4.48772889368937 -4.69501958315832  1.87652301590159
 8  3.07271786988699 -4.63471802100210  1.47426535833583
 8  7.14428480988099 -1.43304084518452  1.72997321782178
 8  3.87589932273227 -3.13940306550655 -0.07664480608061
 8  7.75776452845284 -0.20676205550555 -0.10051962126213
 8 -3.03998432723272  2.38565596309631 -0.30245515011501
 7 -0.35274965666567 -0.51076042584258 -0.74330296649665
 7  1.52466014871487  1.75480785958596 -0.36487814991499
 7 -3.41908885188519 -2.93003205000500  0.75322379367937
 7 -0.74038544144414  2.99710012821282 -0.18928395229523
 6  0.57664889728973 -2.55719115741574 -1.28964104720472
 6  0.86724565836584 -1.13215316641664 -0.97868042334233
 6 -0.85727005210521 -2.69424331373137 -1.16783698309831
 6 -1.39019112531253 -1.43649729162916 -0.85381684758476
 6  3.75693363466347  1.32530701600160 -0.40003622002200
 6  2.47563825682568  0.75665699749975 -0.55235679427943
 6  2.18003500780078 -0.56736288208821 -0.92998524352435
 6  3.58911274817482  2.67105511371137 -0.06387716061606
 6  1.57452860536054 -3.64135940174017 -1.77492769376938
 6 -5.68505784098410 -2.56223813341334  1.26826676667667
 6 -3.71047311021102 -1.70901596359636  0.17215100010001
 6  2.17340160036004  2.93281971017102 -0.09767724472447
 6 -5.13203940024002 -1.49754525772577  0.23464210311031
 6  4.99097757585759  0.59017868786879 -0.51126418281828
 6 -2.69435039723972 -1.06811358295830 -0.46315673007301
 6 -1.56405434313431 -3.99478398069807 -1.50986423012301
 6 -4.49425689248925 -3.63425193089309  1.23690280488049
 6  1.93096357235724 -4.71282350205021 -0.73122597839784
 6  5.41565144144414 -0.27975403930393  0.75424353045305
 6  4.73206899309931  3.62462369366937  0.27941012481248
 6  1.39494073547355  4.03579798729873  0.31236135563556
 6 -7.03289442004200 -3.18045542534253  0.75791525762576
 6 -5.89582818531853 -0.56277100700070 -0.28776025042504
 6 -0.00822581158116  4.06433110471047  0.22207083268327
 6 -0.96770773247325  5.08319941294129  0.63655828442844
 6 -2.22054738093809  4.60761688448845  0.38618002090209
 6  3.03116595789579 -4.03899051815181  0.31201260026003
 6 -5.31935659645965  0.38280350895090 -1.32805387238724
 6  6.88626119231923 -0.60999928402840  0.71354447704770
 6 -3.55446120542054  5.28648494669467  0.69366018111811
 6 -2.10158359465947  3.17776996829683 -0.05816489168917
 6 -0.50382451995200  6.60855472347235  0.84301939173917
 6 -4.20931946884688  5.86735514041404 -0.57128790449045
 1 -0.47765533043304  0.32324803040304 -0.07643819711971
 1  2.94445846044604 -1.24861686378638 -0.88861837043704
 1  2.47910916181618 -3.17410211711171 -2.35450788548855
 1  1.24187096639664 -4.22503442104210 -2.74687705420542
 1 -5.68087989418942 -2.24131252035203  2.18369052955296
 1  5.25515582578258  0.09603431993199 -1.42221537453745
 1  5.63413537913791  1.54967927722772 -0.51918321792179
 1 -2.82568066376638  0.12786728292829 -0.43016592219222
 1  0.52246857855786  1.83047423042304 -0.27604707680768
 1 -1.42584817601760 -4.65699780398040 -0.55110591629163
 1 -2.72447607730773 -3.61324902690269 -1.77942726292629
 1 -1.14318426952695 -4.51170934533453 -2.45477908090809
 1 -2.49045280308031 -3.54976112451245  0.80551779877988
 1  1.05222102880288 -5.04273675617562 -0.21184490199020
 1  2.32595178097810 -5.63337604610461 -1.22144665856586
 1  4.79232365336534 -1.34987103820382  0.77104769096910
 1  5.26821102070207  0.09976441304130  1.70082455315532
 1  4.63344086438644  4.54035450285029 -0.36896687938794
 1  5.76944356715672  3.15010772997300  0.19861638483848
 1  4.59445886328633  4.35608111621162  1.35606691059106
 1  1.97310314231423  4.93688361796180  0.53632341924193
 1 -7.77498026962696 -2.42566856135614  0.68438313231323
 1 -7.03872951725173 -4.09146691259126  1.43476584448445
 1 -6.98328651265127 -3.75292305580558 -0.24152256305631
 1 -7.03503084478448 -0.63932426372637 -0.26034410651065
 1 -4.45795063686369  1.37999219611961 -0.83207705580558
 1 -6.06853868356836  0.98666629492949 -1.92039871837184
 1 -4.64053254875487 -0.04141729552955 -2.07598881158116
 1 -3.25668554785479  6.05712836863686  1.47633533753375
 1 -4.25527320482048  4.71749088128813  1.44635677347735
 1  0.17157172247225  6.74632659255926  1.91410414291429
 1 -1.44718610191019  7.13345004050405  0.83707296369637
 1  0.08106729432943  6.91689018951895 -0.01025469126913
 1 -3.85546584238424  6.85851173427343 -1.16543435953595
 1 -5.13054487758776  6.26607934893489 -0.49643478517852
 1 -4.44753927502750  5.12379387168717 -1.42967270567057
 1  3.88701400790079 -4.24346857705771  2.16947558455846
 1  8.04623186788679 -1.70596124842484  1.64876503910391

