%nproc=4
%Mem=4GB
# td=(NStates=1) B3LYP/SVP 

TD

0 1
 8 -4.34021414221422 -4.63024310551055  2.07525288888889
 8  2.90267086518652 -4.77231178037804  1.35078301010101
 8  7.10780116151615 -1.51395893699370  1.86582680318032
 8  3.58942067486749 -2.96137526272627  0.18885174357436
 8  7.62693144514451 -0.68349972927293 -0.17213678297830
 8 -2.98014834363436  2.49496689418942 -0.30801570617062
 7 -0.27815219691969 -0.62186153595360 -0.70011864806481
 7  1.53021070377038  1.74332671147115 -0.40066172827283
 7 -3.46252319531953 -3.17591663846385  0.55476394769477
 7 -0.76054745764576  2.93542396059606 -0.06145116901690
 6  0.61634286668667 -2.48914435273527 -1.40434251735174
 6  0.92298123192319 -1.14673462456246 -0.99925248054805
 6 -0.74953927902790 -2.67217110651065 -1.39636983638364
 6 -1.35245735193519 -1.47789143104310 -0.76720818671867
 6  3.83771171247125  1.43742822812281 -0.43328954535454
 6  2.51524221722172  0.78729006080608 -0.55143670227023
 6  2.23656066036604 -0.50079622542254 -1.02682492749275
 6  3.55751958885889  2.72872088028803 -0.03431420432043
 6  1.59902105460546 -3.51896716251625 -1.89939014001400
 6 -5.62297163236324 -2.61432334193419  1.31317125712571
 6 -3.69333139603960 -1.81999706170617  0.15536932193219
 6  2.13595785598560  2.93394982318232  0.00115263826383
 6 -5.09487568386839 -1.50253575677568  0.42045068396840
 6  5.13267174527453  0.67660733073307 -0.47109016541654
 6 -2.70360132233223 -1.10184695629563 -0.39463987838784
 6 -1.53372130983098 -3.86381088338834 -1.76491973567357
 6 -4.46535400220022 -3.62401090679068  1.35883499809981
 6  2.08448892489249 -4.56056827652765 -0.84382723852385
 6  5.50516039233923 -0.05321138503850  0.88575668176818
 6  4.55414120032003  3.81719295059506  0.19548173197320
 6  1.28698994039404  4.06747115461546  0.24412453195320
 6 -6.95939707030703 -3.22371975177518  0.89564903100310
 6 -5.85933453595360 -0.66513124302430 -0.35545702010201
 6 -0.08917390639064  4.01552622422242  0.21223984958496
 6 -0.97545850755076  5.15473656665667  0.57256188478848
 6 -2.16688201440144  4.69492561536154  0.42287369026903
 6  2.86059890119012 -3.94807142624262  0.34012541154115
 6 -5.38157281808181  0.39566479507951 -1.20334140114011
 6  6.78990155635564 -0.76035431953195  0.74895801840184
 6 -3.55308106740674  5.38951524972497  0.56862767786779
 6 -2.08733216951695  3.32054424572457 -0.04437351255125
 6 -0.43939807730773  6.55257912591259  1.02678776857686
 6 -4.14012254915492  5.65271367626763 -0.79419019471947
 1 -0.39145671057106  0.33656936253625 -0.12450300360036
 1  2.97803181778178 -1.22306430853085 -0.99313882248225
 1  2.59268051895189 -3.02300700760076 -2.32385482018202
 1  1.21036781608161 -4.16114803240324 -2.69023138963896
 1 -5.50474228042804 -2.10979936903690  2.38236039653965
 1  5.27187749794979 -0.13129841334133 -1.18373152615262
 1  5.90219218481848  1.60279458875888 -0.58464976457646
 1 -3.07837593329333 -0.14861036483648 -0.63294620022002
 1  0.55143147484748  1.71375255825583 -0.48789826192619
 1 -1.16924251545155 -4.66175828002800 -1.04219502520252
 1 -2.67479110881088 -3.73405110711071 -1.93061238143814
 1 -1.16536648774878 -4.13494166856686 -2.80187379037904
 1 -2.44676843464346 -3.54739088748875  0.75166241324132
 1  0.91143695039504 -5.10989347184718 -0.57863158065807
 1  2.73408259405941 -5.18118082658266 -1.37296181008101
 1  4.70806522752275 -0.76481253235324  1.16236682288229
 1  5.51061526112611  0.70088452505251  1.71183565426543
 1  3.91584910521052  4.78890935833583 -0.21309129182918
 1  5.75939256205621  3.74001672087209 -0.29555303210321
 1  4.59928934633463  3.87280278837884  1.33111441534153
 1  1.82346817881788  4.88537846744674  0.62776256315632
 1 -7.87952072367237 -2.42397839233923  1.11367606160616
 1 -7.21301694599460 -3.99301706760676  1.58643101100110
 1 -6.89502768676868 -3.48921668516852 -0.22214062486249
 1 -7.00072741444144 -0.76489682098210 -0.28562663476348
 1 -5.20835567736774  1.29912410931093 -0.86685053315332
 1 -6.21725355505551  0.65324295259526 -1.95115179367937
 1 -4.76796529202920  0.10668751495150 -2.06005721842184
 1 -3.37440732003200  6.36613926972697  1.06195389938994
 1 -4.14944262176218  4.74582371457146  1.25279741754175
 1  0.45189975527553  6.39741170107011  1.78693142564256
 1 -1.14958634193419  7.33750044554455  1.33854311071107
 1 -0.01290210261026  6.82631113161316  0.05186152035203
 1 -3.39601989778978  6.13255913901390 -1.40634845094509
 1 -5.21915373847385  6.17527026802680 -0.87027216891689
 1 -4.19019354045404  4.74178567086709 -1.29945968436844
 1  3.28065337183718 -4.21870610081008  2.07074571157116
 1  7.98803604830483 -1.77070772307231  1.62554271687169

