%nproc=4
%Mem=4GB
# td=(NStates=1) B3LYP/SVP 

TD

0 1
 8 -4.63939406020602 -4.65037511871187  1.89199456305631
 8  3.01617221532153 -4.61273582278228  1.30952888468847
 8  7.00293067446745 -1.49783732483248  1.91045126562656
 8  3.86183791659166 -3.06555568076808 -0.11059820142014
 8  7.61420017201720 -0.75196657595760 -0.04102367166717
 8 -2.98856918571857  2.35485288278828 -0.19458436303630
 7 -0.29284366606661 -0.61189053885389 -0.54552318851885
 7  1.63632131483148  1.76442882168217 -0.28534019611961
 7 -3.54497144014401 -3.16244529132913  0.58142661396140
 7 -0.67414881778178  2.87734815301530 -0.00371539543954
 6  0.60627185958596 -2.45641107940794 -1.44638672177218
 6  0.89825875967597 -1.18594854595460 -0.90922347764777
 6 -0.77190151525153 -2.64339822922292 -1.18050825022502
 6 -1.28648075427543 -1.51680532243224 -0.65624709060906
 6  3.77045498679868  1.46008049334933 -0.36483269966997
 6  2.51262195519552  0.80230156195620 -0.61801335993599
 6  2.19885688998900 -0.50613675947595 -0.87078932393239
 6  3.61348518541854  2.78664667286729 -0.09073984688469
 6  1.58168932143214 -3.49794506030603 -1.93119332033203
 6 -5.65055439063906 -2.48225013461346  1.37857779777978
 6 -3.60107217011701 -1.83136819881988  0.14667845284528
 6  2.13250751095110  2.95196162436244  0.04371689468947
 6 -5.11312750905090 -1.50502600580058  0.37498613751375
 6  5.07955643374337  0.71338100810081 -0.51274433083308
 6 -2.63432439463946 -1.07486425802580 -0.38069848424842
 6 -1.57278521622162 -3.76429093139314 -1.78517176087609
 6 -4.54372183898390 -3.53501200690069  1.41836095069507
 6  2.02755323132313 -4.57072929262926 -0.90292314811481
 6  5.45966584288429 -0.04259032293229  0.83167127322732
 6  4.63113890009001  3.86635786708671  0.15186737053705
 6  1.38228947034703  4.08733314081408  0.30506062556256
 6 -7.02958408900890 -3.03603098289829  1.07931739783978
 6 -5.76023462596260 -0.61952668256826 -0.32929440384038
 6 -0.04170915991599  3.96781145274527  0.27281590719072
 6 -1.03249421112111  5.11300239323932  0.40989561816182
 6 -2.21785711191119  4.59045516831683  0.33384478737874
 6  3.15538838013801 -3.97569418851885  0.10256165516552
 6 -5.39914457525753  0.37480270887089 -1.41696276327633
 6  6.77463002920292 -0.76714499859986  0.80782390499050
 6 -3.55802156145615  5.29434573277328  0.52042285738574
 6 -2.06671010731073  3.12245443674367  0.03519444424442
 6 -0.64575871337134  6.46126999499950  0.86264135393539
 6 -4.16331486838684  5.61418982388239 -0.76558733443344
 1 -0.33476104100410  0.34276998259826 -0.15702625592559
 1  3.08173218781878 -1.08801080318032 -1.16474598319832
 1  2.56373762466247 -3.11629633653365 -2.52141457615762
 1  1.09674645394539 -4.03711562916292 -2.70950331683168
 1 -5.43561536773677 -2.18211660076008  2.42624478497850
 1  5.11564187438744  0.14128884538454 -1.38909206220622
 1  5.90253221882188  1.39508381768177 -0.48169946954695
 1 -2.81346944264426 -0.05679118291829 -0.30100300590059
 1  0.54389072077208  2.06581776477648 -0.52408188028803
 1 -1.17664325552555 -4.75994809900990 -1.29181998769877
 1 -2.67226085578558 -3.54856255825583 -1.55242456265627
 1 -1.41635158625863 -3.86057423182318 -2.94869847284728
 1 -2.63459721752175 -3.68125427382738  0.71889913691369
 1  1.13444925162516 -4.81198368086809 -0.30789450695070
 1  2.43135232103210 -5.43467617611761 -1.27693220712071
 1  4.68588300930093 -0.91487753885389  1.08142872907291
 1  5.52777697729773  0.61694613121312  1.67398186888689
 1  4.38452597289729  4.69256972437244 -0.40623060576058
 1  5.60833745654566  3.39433215241524 -0.08628210501050
 1  4.65209462686269  4.16531203930393  1.20146145004500
 1  1.92022785478548  4.99246917651765  0.54155394229423
 1 -7.77010978257826 -2.08908490299030  1.29915460946095
 1 -7.32232787708771 -3.74798256415642  1.78661102900290
 1 -7.13635181918192 -3.34650241374137  0.11238282748275
 1 -6.89855719741974 -0.52879321062106 -0.25812388448845
 1 -4.89910475227523  1.20448464536454 -0.94453830193019
 1 -6.20123195289529  0.62484011231123 -2.11167784628463
 1 -4.36101459695970  0.00264711091109 -1.97758897159716
 1 -3.50734061336134  6.33293594939494  1.23367107110711
 1 -4.19886756425643  4.66956608880888  1.08602073987399
 1 -0.09294472917292  6.56558851875188  1.70221295379538
 1 -1.61036241954195  7.01072776827683  1.15905516191619
 1 -0.08237905030503  7.18830733123312  0.08711504570457
 1 -3.62964326012601  6.30419630273027 -1.61468928502850
 1 -5.02302412551255  6.05287802880288 -0.58693383508351
 1 -4.37376189728973  4.61306279857986 -1.34139387778778
 1  3.73717902440244 -4.32911714191419  1.96490512751275
 1  7.80344758945895 -1.93588424072407  1.70754091669167

