%nproc=4
%Mem=4GB
# td=(NStates=1) B3LYP/SVP 

TD

0 1
 8 -4.47771789258926 -4.88970905210521  1.90528589218922
 8  2.97917851595160 -4.80731528072807  1.28599653145315
 8  6.83217359875988 -1.55446298739874  1.87728794929493
 8  3.80938267106711 -3.08547767296730  0.19849270767077
 8  7.55908466046605 -0.75968734803480 -0.12672224152415
 8 -3.00086041484148  2.56014341184118 -0.30137504210421
 7 -0.30576495819582 -0.57391674147415 -0.60160879707971
 7  1.51590927362736  1.78740111891189 -0.31478314041404
 7 -3.50458740174017 -3.31068011481148  0.49177764906491
 7 -0.75722712561256  2.93744416261626 -0.05156017991799
 6  0.63956518891889 -2.43158859715972 -1.41545362846285
 6  0.89247818161816 -1.15246519761976 -1.00821337663766
 6 -0.74077840294029 -2.70683457285729 -1.18577877727773
 6 -1.30037214341434 -1.42313595549555 -0.67521898779878
 6  3.79581752305231  1.39139362466247 -0.42083830023002
 6  2.38638933193319  0.85040637243724 -0.69314087268727
 6  2.09518652295230 -0.46211235703570 -0.98177042204220
 6  3.59826366326633  2.71206921512151  0.06832605970597
 6  1.70540169266927 -3.41737700350035 -1.97467766876688
 6 -5.52575191039104 -2.73082499209921  1.41357129712971
 6 -3.70181224412441 -1.93194825682568  0.08680246524652
 6  2.14866912711271  2.99036546474647 -0.00700817781778
 6 -5.06549274557456 -1.52700820402040  0.42297093599360
 6  5.12378085618562  0.71304097409741 -0.45645870227023
 6 -2.62545350755076 -1.11829860146015 -0.39768018241824
 6 -1.45970390809081 -3.95805030733073 -1.79589283298330
 6 -4.49209667646765 -3.80231873757376  1.31153026762676
 6  2.16358683468347 -4.51391361106111 -0.94881773757376
 6  5.37410728702870 -0.00772683658366  0.84055216131613
 6  4.67178296449645  3.70574180548055  0.35064724852485
 6  1.29189043044304  4.16013042054205  0.31947206670667
 6 -7.01663279387939 -3.16781416121612  1.22575204130413
 6 -5.84695329782978 -0.61800653055306 -0.05082655705571
 6 -0.04892988198820  4.08423309490949  0.24387301290129
 6 -0.98010897259726  5.25639673267327  0.49143377197720
 6 -2.14661998819882  4.78089421222122  0.23903530643064
 6  3.05044788608861 -4.09967658675868  0.12642404140414
 6 -5.40704536533653  0.49291452005201 -1.13897496449645
 6  6.75851841804180 -0.76569485358536  0.83526664926493
 6 -3.54072983228323  5.41591788998900  0.31685250035003
 6 -2.04302773907391  3.32636482778278 -0.08024709990999
 6 -0.46611074857486  6.62249611761176  0.86422151195120
 6 -4.14618315521552  5.94724312921292 -0.92557333303330
 1 -0.46817438233823  0.39803550915091 -0.23711426472647
 1  3.10959497409741 -1.23811581368137 -1.28909841844184
 1  2.64728597949795 -2.68060276717672 -2.26650908560856
 1  1.31634841414141 -4.13334525212521 -2.89730209670967
 1 -5.52024383058306 -2.36064445354535  2.21675383588359
 1  5.10535084528453 -0.20813609710971 -1.14177733073307
 1  5.84232619821982  1.41697600690069 -0.68218951855185
 1 -3.07556565226523  0.10052454865487 -0.47814071967197
 1  0.49308564026403  2.18355953895390 -0.60315978807881
 1 -1.33266885808581 -4.90192229642964 -1.11167197289729
 1 -2.62643627332733 -3.69006670867087 -1.75449476967697
 1 -0.97608755985599 -4.26052422682268 -2.66577018001800
 1 -2.53674743254325 -3.68608475687569  0.79800704770477
 1  1.29549535623562 -5.09923240574057 -0.52250596809681
 1  2.63663284908491 -5.22646535503550 -1.43369788368837
 1  4.67416183718372 -0.94201025212521  1.31670225642564
 1  5.28282248184819  0.44020845744574  1.82436690739074
 1  4.40077759805981  4.62478294569457 -0.28051803450345
 1  5.59904652745275  3.04388710791079  0.30832735593559
 1  4.88983840124012  4.12979848794879  1.41790309420942
 1  1.98679451145115  5.04932486208621  0.58345813271327
 1 -7.56809958155816 -2.27938393289329  1.42329702370237
 1 -7.29294493879388 -4.01985975187519  1.91037340524052
 1 -7.38088627262726 -3.63909167266727  0.18852044124412
 1 -6.92799014071407 -0.67000733203320  0.26723865176518
 1 -4.97714255605560  1.29329352625263 -0.63647749584959
 1 -6.29014084378438  0.97372500080008 -1.64014069256926
 1 -4.51548004350435  0.01728857505751 -1.79843105580558
 1 -3.59313919321932  6.24688734453445  0.91675937993799
 1 -4.38378605610561  4.76750588278828  0.90249238703870
 1  0.17942250755076  6.91427338723873  1.91334406690669
 1 -1.43478486178618  7.31235793129313  0.83121237763776
 1  0.11651083868387  7.03618211871187  0.04235056925693
 1 -3.62878317411741  6.61137702080208 -1.46299411551155
 1 -5.14414623772377  6.58290103110311 -0.72388753045305
 1 -4.53626814791479  5.05203669596960 -1.70262000040004
 1  3.55042034853485 -4.29289351955195  1.96113475047505
 1  7.81629887458746 -1.97141779407941  1.87001716431643

