%nproc=4
%Mem=4GB
# td=(NStates=1) B3LYP/SVP 

TD

0 1
 8 -4.52859298009801 -4.71488156935694  1.93230859445945
 8  2.88094869296930 -5.07967251645164  1.18454638643864
 8  7.07937831923192 -1.25129267036704  1.99370959145915
 8  3.66066779957996 -3.16508563376338  0.17325018341834
 8  7.53441219321932 -0.65279665896590 -0.26672624192419
 8 -3.00304063286329  2.53333073057306 -0.04687959255926
 7 -0.32152653435344 -0.63699304910491 -0.53171180738074
 7  1.50807849054905  1.79530190899090 -0.16513817591759
 7 -3.35077202020202 -3.11373041984198  0.65756422772277
 7 -0.67093849674967  2.98937935613561 -0.02319734363436
 6  0.61719295169517 -2.45778121642164 -1.38307039013901
 6  0.92896182998300 -1.07702765386539 -0.96746930223022
 6 -0.73947827292729 -2.59566345574557 -1.20515071447145
 6 -1.26792889908991 -1.49965360726073 -0.71017248314831
 6  3.84484242554255  1.47488197349735 -0.37236345274527
 6  2.52017271027103  0.84308564036404 -0.42636419501950
 6  2.22206921122112 -0.45472161796180 -0.88819106410641
 6  3.56190002690269  2.79889789798980  0.03191241834183
 6  1.55328648114811 -3.51024629042904 -2.05509571057106
 6 -5.56031536673667 -2.67593950355036  1.29520946094609
 6 -3.63537560046005 -1.86763182518252  0.13223700870087
 6  2.11040530073007  2.97361378957896  0.01079360236024
 6 -5.11962815911591 -1.53996950015002  0.40279891879188
 6  5.08155663376338  0.70160983098310 -0.37634069046905
 6 -2.67924888708871 -1.03331010261026 -0.43670408480848
 6 -1.40832877057706 -3.86959146144614 -1.77779102280228
 6 -4.47604507130713 -3.71627013271327  1.30584969956996
 6  1.97259773577358 -4.54484670437044 -1.01602445824582
 6  5.39556943324332 -0.21909797369737  0.82873097919792
 6  4.67920370657066  3.79352058335834  0.31717390119012
 6  1.38499974137414  4.20362476997700  0.13118323782378
 6 -6.98800993159316 -3.26075345514551  1.13058252435244
 6 -5.89890849334934 -0.62802753265327 -0.26269774417442
 6 -0.05668065706571  4.11166583818382  0.20518914451445
 6 -0.92263322502250  5.28219931293129  0.42258688728873
 6 -2.19658498469847  4.75225134793479  0.32543394629463
 6  2.87849069036904 -4.09651627072707  0.12763416241624
 6 -5.46898155895590  0.26765199379938 -1.30614168116812
 6  6.75304787098710 -0.69632791689169  0.71552467506751
 6 -3.55866162546255  5.42510880908091  0.44160497559756
 6 -2.01759519581958  3.28428061936194  0.13012393719372
 6 -0.38522265976598  6.65422929092909  0.68437352715272
 6 -4.14605314221422  5.63867227212721 -0.98772954865487
 1 -0.74388195309531  0.27383308890889 -0.05545609890989
 1  3.04671868646865 -1.33420542264226 -0.97952746134613
 1  2.40128137903790 -3.10023473037304 -2.64171660636064
 1  0.90997777707771 -4.06301821942194 -2.81496386288629
 1 -5.62203400960096 -2.31759014811481  2.25633779427943
 1  5.06193650385038  0.05945066156616 -1.22757591059106
 1  6.00066203180318  1.17870217951795 -0.61916321592159
 1 -2.85810390609061 -0.02269777357736 -0.68698160376038
 1  0.48682501420142  1.90044122712271 -0.38273774587459
 1 -1.35855144634464 -4.80089219341934 -1.14213501920192
 1 -2.47073070277028 -3.82792049404940 -1.68912823302330
 1 -0.89059901100110 -4.07987616201620 -2.80592419541954
 1 -2.47446120392039 -3.80625677407741  0.52411965896590
 1  1.12261806850685 -5.13776625912591 -0.76127984548455
 1  2.74235342114211 -5.22203491199120 -1.39168368226823
 1  4.76645106610661 -1.03960001110111  0.88168875507551
 1  5.47112131173117  0.28578301490149  1.73374784548455
 1  4.55983350365037  4.49593006040604 -0.36984696739674
 1  5.73394001680168  3.29730244944494  0.50874739793979
 1  4.51316073347335  4.29675518361836  1.38106941084108
 1  1.83254908690869  5.11172110171017  0.37266705360536
 1 -7.73702647424742 -2.59508550305030  1.69501419541954
 1 -6.89457510181018 -4.18607637353735  1.75530789868987
 1 -7.44390257425743 -3.51452921642164  0.09177076627663
 1 -6.94257159885989 -0.70561089238924 -0.13262133423342
 1 -5.12583742554255  1.04104830173017 -0.84475832393239
 1 -6.35226705640564  0.72840046834683 -1.86833351185119
 1 -4.94193268876888 -0.08920207400740 -2.32435364806481
 1 -3.63342322162216  6.32027468326833  1.13264096809681
 1 -4.24536221372137  4.74830396259626  0.77660979877988
 1  0.25143970927093  6.52505446534653  1.65208794129413
 1 -1.37322870617062  7.26504319981998  0.97126638303830
 1  0.24621380898090  7.24257275777578  0.02857919211921
 1 -3.49197949374937  6.42723860696070 -1.35016283238324
 1 -5.13129495259526  6.02000474147415 -0.64927006870687
 1 -3.94336885798580  4.70713220552055 -1.79600933933393
 1  3.38145345184518 -4.62993722392239  1.79555819281928
 1  8.02594983968397 -1.67000765306531  1.98281844444444

