%nproc=4
%Mem=4GB
# td=(NStates=1) B3LYP/SVP 

TD

0 1
 8 -4.54345446624662 -4.77551763296330  1.79446481008101
 8  2.89926052415242 -4.76198074727473  1.36159409120912
 8  6.99173955535554 -1.54969251035104  1.83834405490549
 8  3.82149388218822 -3.08878800400040  0.14238709710971
 8  7.75334408640864 -0.67520890019002 -0.14089365866587
 8 -3.08100842964296  2.60866826432643 -0.17286219081908
 7 -0.33522790449045 -0.64403375317532 -0.55394403060306
 7  1.51336901960196  1.75704808360836 -0.39331099319932
 7 -3.42451939493949 -3.25158420522052  0.42718118941894
 7 -0.71876327922792  2.96385680388039  0.01705668176818
 6  0.61162239463946 -2.47957339563956 -1.40350243334333
 6  0.87448638243824 -1.18279823092309 -0.87874042934293
 6 -0.77506183128313 -2.64551844124412 -1.42933313271327
 6 -1.39894200040004 -1.56740038193819 -0.78596006190619
 6  3.81869981128113  1.42058654395440 -0.33729994639464
 6  2.44863555655566  0.71912324412441 -0.47339889848985
 6  2.18039504380438 -0.60404655045505 -0.85274751975198
 6  3.52075591249125  2.81697970617062 -0.15977675057506
 6  1.64918607110711 -3.48570383618362 -1.77009721072107
 6 -5.53637297249725 -2.65944785438544  1.37723766376638
 6 -3.64364642754275 -1.89208427042704  0.14104788978898
 6  2.10761502170217  2.98685511371137 -0.08117559455946
 6 -5.05008120442044 -1.54535003820382  0.44560319921992
 6  5.09153763186319  0.70911058105811 -0.48535159155916
 6 -2.78303926612661 -1.08850562216222 -0.44262467686769
 6 -1.34155209290929 -3.94359886218622 -2.00130337403740
 6 -4.47533500030003 -3.70390889658966  1.29530864546455
 6  2.15117559355936 -4.54899711941194 -0.79746260206021
 6  5.37479735603560 -0.08231429532953  0.72358046414641
 6  4.49864565076508  3.89571080238024  0.32907509130913
 6  1.32366360776078  4.06963137063706  0.26068618811881
 6 -6.96289742034203 -3.12486986678668  0.99614908100810
 6 -5.92708131063106 -0.67365209510951 -0.07479895429543
 6 -0.01183617261726  4.02003667526753  0.29415804140414
 6 -0.95174613631363  5.20167126012601  0.48019264786479
 6 -2.18409373557356  4.84999112191219  0.36179758265827
 6  3.04369721102110 -4.03261988108811  0.29635103410341
 6 -5.61621628242824  0.56204143274327 -1.01091215821582
 6  6.83072563876388 -0.71589987408741  0.79305242784278
 6 -3.48278403770377  5.52093839203920  0.42669348444844
 6 -2.10264370067007  3.37334952625263  0.03937486228623
 6 -0.37586172367237  6.58445231323132  0.73551864166417
 6 -4.10272880978098  5.57896630153015 -0.88604938063806
 1 -0.59436700160016  0.33352905850585 -0.19120967426743
 1  2.93166718131813 -1.30828283038304 -0.88013752235224
 1  2.55697694859486 -3.06819152605261 -2.36238867356736
 1  1.33445022432243 -3.94313623122312 -2.61037340384038
 1 -5.73325513171317 -2.15591398049805  2.46757891839184
 1  5.11468177837784  0.10173488998900 -1.40132328532853
 1  5.71754371997200  1.37787209650965 -0.66201750135013
 1 -2.96549464516452 -0.07383288708871 -0.39455236083608
 1  0.52144847654765  1.94150533353335 -0.38315778787879
 1 -1.55506109730973 -4.56407851205121 -1.06903770947095
 1 -2.16979060876088 -3.94638234023402 -2.67274659485949
 1 -0.46792674377438 -4.33548172257226 -2.68916251925193
 1 -2.57133089088909 -3.72135828422842  0.47184443144314
 1  1.37475328202820 -5.11860434293429 -0.21941565906591
 1  2.74477366316632 -5.42114482298230 -1.14762927682768
 1  4.88503292429243 -1.05176122722272  0.79504009020902
 1  5.07122132173217  0.31022545914591  1.58376284698470
 1  4.67168468876888  4.66571703910391 -0.42684266696670
 1  5.58208483128313  3.47255997519752  0.58304482768277
 1  4.22299171657166  4.34714022212221  1.37011831573157
 1  1.77590342234223  5.21633156275628  0.48628841574157
 1 -7.33950672227223 -2.07624361886189  1.09882457645765
 1 -7.30153579787979 -3.92247001290129  1.76861922982298
 1 -7.14027221122112 -3.61513927742774 -0.00249866066607
 1 -6.88783612531253 -0.83453378467847  0.27180910881088
 1 -4.97922276407641  1.28405260216022 -0.37872172027203
 1 -6.50217204690469  1.10998862716272 -1.48433511201120
 1 -4.99640813631363  0.14193103930393 -1.83779499219922
 1 -3.32469234853485  6.55244790059006  0.80052775677568
 1 -4.04994267176718  4.85783491569157  1.19476161396140
 1 -0.09947538223822  6.47707966786679  1.83383611611161
 1 -1.05428681198120  7.28409510501050  0.83428268466847
 1  0.40408959655966  6.98715721622162 -0.03324699049905
 1 -3.54947524332433  6.35937182028203 -1.50582839893989
 1 -5.22175399849985  6.03471621262126 -0.94772991469147
 1 -4.03076759785979  4.93264475677568 -1.53191292969297
 1  3.57523282978298 -4.38005223542354  1.94418305530553
 1  7.91088833353335 -1.88540919321932  1.74494465706571

