%nproc=4
%Mem=4GB
# td=(NStates=1) B3LYP/SVP 

TD

0 1
 8 -4.60789090989099 -4.92090217141714  1.64348971257126
 8  3.01982258035804 -4.83064761396140  1.28899683148315
 8  6.97550793219322 -1.30985852695270  1.99946016651665
 8  3.72131386418642 -3.08766789198920 -0.03779092069207
 8  7.60893964596460 -0.64349572887289 -0.05862543184318
 8 -2.97630795959596  2.55816321382138 -0.36033093769377
 7 -0.29862424412441 -0.61444079387939 -0.45542417861786
 7  1.56745442814281  1.81961434023402 -0.32402406450645
 7 -3.45253219621962 -3.10747979477948  0.67409588088809
 7 -0.71097250015002  2.89125954415442 -0.22182720662066
 6  0.58207944034403 -2.38975441374137 -1.38115019811981
 6  1.00545947974797 -1.11851180228023 -0.94443699899990
 6 -0.77617194229423 -2.60508439783978 -1.14025422482248
 6 -1.27890999719972 -1.45227886978698 -0.63125459135914
 6  3.79715765706571  1.39641412671267 -0.34406062246225
 6  2.43828452145215  0.74828616041604 -0.59148070667067
 6  2.25068207250725 -0.46212235803580 -0.98067031203120
 6  3.58151198809881  2.73635164336434  0.05485471257126
 6  1.64233538603860 -3.43050831663166 -1.91132133313331
 6 -5.62018135333533 -2.64430634023402  1.34404434443444
 6 -3.61979404230423 -1.79442450445044  0.19204298929893
 6  2.20043430363036  3.00464689288929  0.03604612761276
 6 -5.02074827112711 -1.52053755695570  0.42313095199520
 6  5.14034251235123  0.65715538553855 -0.49366242264226
 6 -2.59693065526553 -1.09196596819682 -0.33132354675468
 6 -1.55502344004400 -3.80143464576458 -1.72037528122812
 6 -4.59186665346535 -3.76908541424142  1.25569468406841
 6  2.09970044604460 -4.61971419111911 -0.92347520332033
 6  5.34491436773677 -0.25205126902690  0.65863396949695
 6  4.55986177237724  3.89387061836184  0.27995017881788
 6  1.35749699109911  4.12580698819882  0.22870298979898
 6 -7.13460459105911 -3.17942532233223  1.26567603370337
 6 -5.88705730823082 -0.53740847074707 -0.11597307170717
 6  0.00444545554555  4.00215488708871  0.11895052065206
 6 -0.91397235893589  5.18208930193019  0.51310593919392
 6 -2.13565889208921  4.65435155795580  0.34198560146015
 6  2.98914175547555 -4.09924654375437  0.19898129712971
 6 -5.49075373617362  0.43795902450245 -1.23471453845385
 6  6.80321288748875 -0.73452173627363  0.78799192179218
 6 -3.55302106140614  5.32983928212821  0.45366618171817
 6 -2.02130556685669  3.29477166846685 -0.13669274447445
 6 -0.46209034653465  6.57367123512351  0.92267735753575
 6 -4.16308484538454  5.62537094199420 -0.91498227392739
 1 -0.70857842274227  0.25354105970597  0.03710315701570
 1  3.12706672127213 -0.95045704780478 -0.90697020562056
 1  2.47029828072807 -2.92913762066207 -2.34973740844084
 1  1.16726350565056 -3.83273519111911 -2.78150051655165
 1 -5.50549235543554 -2.20737912701270  2.36169833033303
 1  5.09270958115812  0.17957267376738 -1.55863901690169
 1  5.90770273587359  1.38360266956696 -0.47963926352635
 1 -2.86184428012801 -0.01061656545655 -0.68475138073807
 1  0.55961229292929  1.98082926592659 -0.74533400550055
 1 -1.51237682888289 -4.73482558675868 -0.92669347504750
 1 -2.54886851655165 -3.32100980298030 -1.91148046824682
 1 -1.00149010011001 -4.17758593299330 -2.66671027402740
 1 -2.63530728852885 -3.71243739213921  0.51218846584658
 1  1.17716352305231 -5.17018950145015 -0.50048376587659
 1  2.78880806660666 -5.23063577207721 -1.61385589948995
 1  4.72422684368437 -1.26300235133513  0.62603318951895
 1  5.04135833543354  0.24653909050905  1.56720119081908
 1  4.07860538083808  4.96185665306531 -0.27726770947095
 1  5.41089771257126  3.40559327852785 -0.20239371617162
 1  4.58250766816682  4.04924043214321  1.48940024392439
 1  1.94262009400940  5.01402133173317  0.46773656055606
 1 -7.73416618821882 -2.25020101460146  1.38033272727273
 1 -6.93118876317632 -3.95601336723672  2.10680304820482
 1 -7.29294747874787 -3.85170293379338  0.17000859005901
 1 -6.91746908860886 -0.41070140144014  0.10699262716272
 1 -5.18386322812281  1.45442963986399 -0.80213406150615
 1 -6.44263609330933  0.66020364866487 -1.80004668316832
 1 -4.69531802730273  0.27628447464747 -1.86369758245825
 1 -3.53574345364536  6.28412106790679  1.15940364436444
 1 -3.97295497299730  4.43154228642864  1.21458359615962
 1  0.22332689798980  6.53527548744874  1.76363909640964
 1 -1.47879926322632  7.18245494099410  1.12765202160216
 1  0.08430761836184  6.95765426592659  0.10993732793279
 1 -3.31303159895990  5.92359824292429 -1.39050686678668
 1 -4.92286410951095  6.39760250125012 -0.57915305700570
 1 -4.65312983408341  4.41878337063706 -1.24826456485649
 1  3.70873618011801 -4.39174340454045  1.98917755475548
 1  7.90658790349035 -1.48154880718072  2.36038620122012

