%nproc=4
%Mem=4GB
# td=(NStates=1) B3LYP/SVP 

TD

0 1
 8 -4.53781390219022 -4.72988306950695  1.76240160376038
 8  2.90693129122912 -4.79018356755676  1.38857678947895
 8  7.22627300870087 -1.51019856095610  1.85074529502950
 8  3.79124085688569 -3.14693381858186  0.15667852625263
 8  7.66466521852185 -0.45637701700170 -0.15188475777578
 8 -3.00663099189919  2.49064646214621 -0.34693959855986
 7 -0.22233661536154 -0.62958230803080 -0.60179881608161
 7  1.60830851355135  1.86698907770777 -0.53805546764676
 7 -3.46269321232123 -3.13618266506651  0.49880835213521
 7 -0.73527493039304  2.91987240544054 -0.13258828272827
 6  0.61361259365937 -2.56151158945895 -1.37567965106511
 6  0.92861179497950 -1.21300125122512 -1.08063061836184
 6 -0.73491781688169 -2.70549443884388 -1.16456665606561
 6 -1.33174528072807 -1.50001364326433 -0.68127959385939
 6  3.84747268856886  1.37280176547655 -0.31580779717972
 6  2.56202689568957  0.77959929172917 -0.56205776437644
 6  2.25361236553655 -0.50569671547155 -1.02896514151415
 6  3.60487432433243  2.81314932313231 -0.11264203710371
 6  1.59329048154815 -3.53622888868887 -1.93224342534253
 6 -5.61520085528553 -2.48679058865887  1.31648158815882
 6 -3.68963102600260 -1.85551061306131  0.04258804380438
 6  2.16148040824082  2.99208563676368 -0.10393787078708
 6 -5.04134033033303 -1.48786428962896  0.33146178507851
 6  5.16631510961096  0.66935660566057 -0.40361341774177
 6 -2.67349831203120 -1.00191696329633 -0.39555997039704
 6 -1.66794473217322 -3.89205370767077 -1.66090933463346
 6 -4.54169163596360 -3.62855136083608  1.23221233583358
 6  1.98453892989299 -4.50474269396940 -0.69683253905391
 6  5.48800867716772 -0.24230029392939  0.75272337843784
 6  4.50944673087309  3.88408964026403  0.38029021282128
 6  1.28952019341934  4.07725213271327  0.16688680818082
 6 -7.01075220582058 -2.98039541934193  1.11841130723072
 6 -5.74108271077108 -0.51634636453645 -0.28089956435644
 6 -0.02403739273927  4.10317498909891  0.18528715431543
 6 -0.92712367406741  5.13240433343334  0.54894952355236
 6 -2.28792411861186  4.63861998479848  0.42226362926293
 6  2.98683152445245 -4.08316493559356  0.27308870787079
 6 -5.43381804260426  0.43705893449345 -1.23099416641664
 6  6.90742330853085 -0.74238252235224  0.73009613221322
 6 -3.59303506280628  5.33211951015102  0.61940275537554
 6 -2.05743918021802  3.20512270357036 -0.01864093929393
 6 -0.53073721122112  6.47015088308831  0.93041813161316
 6 -4.36603514041404  5.58074647954796 -0.64260503620362
 1 -0.47936550145015  0.29652535813581 -0.28137869116912
 1  3.22767678227823 -1.18332033413341 -0.91202071067107
 1  2.51321257215722 -3.04589929682968 -2.28488092279228
 1  1.17975475477548 -4.38343026062606 -2.70807317381738
 1 -5.57757956415641 -2.02323071217122  2.35997815831583
 1  5.31597190739074  0.14747946444644 -1.31230438343834
 1  5.94040600620062  1.47822213151315 -0.61313261286129
 1 -2.87575567126713  0.04215871207121 -0.43948685428543
 1  0.55649198089809  1.77272845584558 -0.62882235433543
 1 -1.84281987318732 -4.71941404560456 -0.84801560726073
 1 -2.57019064876488 -3.43516121812181 -2.04119343954395
 1 -1.15408535963596 -4.58142631703170 -2.45791939493949
 1 -2.65842960076008 -3.74054020242024  0.45094234123412
 1  1.23377918461846 -5.07949043154315 -0.13483720122012
 1  2.44870405620562 -5.45731844034403 -1.16478099199920
 1  4.65603002400240 -1.00324637573757  0.84151473767377
 1  5.19315351495150  0.53911834843484  1.58864333503350
 1  4.35636315661566  4.88129859725973 -0.14300428312831
 1  5.59266588938894  3.37575029422942  0.25600212341234
 1  4.29276869426943  4.06837234533453  1.50905220912091
 1  1.68775460746075  5.07237716731673  0.38938872577258
 1 -7.87831060266027 -2.36795278977898  1.24395908990899
 1 -7.16259190349035 -3.73645141104110  1.97939030693069
 1 -7.09275745974597 -3.45242300580058  0.17350894009401
 1 -6.90038738043804 -0.38220855215522 -0.00739881198120
 1 -4.94545938773877  1.38695289218922 -0.73409725782578
 1 -6.27229905960596  0.75337296559656 -1.81429810831083
 1 -4.78948744424442  0.08874572077208 -1.90528174087409
 1 -3.52885276457646  6.12647530333033  1.06572427642764
 1 -4.16339401690169  4.69495862806281  1.20236237403740
 1 -0.15033046774677  6.36311827172717  1.88363109560956
 1 -1.44888627192719  7.18782547804781  1.15020427682768
 1  0.12409159675968  6.95074357485749  0.12471880608061
 1 -3.81338163396340  6.17966384948495 -1.37186500260026
 1 -5.32621444454445  6.04217695869587 -0.53571871357136
 1 -4.49952447354736  4.68917040934093 -1.32594233263326
 1  3.47162246874688 -4.33647787798780  2.11713035003500
 1  8.12565981068107 -1.67483813611361  1.99230939353935

