%nproc=4
%Mem=4GB
# td=(NStates=1) B3LYP/SVP 

TD

0 1
 8 -4.69496961776178 -4.72842292349235  1.82347771137114
 8  2.91792239033903 -4.69338388758876  1.34813274507451
 8  7.19367974937494 -1.38933647474747  1.77717793829383
 8  3.76658839163916 -3.02571169636964  0.11892475087509
 8  7.60011876387639 -0.40442182148215 -0.12769233853385
 8 -3.02035236403640  2.49519691719172 -0.12426733133313
 7 -0.35497987968797 -0.56369571937194 -0.51299993619362
 7  1.58216589928993  1.80186256505651 -0.35960762286229
 7 -3.49630657365737 -3.15838488528853  0.65270374167417
 7 -0.70440184308431  2.85275569376938 -0.02131715561556
 6  0.60676190859086 -2.51018645694569 -1.20109219231923
 6  0.89879881368137 -1.14983493459346 -0.89827238253825
 6 -0.76323064816482 -2.74128801820182 -1.11927212661266
 6 -1.33943604980498 -1.52631627352735 -0.75689715561556
 6  3.72674061536154  1.36240072537254 -0.42034825122512
 6  2.41522221522152  0.78389972177218 -0.53726528512851
 6  2.17306431073107 -0.55221136693669 -0.92455470047005
 6  3.60171400830083  2.66769477767777 -0.07264803770377
 6  1.58702985548555 -3.44823008880888 -1.90693089408941
 6 -5.64113344854485 -2.54150606020602  1.28004794479448
 6 -3.68183024592459 -1.97036209820982  0.03852763776378
 6  2.19968422862286  2.96127255545555 -0.00418789578958
 6 -5.10716691299130 -1.55081058425843  0.31009964886489
 6  5.04884336243624  0.66572624262426 -0.52200525692569
 6 -2.71624258645865 -1.17960473207321 -0.58157857225723
 6 -1.47884582228223 -3.91191569386939 -1.71186443014301
 6 -4.59917738453845 -3.67114562026203  1.30923003760376
 6  2.18645912191219 -4.55166738643864 -0.91528438423842
 6  5.35493536983698 -0.08370443434343  0.81681978807881
 6  4.62431821802180  3.67908914021402  0.38437062086209
 6  1.40472171357136  4.13582799029903  0.34223434293429
 6 -7.05852698329833 -3.13719109890989  1.00768023412341
 6 -5.84652325482548 -0.59648437833783 -0.20183165756576
 6  0.00210522152215  4.05880055165517  0.23393201880188
 6 -0.89076003770377  5.16406749974997  0.41533616221622
 6 -2.14401972817282  4.69420554335434  0.39494089698970
 6  2.99754259555956 -3.97669428852885  0.11320271927193
 6 -5.50503516431643  0.31788701730173 -1.25477654465447
 6  6.83841640784078 -0.63993227732773  0.66508963156316
 6 -3.47570332963296  5.45981227942794  0.47888870397040
 6 -2.05331876817682  3.25315750705070  0.05170609540954
 6 -0.29750388788879  6.52091595959596  0.81948703850385
 6 -4.17728626552655  5.60466887178718 -0.88907968366837
 1 -0.34142170707071  0.40367607320732 -0.18824937823782
 1  3.05451946654666 -1.19306130823082 -1.07029653825383
 1  2.47862911381138 -2.99469417631763 -2.52303473817382
 1  0.91251803110311 -4.06217813541354 -2.41488385488549
 1 -5.66681848804880 -2.26857524662466  2.28770093059306
 1  5.00101041124112  0.03392810931093 -1.25185833883388
 1  5.92576454205421  1.29888419771977 -0.80333163276328
 1 -3.13380147584758 -0.15185068886889 -0.78574147974797
 1  0.38726505820582  1.96092727572757 -0.19226869896990
 1 -1.45876146734673 -4.88346045024502 -1.11568237393739
 1 -2.39500313001300 -3.70844854685469 -1.98260758095810
 1 -1.01342129322932 -4.42765093949395 -2.50974457745775
 1 -2.56991074887489 -3.59867601600160  0.83783103010301
 1  1.22204801150115 -4.98840132263226 -0.43010672817282
 1  2.69809899569957 -5.25917862636264 -1.61283579747975
 1  4.69528394939494 -1.06094214531453  1.30116070227023
 1  5.62318651825183  0.79839427602760  1.74113858455846
 1  4.61054857515752  4.61311177857786 -0.04722470517052
 1  5.68439506230623  3.44492721192119  0.29924644784478
 1  4.50765018241824  4.09015452355235  1.42702400630063
 1  1.94506033803380  5.03918384798480  0.61048083498350
 1 -7.75187795939594 -2.34008000250025  1.24531922592259
 1 -7.11262690699070 -4.06443420932093  1.65774814271427
 1 -7.30910909490949 -3.49196696019602 -0.18714712551255
 1 -6.77977531923192 -0.50326065736574  0.33290521842184
 1 -5.00741558335834  1.32069626652665 -0.83461730983098
 1 -6.37827965766577  0.83398102640264 -1.68660533903390
 1 -5.00542903840384  0.00711755795580 -2.13764497719772
 1 -3.28926880618062  6.56712936873687  0.91194889888989
 1 -4.17580525802580  5.00772990519052  1.16058819661966
 1  0.48765333063306  6.44603656355636  1.57862059455946
 1 -1.04149553285328  7.20798749424942  1.23314257065707
 1  0.13386257385739  7.04198269876988  0.03453978817882
 1 -3.72113240904090  6.52094797789779 -1.67014483058306
 1 -5.20481230433043  5.98647138813881 -0.73983912561256
 1 -4.38435295639564  4.61728322062206 -1.26137587598760
 1  3.83681898839884 -4.22353658385838  1.55297393439344
 1  8.07511475617562 -1.79023967626763  1.63075323792379

