%nproc=4
%Mem=4GB
# td=(NStates=1) B3LYP/SVP 

TD

0 1
 8 -4.43077319811981 -4.74476455765577  1.96890225382538
 8  2.92966356445645 -4.93019756895690  1.05812374417442
 8  7.12031241264126 -1.61196873797380  1.88086830733073
 8  3.89843157595760 -3.21149027422742 -0.07541468306831
 8  7.51692044404440 -0.61145252455246 -0.02896246554655
 8 -2.96339666846685  2.49803720122012 -0.09527443204320
 7 -0.27600198189819 -0.52804215401540 -0.49987862406241
 7  1.47899558225823  1.73970634943494 -0.28532019411941
 7 -3.50180712371237 -3.07830687748775  0.78149662096210
 7 -0.65874727762776  3.06564698289829 -0.21952697659766
 6  0.61782301470147 -2.39450488878888 -1.25264734783478
 6  0.96304523832383 -1.14559451055106 -0.84509706500650
 6 -0.78015234033403 -2.63888777817782 -1.18435863526353
 6 -1.29011111731173 -1.47720136203620 -0.64150561646165
 6  3.75032297359736  1.43939842514251 -0.29840605700570
 6  2.45347604060406  0.79133046484648 -0.53134469306931
 6  2.23001000530053 -0.53976012181218 -0.83853609860986
 6  3.52591642854285  2.70621863006301  0.01253048014802
 6  1.61272242474247 -3.35539080488049 -2.02460266126613
 6 -5.71807114231423 -2.67484939453945  1.32824276427643
 6 -3.61293335623562 -1.80549561156116  0.19563334833483
 6  2.07883214341434  2.96709313751375 -0.02635011201120
 6 -5.14029022532253 -1.54140964416442  0.33641228012801
 6  5.05996447454745  0.60624029402940 -0.33374643104310
 6 -2.68441940414041 -1.10900767236724 -0.39842025642564
 6 -1.53374131183118 -3.96592109440944 -1.60999424312431
 6 -4.52766023282328 -3.63802230793079  1.40198931353135
 6  2.06007648364836 -4.44408662836284 -1.13629648544854
 6  5.41325120142014  0.00228416451645  0.95392349844984
 6  4.55617140334033  3.78060929222922  0.39229141294129
 6  1.42740398179818  4.11790619811981  0.04836495599560
 6 -7.03418454905491 -3.30600798059806  1.00830029612961
 6 -5.77739634213421 -0.51834656455646 -0.23806528092809
 6 -0.00215520452045  4.17363203480348  0.01125975157516
 6 -0.88259922162216  5.22597369036904  0.36366099469947
 6 -2.21621694789479  4.81722784558456  0.26959836273627
 6  3.09326216751675 -4.03246986608661 -0.00509911091109
 6 -5.33531819261926  0.43860908950895 -1.22297336433643
 6  6.75840840704070 -0.76008429252925  0.91805492809281
 6 -3.49995575487549  5.32678897709771  0.44126494159416
 6 -2.14657809410941  3.33998618991899 -0.08577765296530
 6 -0.45344948244824  6.68787265526553  0.75871096089609
 6 -4.34611314821482  5.60333873877388 -0.79921069676968
 1 -0.39471703660366  0.14646035163516  0.44192363906391
 1  3.07797181178118 -1.06289829192919 -1.16573608220822
 1  2.51426267716772 -3.02832753965397 -2.79555198989899
 1  0.82843962326233 -3.83855577317732 -2.60876324282428
 1 -5.95231703790379 -2.27096548564856  2.31330349084908
 1  4.93983429362936 -0.24329961346135 -1.15020817381738
 1  5.91016298189819  1.27215152445244 -0.65780708030803
 1 -2.92971106680668 -0.00932643644364 -0.52636554215422
 1  0.46886321802180  1.82566374937494 -0.67425689778978
 1 -1.47305289648965 -4.88877098129813 -0.84060486618662
 1 -2.69683331303130 -3.63291099309931 -1.74546386658666
 1 -1.26668661976198 -4.67884605900590 -2.63902750575058
 1 -2.58057181498150 -3.57875402380238  0.61905915291529
 1  1.28495430213021 -5.04213669616962 -0.62730644814481
 1  2.73476266206621 -5.24027673617362 -1.90848536243624
 1  4.63388780978098 -0.67186323742374  1.36742732893289
 1  5.59713391299130  0.61900633723372  1.80222469316932
 1  4.37162468276828  4.63558402580258 -0.12144212691269
 1  5.50088671147115  3.30077279647965  0.10797732093209
 1  4.72721213861386  3.87010251835184  1.52719402330233
 1  1.83824965696570  5.05147507710771  0.45979576647665
 1 -7.82561533313331 -2.72099809430943  1.01407610161016
 1 -6.90131577587759 -4.11310907680768  1.71381374927493
 1 -6.93198138213821 -3.90467823132313 -0.00401881268127
 1 -6.85685302700270 -0.50469080038004  0.01160308820882
 1 -5.08233307510751  1.43799799669967 -0.86106995509551
 1 -6.06989881958196  0.52986061436144 -2.17420409890989
 1 -4.57684618011801  0.00455730193019 -1.87175838853885
 1 -3.55767564686469  6.27118977477748  1.06329403340334
 1 -4.32592026952695  4.59692882508251  1.14892703050305
 1  0.08188275357536  6.56698865876588  1.73918665116512
 1 -1.26651803510351  7.53152984848485  0.73815307170717
 1  0.47207639523952  6.89198769926993  0.12128846304630
 1 -3.76851714751475  6.38469435253525 -1.49172698879888
 1 -5.32373419651965  5.95203794479448 -0.81107624932493
 1 -4.13506802790279  4.61138263056306 -1.45123486188619
 1  3.47443274977498 -4.55422965316532  1.93961259825983
 1  7.96306355105511 -1.94277492979298  1.53850401300130

