%nproc=4
%Mem=4GB
# td=(NStates=1) B3LYP/SVP 

TD

0 1
 8 -4.41838195899590 -4.76507658885889  1.82704806840684
 8  2.93441403950395 -4.56724127332733  1.41376930873087
 8  6.99048943034303 -1.70007754885489  1.72027224772477
 8  3.97125885868587 -3.25271439663966 -0.02579972157216
 8  7.42023077507751 -0.81696307560756 -0.20255982528253
 8 -3.05579590839084  2.58794619211921 -0.21576648124812
 7 -0.39487386908691 -0.62953230303030 -0.63164180038004
 7  1.50224790749075  1.73626600540054 -0.26505816791679
 7 -3.36273321632163 -3.16337538433843  0.62078054935494
 7 -0.79330073297330  2.97962838103810  0.08935391149115
 6  0.64505573797380 -2.52717815611561 -1.36158824192419
 6  0.86441537533753 -1.15055500660066 -0.90718327362736
 6 -0.66363068816882 -2.72816670607061 -1.22361256065607
 6 -1.32977508370837 -1.58568221012101 -0.72522398829883
 6  3.76858479977998  1.44391887718772 -0.31460767716772
 6  2.40520121312131  0.82608394019402 -0.54865642424242
 6  2.09234623892389 -0.51770791659166 -0.98788103310331
 6  3.47122095899590  2.78086609480948 -0.05744651755176
 6  1.62811396389639 -3.39665493129313 -1.86176637763776
 6 -5.61774110931093 -2.56031794139414  1.31879181918192
 6 -3.56374843774377 -1.89290435243524  0.19823360836084
 6  1.98568282848285  2.93604003220322  0.10578310131013
 6 -4.97616381268127 -1.52828833203320  0.40020865976598
 6  5.13676215431543  0.72773244324432 -0.47150020642064
 6 -2.65698666086609 -1.09203597519752 -0.47013742814281
 6 -1.45855379307931 -3.86705120742074 -1.56782002570257
 6 -4.48708617541754 -3.68152665836584  1.29091820642064
 6  2.11521199719972 -4.46192841254125 -0.89249210501050
 6  5.36342621892189 -0.16654271817182  0.82324043014301
 6  4.46550233643364  3.94223545484548  0.29291147494749
 6  1.31955319671967  4.13657806530653  0.38118823832383
 6 -6.94171530213021 -3.25043242304230  1.10927039313931
 6 -5.70798940144014 -0.62223695359536 -0.26482795719572
 6 -0.07506249524952  4.07526219781978  0.28841746734674
 6 -0.91979294099410  5.26687778077808  0.51896652525253
 6 -2.28547387358736  4.79904602740274  0.37104850775078
 6  3.12412525382538 -4.03697031613161  0.17155855485549
 6 -5.25180984178418  0.36021124972497 -1.28809987698770
 6  6.63346591279128 -0.98075635973597  0.66628975157516
 6 -3.63064882418242  5.47371366956696  0.38325914101410
 6 -2.10239367566757  3.29981217251725  0.02582350715072
 6 -0.56514065156516  6.63763763176318  0.90290538033803
 6 -3.96343488038804  5.86264466936694 -1.13571434713471
 1 -0.68451601650165  0.24973067866787 -0.23663421672167
 1  3.11185520012001 -1.12822482458246 -1.21497100570057
 1  2.43302455335534 -2.86570127702770 -2.41442387708771
 1  1.10004678397840 -3.99621153875388 -2.68340070657066
 1 -5.58582038823882 -2.12751114021402  2.38148030853085
 1  5.09509982018202 -0.00386567006701 -1.32490564356436
 1  5.85928789438944  1.44402871217122 -0.52712401200120
 1 -2.87878597429743 -0.12588809260926 -1.07480038563856
 1  0.43353968566857  1.95295647864786 -0.37947741984198
 1 -1.32878847004701 -4.64619672387239 -0.78863966966697
 1 -2.53928755845585 -3.44162186418642 -1.86726604680468
 1 -0.82918286938694 -4.52707088148815 -2.26627023002300
 1 -2.46542029982998 -3.64042019041904  0.61336858385839
 1  1.22447825452545 -5.02302478497850 -0.19803352085209
 1  2.74465365116512 -5.37089979847985 -1.56225073897390
 1  4.70470489148915 -1.01349740084008  1.07053763996400
 1  5.31043524312431  0.35093953055306  1.72119659035904
 1  4.62413993429343  4.76546701410141 -0.34996497919792
 1  5.56733335613561  3.62424514371437  0.17250377357736
 1  4.24686410381038  4.43946945504550  1.27999930383038
 1  1.74845067706771  4.99013894349435  0.71542132903290
 1 -7.70505327692769 -2.41248724322432  1.31721641564156
 1 -7.07396304060406 -4.21823958985899  1.67990035793579
 1 -7.10771895589559 -3.50345810931093 -0.06615502630263
 1 -6.72429977167717 -0.65345567686769  0.10198212611261
 1 -4.47731257305731  1.06645084198420 -0.79927377547755
 1 -6.16982881258126  0.92662029032903 -1.60059673817382
 1 -4.94612310781078 -0.10961411521152 -2.13291450415042
 1 -3.59356923622362  6.65329798559856  0.81693939793979
 1 -4.43980165766577  4.70027916011601  0.79474161196120
 1 -0.10037547224722  6.53577553745375  1.93840657315732
 1 -1.50064144744474  7.32405910141014  0.85218447484748
 1  0.23389257685769  7.11770027052705  0.24753108730873
 1 -3.05415571137114  6.67859374247425 -1.27301511761176
 1 -5.01807363046305  6.14332707370737 -1.24026916861686
 1 -3.75241976307631  5.20085157745775 -2.08948868726873
 1  3.91658696519652 -4.41428565876588  1.85047368436844
 1  7.92487973267327 -2.08240889318932  1.60383054565457

