%nproc=4
%Mem=4GB
# td=(NStates=1) B3LYP/SVP 

TD

0 1
 8 -4.51152127292729 -4.65237531873187  1.98525388898890
 8  3.09322992109211 -4.87651220042004  1.27357528932893
 8  7.06169655105511 -1.56468400950095  1.71108132863286
 8  3.88146987978798 -3.13632275747575  0.17918077647765
 8  7.60433918591859 -0.46377775707571 -0.21650121942194
 8 -3.12119244804481  2.52259965746575 -0.21420632523252
 7 -0.28612299399940 -0.56039538933893 -0.50672930913091
 7  1.57084476717672  1.71819419821982 -0.34781644374437
 7 -3.36765370837084 -3.03943299009901  0.68245671697170
 7 -0.82642404530453  2.93099351755176 -0.11915693959396
 6  0.59117034943494 -2.49716515481548 -1.33511559465947
 6  0.95276421022102 -1.09366931803180 -1.03431598689869
 6 -0.76445077017702 -2.67006089548955 -1.18038823822382
 6 -1.29626173237324 -1.47259090099010 -0.71651311721172
 6  3.69176711801180  1.40089457475748 -0.33621983838384
 6  2.51653234623462  0.78861019281928 -0.65597715631563
 6  2.16951395569557 -0.50553669946995 -0.97358960396040
 6  3.64224806170617  2.68281628982898  0.08893812091209
 6  1.64832598509851 -3.58653391919192 -1.79710991199120
 6 -5.55872520772077 -2.52069397899790  1.28023796379638
 6 -3.60774283718372 -1.79081414341434  0.14282806780678
 6  2.15211947214721  2.91071749994999  0.06234875787579
 6 -5.02277847414741 -1.53413891709171  0.30865950485049
 6  4.96844532263226  0.71246091609161 -0.49398245464546
 6 -2.67785874807481 -1.02868964056406 -0.51472188658866
 6 -1.51832977067707 -3.95382988528853 -1.70932417611761
 6 -4.50723819061906 -3.56763526922692  1.41745085968597
 6  2.10900137613761 -4.52571479117912 -0.75830868666867
 6  5.33200307660766 -0.27624368826883  0.65409351545155
 6  4.65618140434043  3.72751398269827  0.43105528932893
 6  1.32776401780178  3.96027043454345  0.44426454595460
 6 -6.99997112771277 -3.19908728852885  0.93146261236124
 6 -5.86893549604961 -0.64924965486549 -0.32614408880888
 6 -0.14762975197520  3.98578324992499  0.22599122472247
 6 -0.95683664536454  5.22882397539754  0.47673230183018
 6 -2.24862018821882  4.81639776257626  0.22828423132313
 6  3.05098794009401 -4.07111373047305  0.25893729272927
 6 -5.39087374817482  0.27353258185819 -1.39739080608061
 6  6.74382694889489 -0.76934521862186  0.64395751835184
 6 -3.48190394969497  5.52561886008601  0.53775459055906
 6 -2.18187162346235  3.25859805110511 -0.03833290849085
 6 -0.55126926442644  6.63674754275428  0.95461055085509
 6 -4.21630016691669  5.74536294119412 -0.84767554325433
 1 -0.31212877777778  0.39441514711471 -0.07851840514051
 1  3.06583059765977 -1.16467846994699 -1.11840134873487
 1  2.50043129402940 -3.09624433133313 -2.10040247494750
 1  1.12078885818582 -4.11528344594459 -2.67666003250325
 1 -5.53306511271127 -2.05288367746775  2.24135629612961
 1  4.75202551275127  0.22811752825283 -1.57550070307031
 1  5.82772473807381  1.38293260256026 -0.63444474407441
 1 -2.86551464716472 -0.03752925672567 -0.60536344194419
 1  0.64429076077608  1.79452063506351 -0.76674614671467
 1 -1.87315290649065 -4.70428253245325 -0.89985079077908
 1 -2.41059468916892 -3.56460416241624 -2.18759808000800
 1 -0.87586753785379 -4.26529470387039 -2.54099770277028
 1 -2.38556231403140 -3.55257140554055  0.66038328532853
 1  1.27795360206021 -4.99206168866887 -0.13624734223422
 1  2.43713289908991 -5.55797850635063 -1.12272678657866
 1  4.65585000600060 -1.06831288238824  0.77759834603460
 1  5.15025922552255  0.32844728132813  1.62582705340534
 1  4.70190771107111  4.60306077347735 -0.27450743344334
 1  5.82576919971997  3.41603432263226  0.49979650285029
 1  4.50261967936794  4.18051355945595  1.41273257715772
 1  1.86271210321032  4.72887281688169  1.13263305020502
 1 -7.86379915151515 -2.54262025652565  1.13626832083208
 1 -7.24259990429043 -4.04666243214321  1.52712508040804
 1 -7.06418460246025 -3.47807557105711 -0.08613702450245
 1 -6.90680802250225 -0.19563989528953  0.06927885578558
 1 -4.86791163296330  1.37482167906791 -1.08483233133313
 1 -6.23750558025803  0.46558418671867 -2.16195287378738
 1 -4.57665616111611  0.00059690589059 -2.14546575927593
 1 -3.30444032333233  6.48166082188219  1.09195689968997
 1 -4.21900957845785  4.77215634783478  1.19803194099410
 1 -0.03268870357036  6.81694365426543  1.83026575907591
 1 -1.45827721102110  7.18472516801680  1.11802105850585
 1 -0.05542635503550  7.13933243374337  0.04439077327733
 1 -3.45607590339034  6.45400128322832 -1.28173598969897
 1 -5.17693951705171  6.31349409040904 -0.74594973667367
 1 -4.39948446954695  4.98284977727773 -1.40809054745475
 1  3.73903921042104 -4.43100733093309  1.88053669066907
 1  8.04480172487249 -1.85092574487449  1.71988215081508

