%nproc=4
%Mem=4GB
# td=(NStates=1) B3LYP/SVP 

TD

0 1
 8 -4.70051017181718 -4.73227330853085  1.84340970457046
 8  3.08337893599360 -5.20507505670567  1.19273720552055
 8  7.17798818021802 -1.26075361646165  2.06975719621962
 8  3.75819755255526 -3.21615074027403  0.11997485588559
 8  7.65382413441344 -0.52639401870187 -0.10282985228523
 8 -2.95841617041704  2.38252565006501 -0.09293419801980
 7 -0.31449583128313 -0.64488383818382 -0.62804144034403
 7  1.57075475817582  1.82423480228023 -0.35167682978298
 7 -3.55428237123712 -3.21368041484148  0.60190866216622
 7 -0.65762716561656  2.92318273647365 -0.14211923582358
 6  0.62871410381038 -2.44973041134113 -1.29541162426243
 6  0.90833976777678 -1.12747269836984 -0.99732228752875
 6 -0.81165549064906 -2.65346923632363 -1.16412661206121
 6 -1.41504361056106 -1.46230987288729 -0.74755622152215
 6  3.81118906020602  1.35257974327433 -0.33790000640064
 6  2.57416810981098  0.73346467826783 -0.56396795539554
 6  2.16095309960996 -0.49437558335834 -0.83822606760676
 6  3.63527736463646  2.75268327652765 -0.09301007390739
 6  1.51671282378238 -3.47370263606361 -1.97536773777378
 6 -5.61893122832283 -2.59052096169617  1.34606454645465
 6 -3.66469853275328 -1.89635469746975  0.07485127012701
 6  2.22113637383738  3.00056648484848 -0.12352982998300
 6 -5.07695389168917 -1.44823032623262  0.36989562846285
 6  5.12114059215922  0.64283395339534 -0.43842689908991
 6 -2.72425338753875 -1.08304507610761 -0.35427584198420
 6 -1.55726366406641 -3.81225572787279 -1.69094233793379
 6 -4.59150661746175 -3.64845335103510  1.35207432203220
 6  2.10103057905791 -4.58655087478748 -0.99680253605361
 6  5.46885676197620 -0.02973903780378  0.93119122522252
 6  4.67044283048305  3.90632186348635  0.09030121392139
 6  1.33585482688269  4.08299270677068  0.20529064856486
 6 -7.00419154975498 -3.02198957875788  0.98856832293229
 6 -5.82775137763776 -0.39728445834583 -0.13177465186519
 6 -0.00262525152515  4.11582625422542  0.05219384498450
 6 -0.97155811751175  5.23072416541654  0.49060368896890
 6 -2.19756508270827  4.74129025182518  0.44604600750075
 6  3.04838768006801 -4.19695631473147  0.18060945994599
 6 -5.43144780558056  0.46245147374737 -1.27581864886489
 6  6.84523708990899 -0.55344362846285  0.81965508810881
 6 -3.63174893419342  5.37408370657066  0.52452326742674
 6 -2.11662509880988  3.15428762006201  0.01174209900990
 6 -0.50502463996400  6.60073394139414  0.95301039083908
 6 -4.31060959785979  5.48870727562756 -0.88327910361036
 1 -0.51253881878188  0.24650035563556 -0.38406896019602
 1  3.03471748634863 -1.07390939303930 -1.26413592219222
 1  2.48483973487349 -2.98495320222022 -2.28850128482848
 1  1.13057983728373 -3.78037995559556 -2.94060642714271
 1 -5.63262506870687 -2.20770916001600  2.24866702720272
 1  5.21052136233623 -0.14788007150715 -1.21823497649765
 1  5.95547751335133  1.44660897019702 -0.52468376797680
 1 -2.79943803950395  0.26018051425143 -0.07464036963696
 1  0.39274560626063  1.79404058705871 -0.34239371147115
 1 -1.78955454665467 -4.61890399459946 -0.99305011071107
 1 -2.58677230693069 -3.70787848984898 -2.00015933613361
 1 -0.86428637973797 -4.19655783018302 -2.55211881488149
 1 -2.49025278307831 -3.32920906930693  0.37193444044404
 1  1.33863967066707 -5.19991247374737 -0.59521323882388
 1  2.74604379017902 -5.20914362286229 -1.78651316521652
 1  4.80712513351335 -0.93434948604860  1.22486307250725
 1  5.36604080368037  0.79990442704270  1.67165163586359
 1  4.31474899519952  4.76368683608361 -0.58601858455846
 1  5.67612423522352  3.61983470267027 -0.29018249504950
 1  4.88362778017802  4.06801230933093  1.16445774967497
 1  1.92193802580258  5.10319024862486  0.26522630953095
 1 -7.86409918151815 -2.24456045054505  0.89983467746775
 1 -7.41006665096510 -3.75465323122312  1.77175954385439
 1 -6.78652683668367 -3.35248301180118 -0.06567497829783
 1 -6.99190653235324 -0.60243057435743  0.25042697059706
 1 -4.78029287108711  1.14608880578058 -0.73799764786479
 1 -6.37815964566457  0.76339396769677 -1.71613829232923
 1 -4.94823331883188 -0.21825497929793 -1.86986819951995
 1 -3.49753963326333  6.22248490429043  0.95295299929993
 1 -4.28178585608561  4.61253038523852  1.30982312011201
 1  0.18316288158816  6.56301826172617  1.64781751425143
 1 -1.38375975927593  7.49241593709371  1.03492274867487
 1  0.14773396099610  7.02021052155216  0.09188552275228
 1 -3.71500179597960  6.40072595569557 -1.32573038913891
 1 -5.31069289238924  5.68104084508451 -0.74008915061506
 1 -4.21539606070607  4.63631512381238 -1.42212195059506
 1  3.71899720622062 -5.02580681088109  1.68396703370337
 1  8.20869811451145 -1.57275792809281  1.90651081368137

