%nproc=4
%Mem=4GB
# td=(NStates=1) B3LYP/SVP 

TD

0 1
 8 -4.51987210801080 -4.75458553975398  1.76739210281028
 8  2.91415201330133 -4.99134368356836  1.26388432023202
 8  6.89180956235624 -1.53499104020402  1.94591481198120
 8  3.69113084588459 -3.21290041524152  0.09336219461946
 8  7.47057580958096 -0.69582096139614 -0.13214278357836
 8 -3.02667299609961  2.48312571007101 -0.12808771337134
 7 -0.31717609930993 -0.50231958175818 -0.58862749894990
 7  1.55795347804780  1.84310668946895 -0.38438010011001
 7 -3.31454839783978 -3.04964401120112  0.67170564186419
 7 -0.76643804670467  2.91356177437744 -0.01171619551955
 6  0.69050028242824 -2.43078851715171 -1.27565964906491
 6  0.99687862166217 -1.16898684978498 -0.82235479077908
 6 -0.72830715581558 -2.62000588998900 -1.21709190859086
 6 -1.26010811701170 -1.40176381828183 -0.76752821872187
 6  3.85263320462046  1.52571705700570 -0.41961817821782
 6  2.47024771777178  0.87437876967697 -0.57793935253525
 6  2.27276428072807 -0.51742788858886 -0.91871411641164
 6  3.55813965086509  2.84680268846885 -0.08567934083408
 6  1.71403255575558 -3.48917418321832 -1.83331353235324
 6 -5.54516385158516 -2.65360727032703  1.38140808080808
 6 -3.67658972187219 -1.77555261726173  0.08239202420242
 6  2.14602886308631  2.99585601380138 -0.08671614861486
 6 -5.00509670597060 -1.55841134433443  0.34755339423942
 6  5.06757523562356  0.70684035403540 -0.45319837623762
 6 -2.67444840704070 -0.97046381798180 -0.45408582298230
 6 -1.43923186088609 -3.85809031133113 -1.74227747144714
 6 -4.42007947474748 -3.64210271597160  1.33307242184218
 6  2.03119359535954 -4.68306052575258 -0.95535839163916
 6  5.31480135643564 -0.15608167206721  0.77008511461146
 6  4.63504929112911  3.84657588888889  0.17024920872087
 6  1.31192243364336  4.12178658615862  0.22113223272327
 6 -6.91841297189719 -3.31207858765877  1.17963742984298
 6 -5.84707330983098 -0.56114084398440 -0.21742321672167
 6 -0.05151014001400  4.07285195679568  0.21779040464046
 6 -0.97778874057406  5.18007910091009  0.58379300790079
 6 -2.22806813301330  4.76033215601560  0.36565796869687
 6  2.96368921022102 -4.22628924802480  0.19350074907491
 6 -5.43613827462746  0.44363959255926 -1.25440650765077
 6  6.76893946014602 -0.73710199429943  0.78234135673567
 6 -3.51359711901190  5.42998929712971  0.41620243534353
 6 -2.05961939823982  3.30262245354535  0.11627255205521
 6 -0.61505564306431  6.57034090209021  0.93261835163516
 6 -4.17675621252125  5.63371177607761 -1.01654242994299
 1 -0.36299386428643  0.39349505510551 -0.09366992029203
 1  3.07388140274027 -1.02841484358436 -1.03467297589759
 1  2.71206245714572 -2.94017872477248 -2.29656209090909
 1  1.06715349464946 -3.90379229682968 -2.61116348284828
 1 -5.22895470167017 -1.99807819691969  2.31825398589859
 1  5.14252456265627 -0.01252653615362 -1.32159531253125
 1  5.87787975357536  1.41120542984298 -0.52849414901490
 1 -2.75800389608961  0.02271676787679 -0.49153205880588
 1  0.60214654635464  1.96205738873887 -0.67906737883788
 1 -1.51646723792379 -4.87130923512351 -1.13790459615962
 1 -2.57892152185218 -3.63771147314732 -1.91762108230823
 1 -0.93609356045604 -4.11461963636364 -2.66403000600060
 1 -2.26787054485448 -3.23000914931493  0.44769201620162
 1  1.27263307000700 -5.12158464096410 -0.48047176467647
 1  2.33877306310631 -5.63042575107511 -1.55602011591159
 1  4.35282970397040 -1.04000005110511  0.90895148134813
 1  5.33883808340834  0.49704414101410  1.75384985568557
 1  4.61002852315232  4.72591305870587 -0.42151213391339
 1  5.61615823862386  3.50796351555156  0.15063158635864
 1  4.48985840324032  4.09480498859886  1.25426673057306
 1  1.88974480648065  5.09195912551255  0.45349513641364
 1 -7.60174294589459 -2.49458545304530  1.32674736873687
 1 -6.82236788108811 -4.17485525142514  1.89756212411241
 1 -7.12620080408041 -3.68510627412741  0.13353494269427
 1 -6.82119946164616 -0.22806313761376  0.21898382628263
 1 -4.73618846064606  1.32153635053505 -0.97142099019902
 1 -6.35409723942394  0.84114174247425 -1.79484616311631
 1 -4.95823431893189 -0.11889504330433 -2.09250046274627
 1 -3.58839871917192  6.24873752955295  1.01654935893589
 1 -4.12453013051305  4.65429456165617  0.98685082288229
 1  0.01077564286429  6.65773773367337  1.82582531503150
 1 -1.40958234153415  7.30645734123412  0.71849110551055
 1  0.17560674827483  6.74842334283428  0.14725105930593
 1 -3.77951824762476  6.44666054915491 -1.69463727982798
 1 -5.27586941004100  5.79872261326133 -0.81239638133813
 1 -4.16721124222422  4.76532802510251 -1.62629236763676
 1  3.68187349384939 -4.67446167636764  1.75113375037504
 1  7.79817706240624 -1.82879353165316  1.84505466806681

