%nproc=4
%Mem=4GB
# td=(NStates=1) B3LYP/SVP 

TD

0 1
 8 -4.45504562536254 -4.77505758695870  1.95529089268927
 8  3.11097169526953 -5.11301585078508  1.20360829262926
 8  7.16461684308431 -1.39676721782178  1.77314753525353
 8  3.77960969376938 -3.14437356255626  0.15748860726073
 8  7.61834058605861 -0.76365774507451 -0.29537910721072
 8 -2.98501883068307  2.62506990449045 -0.28675357995800
 7 -0.27361174287429 -0.52788213801380 -0.55375401160116
 7  1.53809149184918  1.77391977077708 -0.33819548164816
 7 -3.53162010501050 -3.10880992779278  0.57612608390839
 7 -0.77930933383338  2.92702312051205 -0.05267029092909
 6  0.63437466986699 -2.45094053235324 -1.25913799689969
 6  0.93319225302530 -1.11401135223522 -0.89332188748875
 6 -0.75418974407441 -2.69451334073407 -1.15758595799580
 6 -1.34186629282928 -1.45622926482648 -0.76880834673467
 6  3.77884582588259  1.41919640494049 -0.39836605300530
 6  2.47690838383838  0.81970330213021 -0.53595515411541
 6  2.24431143544354 -0.49915606140614 -0.78415066006601
 6  3.64952878977898  2.78262627082708 -0.04704547744774
 6  1.65061621412141 -3.37999326512651 -1.86044624562456
 6 -5.68749808500850 -2.59985189478948  1.29955989598960
 6 -3.74140620352035 -1.85386044804480  0.04525831083108
 6  2.18640290049005  2.97663409160916  0.03484600760076
 6 -5.15636183248325 -1.45919142234223  0.40147878677868
 6  5.05817429552955  0.75917558755876 -0.42869592599260
 6 -2.69597055925593 -1.17138390999100 -0.61804221862186
 6 -1.40665860356036 -4.01503600590059 -1.56161940564056
 6 -4.52052951975198 -3.64756326202620  1.26598571317132
 6  2.01708218421842 -4.50245246494649 -0.81857471327133
 6  5.44523439973997 -0.07902396629663  0.86609471557156
 6  4.73375916211621  3.77956918821882  0.27323950775078
 6  1.33275451685169  4.13635804330433  0.33828394789479
 6 -7.11669279987999 -3.16408378817882  0.95737520362036
 6 -5.86803540604060 -0.51386611651165 -0.15871734613461
 6 -0.04724971397140  4.13405807740774  0.14208283388339
 6 -0.98008897059706  5.17516860986099  0.52407703630363
 6 -2.19682500870087  4.71695781858186  0.35227663056306
 6  3.08604144544454 -4.13092971207121  0.21393279227923
 6 -5.47651231203120  0.44960018861886 -1.22732379937994
 6  6.80378294449445 -0.75368365246525  0.66318944154415
 6 -3.59268502780278  5.46000229842984  0.38701951705171
 6 -2.05215865216522  3.29845203650365 -0.05466454165417
 6 -0.61176531403140  6.67980184818482  1.07170226002600
 6 -4.27324586148615  5.52348075297530 -0.99245002070207
 1 -0.62665022992299  0.56994269986999 -0.40139069236924
 1  3.16535054965496 -1.26924892699270 -0.81607111571157
 1  2.63814506540654 -3.04419912681268 -2.28785121982198
 1  1.22729950925092 -4.05327724532453 -2.75551791829183
 1 -5.68326013221322 -2.50883927302730  2.44156631713171
 1  5.02864317451745 -0.08378366186619 -1.17107026002600
 1  5.85857782338234  1.30796510581058 -0.68603990359036
 1 -3.08621671737174 -0.11164666846685 -0.70882378797880
 1  0.44821115281528  1.90409159215922  0.00134066196620
 1 -1.85950154135414 -4.55366747094709 -0.73445425112511
 1 -2.40817444714471 -3.71028873087309 -1.91345066526653
 1 -0.77620757185719 -4.61514968936894 -2.36801040404040
 1 -2.57413117091709 -3.44423057145715  0.57564481148115
 1  1.14241004770477 -4.94716719921992 -0.34410812831283
 1  2.37020620642064 -5.53490619911991 -1.39384389828983
 1  4.67480190119012 -0.83781983308331  1.18226881308131
 1  5.70577477707771  0.57219165576558  1.89114358505851
 1  4.47315483578358  4.65620608800880 -0.31822180488049
 1  5.67222384518452  3.34392711191119  0.00884740794079
 1  4.92660207760776  3.97092260036004  1.46159746364636
 1  1.70048588058806  4.93596352595260  0.67776756365637
 1 -8.01236400800080 -2.53659965446545  1.26626132013201
 1 -7.24230987528753 -4.19880764666467  1.33765613351335
 1 -7.27188537253725 -3.40972873637364 -0.14118252905290
 1 -6.95998334003400 -0.38315864716472  0.14412634053405
 1 -5.02540738253825  1.31477567446745 -0.81793564166417
 1 -6.39299112881288  0.92115974427443 -1.70275695419542
 1 -4.70465896139614  0.18642548874887 -2.07474868756876
 1 -3.55144502380238  6.47150980678068  0.86976468046805
 1 -4.14391206870687  4.78907804000400  1.01534367216722
 1 -0.24379981468147  6.46339829972997  2.17933066556656
 1 -1.53483486678668  7.35654234973497  0.65958521492149
 1  0.32930211781178  6.94592309280928  0.35775210941094
 1 -3.76604690049005  6.20574645774578 -1.75936375247525
 1 -5.13284510761076  6.01636437743774 -0.72924806650665
 1 -4.37588210931093  4.48872036433643 -1.49736947534754
 1  3.85800110661066 -4.86785101530153  1.71841047804781
 1  8.00319756445645 -1.80042069436944  1.55681584418442

