%nproc=4
%Mem=4GB
# td=(NStates=1) B3LYP/SVP 

TD

0 1
 8 -4.45548566936694 -4.70451053225322  1.79319468306831
 8  2.90210080818082 -4.83431798099810  1.23460139193919
 8  7.10242062346235 -1.58586612771277  1.86105632613261
 8  3.76992872567257 -3.22162128732873  0.09426228462846
 8  7.55409416141614 -0.63147452675268 -0.11163073237324
 8 -3.00281060986099  2.45052244974497 -0.23862876747675
 7 -0.27509189088909 -0.61198054785479 -0.53700233643364
 7  1.47406508920892  1.83108548734873 -0.41601326342634
 7 -3.36873381638164 -3.04649369616962  0.67619609090909
 7 -0.78153955685569  2.89750016821682 -0.11090611451145
 6  0.59761099349935 -2.41300673897390 -1.42194427752775
 6  0.97382631643164 -1.12463241434143 -1.05936849214921
 6 -0.67416174127413 -2.64554844424442 -1.26001620102010
 6 -1.26378848504850 -1.52726636853685 -0.81431289718972
 6  3.80882882418242  1.46337082238224 -0.32577879427943
 6  2.43171386438644  0.77798913071307 -0.53901546014601
 6  2.13381038533853 -0.50925707150715 -0.87465971097110
 6  3.58192202910291  2.77168517671767 -0.01805257815782
 6  1.62934408690869 -3.42846811261126 -1.88749895089509
 6 -5.50754008920892 -2.58900080968097  1.31474141414141
 6 -3.52000406330633 -1.79722478447845  0.13811759675968
 6  2.10284454465447  3.03017944614461  0.00634315731573
 6 -4.97912410871087 -1.50382588578858  0.37428606750675
 6  5.07062554065407  0.71547121712171 -0.36729978637864
 6 -2.57743870607061 -0.98005477707771 -0.44248466286629
 6 -1.45626356405641 -3.89170367266727 -1.79471271497150
 6 -4.41773924072407 -3.61390989668967  1.31539065366537
 6  1.92398287428743 -4.53541576127613 -0.79760261606161
 6  5.33882375867587 -0.29298536243624  0.76731483758376
 6  4.49509529572957  3.82438366966697  0.55424760856086
 6  1.32477371877188  4.11358576607661  0.10411053055306
 6 -6.93748487908791 -3.05623300310031  1.17970743684368
 6 -5.81945054755476 -0.53626835673567 -0.10087156155616
 6 -0.07293228222822  4.07560223182318  0.12621124672467
 6 -1.01782274397440  5.13531462446245  0.50467509610961
 6 -2.20643596979698  4.66633275607561  0.23772517541754
 6  2.98687152845285 -4.08426504560456  0.17692909190919
 6 -5.48253291409141  0.44523975257526 -1.15631669866987
 6  6.76911947814782 -0.76732501660166  0.81155427802780
 6 -3.55944170347035  5.36456275447545  0.48269908500850
 6 -2.06088952525253  3.21436362766277 -0.03387246244624
 6 -0.55990012751275  6.58493236123612  0.77108219801980
 6 -4.25905444234423  5.68615702060206 -0.80315109080908
 1 -0.39930749564956  0.18989469506951 -0.04685523882388
 1  3.06921093569357 -1.02232423452345 -1.11273078167817
 1  2.55440669156916 -2.88831353825383 -2.27323975867587
 1  1.20187696699670 -3.94310622822282 -2.86167853435344
 1 -5.53640544674467 -2.24193258235824  2.52348450895089
 1  5.24657496769677  0.19090380688069 -1.29277243024302
 1  5.95429739533953  1.42261657095710 -0.22545384498450
 1 -2.63550164586459  0.17633212941294 -0.41847475307531
 1  0.53481981368137  1.87404858785879 -0.38415788788879
 1 -1.54757034823482 -4.65671777597760 -1.03490429612961
 1 -2.33960759045905 -3.61009871187119 -2.18206752695270
 1 -0.96417636873687 -4.29943811821182 -2.72732633563356
 1 -2.36582033983398 -3.47391353975398  0.98781602860286
 1  1.08978478517852 -4.94015649814981 -0.26378009550955
 1  2.50799998579858 -5.50660336883688 -1.22222673657366
 1  4.74823924492449 -1.26242229332933  0.86216680288029
 1  5.30017421702170  0.09339377597760  1.75193966466647
 1  4.63574109440944  4.56748721612161 -0.36613659635964
 1  5.47883450625063  3.28083080228023  0.50656717991799
 1  4.19195861326133  4.36834234233423  1.56163746764677
 1  1.88796462846285  4.94328425802580  0.42231201810181
 1 -7.92178495009501 -2.34691068556856  1.27853254725473
 1 -7.08441408570857 -3.95077284318432  1.62676504440444
 1 -6.93209139313931 -3.80558832233223  0.23034462366237
 1 -6.84498183988399 -0.71680201150115  0.31793372127213
 1 -5.12448729052905  1.34965916281628 -0.77398124622462
 1 -6.31707353705371  0.76522415071507 -1.69195587408741
 1 -4.73343183868387  0.07088393459346 -1.96872808550855
 1 -3.64381426072607  6.32785544134414  1.12334003800380
 1 -4.20699837733773  4.55357448964897  0.94918705650565
 1  0.37277184248425  6.59005096499650  1.54181691419142
 1 -1.41739312261226  7.24506120162016  1.29098835523552
 1 -0.14786559895990  7.12169066956696 -0.25102876867687
 1 -3.55099539533953  6.29617550065006 -1.55372318841884
 1 -5.12388421152115  6.19135187618762 -0.78816395809581
 1 -4.53926844794479  4.75147663996400 -1.45978571697170
 1  3.66077138363836 -4.64606883708371  1.78513715071507
 1  8.05936318101810 -1.95046569886989  1.75106526912691

