%nproc=4
%Mem=4GB
# td=(NStates=1) B3LYP/SVP 

TD

0 1
 8 -4.55849597039704 -4.67643772497250  2.05397076067607
 8  3.05044564266427 -4.81669621882188  1.16268420022002
 8  7.10396077747775 -1.61494903600360  1.83694391489149
 8  3.92474420722072 -3.19130825602560 -0.10478762036204
 8  7.63480223222322 -0.61349272857286 -0.10541011031103
 8 -2.98156848564856  2.27367476497650 -0.16796170077008
 7 -0.31025540724072 -0.48825817561756 -0.48673730993099
 7  1.57871555425543  1.81660403920392 -0.17094875697570
 7 -3.43601054405441 -3.12064111091109  0.73183165446545
 7 -0.73378478137814  2.96207662586259 -0.08692371627163
 6  0.58797002940294 -2.48490392869287 -1.23090517361736
 6  0.92128106190619 -1.10090004110411 -0.75405796109611
 6 -0.75425975107511 -2.61219510891089 -1.22395259465947
 6 -1.30412251845185 -1.42779642154215 -0.59566103200320
 6  3.81765970727073  1.50411489678968 -0.33829004540454
 6  2.46235692869287  0.79189052085209 -0.40980253885389
 6  2.20117712201220 -0.55413155895590 -0.61911415641564
 6  3.57880171707171  2.77872588078808 -0.04019479237924
 6  1.59957110961096 -3.40258552435243 -1.98423862486249
 6 -5.68334766996700 -2.64870678027803  1.24634457445745
 6 -3.69047111001100 -1.89595465746575  0.13256704170417
 6  2.18439269946995  3.06958338653865  0.01301382438244
 6 -5.08944514081408 -1.59804530773077  0.31850048894890
 6  5.11021950005000  0.72458212821282 -0.36177923432343
 6 -2.73661462366237 -1.10237700930093 -0.37778819321932
 6 -1.56336427412741 -3.83449795209521 -1.65085832953295
 6 -4.48190565736574 -3.62416092179218  1.40103921852185
 6  2.03278375437544 -4.49972219191919 -1.00073292909291
 6  5.24201407770777 -0.35061112501250  0.80765887198720
 6  4.68255404160416  3.86970820212021  0.09826201000100
 6  1.37275851725173  4.22063647114711  0.17016713621362
 6 -7.03662479307931 -3.13724110391039  0.87037650375038
 6 -5.75229383188319 -0.57657238713871 -0.28872034643464
 6 -0.06437142614261  4.01993666526653  0.17628625422542
 6 -0.98889985168517  5.24770586358636  0.37465209380938
 6 -2.20167549374938  4.80129625242524  0.28130953385339
 6  3.07882072337234 -4.05848246734673  0.04118551755176
 6 -5.44040870167017  0.33954918351835 -1.37164823182318
 6  6.79085165136514 -0.80175845994599  0.78608173077308
 6 -3.50838659795980  5.44709100730073  0.43078389348935
 6 -2.07119055535554  3.17737992929293 -0.01830090529053
 6 -0.55968010551055  6.56057992599260  0.87883297309731
 6 -4.35084362126213  5.72188059295930 -0.89067984368437
 1 -0.40173773867387  0.40492619821982 -0.13806435973597
 1  3.15764977957796 -1.12434443654365 -0.76945645424542
 1  2.40900215111511 -2.80574528142814 -2.51086352105211
 1  1.04756153545355 -3.88101001860186 -2.86470883738374
 1 -5.85821762796280 -2.12129051815181  2.37805996649665
 1  5.04722503270327  0.06471118761876 -1.12423557655766
 1  6.03513547914791  1.32137644694469 -0.55189648924893
 1 -2.82774086978698  0.10410490669067 -0.30594349994999
 1  0.54636096779678  1.76860804380438 -0.37441691379138
 1 -1.98598418961896 -4.53784588878888 -0.77463826952695
 1 -2.42129575927593 -3.43940164216422 -2.37552687288729
 1 -0.78681863296330 -4.39237741214121 -2.43777738073807
 1 -2.49571332913291 -3.66507265566557  0.56772401940194
 1  1.33301910861086 -4.90603308580858 -0.12804652215222
 1  2.47340652645265 -5.28938164666467 -1.50548506240624
 1  4.54545896689669 -1.24312036313631  0.49881046724672
 1  5.03913811341134  0.10245468206821  1.79819429012901
 1  4.44282180248025  4.74553502090209 -0.89670965366537
 1  5.66553317611761  3.34162688188819 -0.02528600540054
 1  4.58983840124012  4.15732124022402  1.12033333723372
 1  1.72970880288029  5.37467739733973  0.33841362826283
 1 -8.00747351895190 -2.37613360786079  0.75599029302930
 1 -7.30119576387639 -3.99574734063406  1.47325969386939
 1 -6.88014619861986 -3.64060182368237 -0.07892630343034
 1 -6.90406774847485 -0.71645197649765  0.05846777467747
 1 -4.95836067786779  1.26435063196320 -0.95127897599760
 1 -6.43141497119712  0.75271289958996 -1.83156983548355
 1 -4.70651914741474 -0.14560771457146 -2.23755496819682
 1 -3.12518239753975  6.37575023082308  1.13861156515652
 1 -4.00240791829183  4.98931806400640  1.24286642444244
 1 -0.05766120082008  6.52875483538354  1.83030576307631
 1 -1.34206558985899  7.18799549504950  1.06579583598360
 1  0.26027521512151  6.93894239473947  0.27323365756576
 1 -3.71872216801680  6.13557944104410 -1.75344316041604
 1 -5.22033385648565  6.17062980398040 -0.57958310001000
 1 -4.81494601570157  4.65801729402940 -1.32283202160216
 1  3.98379368586859 -4.64007823802380  1.60938957595760
 1  8.10152739743974 -1.85420607290729  1.77051721432143

