%nproc=4
%Mem=4GB
# td=(NStates=1) B3LYP/SVP 

TD

0 1
 8 -4.67964808560856 -4.76114619581958  1.93898926252625
 8  2.95223582168217 -4.87044159335934  1.26145407720772
 8  7.17689807120712 -1.58471601270127  1.74972519301930
 8  3.85354708750875 -3.04413353855386  0.09940279867987
 8  7.70036878887889 -0.48983036233623 -0.24774434373437
 8 -3.01574190299030  2.57258465596560 -0.24120902550255
 7 -0.31175555725573 -0.56599594939494 -0.55926456265627
 7  1.55786346904690  1.76828920772077 -0.29217087918792
 7 -3.43787073007301 -3.19926897369737  0.63232170347035
 7 -0.75663706660666  2.92046246444644 -0.01628665256526
 6  0.53753498589859 -2.50559599789979 -1.28782086518652
 6  0.96298523232323 -1.10099005010501 -0.97431998729873
 6 -0.80098442354235 -2.69409329872987 -1.20481068046805
 6 -1.34105621182118 -1.53353699559956 -0.69963142904290
 6  3.78680662196220  1.41281576687669 -0.24081029742974
 6  2.48326901990199  0.75522685448545 -0.51803336193619
 6  2.19944694899490 -0.49749589538954 -0.94004624962496
 6  3.52916675357536  2.75547355555556  0.04992421952195
 6  1.66432758525853 -3.48885415121512 -1.85361556255626
 6 -5.62682201740174 -2.52905481508151  1.33746368636864
 6 -3.65591765466547 -1.93538860086009  0.06576036103610
 6  2.14523878407841  2.96288271647165  0.02731525452545
 6 -5.04251044734473 -1.54734023722372  0.39676831573157
 6  5.04983346144614  0.61736140614061 -0.40325338173817
 6 -2.69234019621962 -1.05739251085109 -0.47780819521952
 6 -1.48902684038404 -3.87221172347235 -1.65447869156916
 6 -4.58222568936894 -3.66653515921592  1.35767488208821
 6  2.12587306330633 -4.45405762546255 -0.91812466826683
 6  5.46351622792279 -0.21257732163216  0.76020412651265
 6  4.56348213441344  3.79893112441244  0.37072925672567
 6  1.28202944434443  4.08629303680368  0.32275239473947
 6 -7.06558768936894 -3.05661304110411  1.03204267036704
 6 -5.81389999249925 -0.57134186408641 -0.24742621702170
 6 -0.04026901590159  4.05216988858886  0.26266489208921
 6 -1.00138109980998  5.17394848784878  0.47450207880788
 6 -2.20719604580458  4.68150427322732  0.34305570847085
 6  3.06263910521052 -3.92559917901790  0.16970836983698
 6 -5.38833349414941  0.26853208180818 -1.39537060406041
 6  6.86824939113911 -0.76419470357036  0.63890701330133
 6 -3.48712447174717  5.41279757795780  0.42077289238924
 6 -2.09225266156616  3.28893108440844  0.09288021282128
 6 -0.51872601010101  6.59627349534954  0.87265235503550
 6 -4.25757429432943  5.71022942784279 -1.01497227292729
 1 -0.52701026592659  0.41272697829783 -0.28469902320232
 1  3.12214622922292 -1.23959596169617 -1.16596610521052
 1  2.37996924782478 -2.76582128902890 -2.38891132583258
 1  1.04121090039004 -4.04093601120112 -2.58171053755376
 1 -5.68946075227523 -2.32222061116112  2.44586674717472
 1  5.09090940114011  0.01701641814181 -1.25080823382338
 1  5.91084304990499  1.46139044834483 -0.51285258485849
 1 -2.80923901960196 -0.10614611841184 -0.65389829542954
 1  0.50927725942594  1.97331851485149 -0.30765023712371
 1 -1.40496608780878 -4.62231433563356 -0.84592539823982
 1 -2.49270289999000 -3.48426612861286 -1.82207152735274
 1 -1.19628958005801 -4.38477665206521 -2.55406900990099
 1 -2.57262101990199 -3.60522667106711  0.57606485348535
 1  1.36832263896390 -5.21549403190319 -0.42555627312731
 1  2.56801598739874 -5.20598330683068 -1.51923643754375
 1  4.92016643764376 -1.08649470057006  1.08260884708471
 1  5.50440464006401  0.48886332293229  1.66268073877388
 1  4.43941146144615  4.46455692309231 -0.53313329602960
 1  5.55073169596960  3.43019573877388  0.42318884208421
 1  4.49562898029803  4.27101260936094  1.28252955685569
 1  2.00476630863086  5.07089701930193  0.44322410931093
 1 -7.79034180578058 -2.24284027852785  1.45669036303630
 1 -7.06208185248525 -4.06075384128413  1.65117748564856
 1 -7.55698388238824 -3.19214697819782 -0.05550396119612
 1 -6.84314165586559 -0.45031536283628 -0.00365843794379
 1 -4.62182702450245  1.19408360526053 -1.14684853295330
 1 -6.24878670837084  0.69306693499350 -1.77074375287529
 1 -4.89941843734373 -0.18809196299630 -2.10512172487249
 1 -3.36232611191119  6.43113576937694  0.88796650065006
 1 -4.19293697119712  4.78424755695570  0.98109024682468
 1  0.03699826512651  6.59988194809481  1.88404113661366
 1 -1.28620000330033  7.26849354485448  0.95316457285729
 1  0.10183937153715  7.00739924042404  0.16904323852385
 1 -3.53666396219622  6.20291617471747 -1.78443625972597
 1 -5.29926174927493  6.06180892189219 -0.87045218691869
 1 -4.39726424752475  4.77779927222722 -1.61408114651465
 1  3.57203250975098 -4.37792202240224  1.91202983998400
 1  8.01607885258526 -1.97511816411641  1.64356451905190

