%nproc=4
%Mem=4GB
# td=(NStates=1) B3LYP/SVP 

TD

0 1
 8 -4.59285940674067 -4.77528760996100  1.70891625522552
 8  2.99634023212321 -4.88429297849785  1.32300023182318
 8  7.20259064046405 -1.44418195929593  1.91536175667567
 8  3.76339807260726 -3.20652977817782  0.12700555895590
 8  7.42917166916692 -0.77062844214421 -0.39829939923992
 8 -3.08786911571157  2.53099049654965 -0.31851675627563
 7 -0.27863224492449 -0.47384673447345 -0.61806044224422
 7  1.55859354205421  1.75506788558856 -0.35048671077108
 7 -3.43723066606661 -3.19392843964396  0.53105157645765
 7 -0.87812921582158  2.91090150835084 -0.08829385328533
 6  0.65764699709971 -2.31855729402940 -1.26592867596760
 6  0.98316725052505 -1.11337128822882 -0.84421697699770
 6 -0.74350867596760 -2.59588347774777 -1.26822702210221
 6 -1.25695780198020 -1.46521016291629 -0.73014448034803
 6  3.86682462376238  1.43072755805581 -0.38994521092109
 6  2.54212490549055  0.80862219401940 -0.58536009460946
 6  2.33496050035003 -0.56212235803580 -0.74413665866587
 6  3.53279711661166  2.74903291149115 -0.05525629852985
 6  1.63662481498150 -3.39057432323232 -1.79595979697970
 6 -5.53015235043504 -2.50783269286929  1.34703464346435
 6 -3.61674373727373 -1.82088715071507  0.04669845484548
 6  2.14682894309431  2.92329875807581  0.09121164416442
 6 -5.03571976827683 -1.52392789598960  0.37392603150315
 6  5.23847232533253  0.73095276527653 -0.44421747814781
 6 -2.55902686488649 -0.97620439203920 -0.40012042644264
 6 -1.50596853455346 -3.83071757405741 -1.67980122382238
 6 -4.50199766656666 -3.70795930163016  1.31337045164516
 6  1.91986246224622 -4.57360958065807 -0.79796265206521
 6  5.44421429772977 -0.11081714561456  0.81319942604260
 6  4.63149893609361  3.78303953525353  0.26694887868787
 6  1.26779802120212  4.00498490599060  0.42863298279828
 6 -6.87324845544554 -3.21314869466947  1.04832429852985
 6 -5.71497009950995 -0.46304103400340 -0.06055753015302
 6 -0.12217720672067  3.95587025862586  0.25386401200120
 6 -1.00560152185219  5.12015310831083  0.47413204180418
 6 -2.20376570277028  4.70056617941794  0.36175757865787
 6  3.02302514381438 -4.13332995209521  0.24212561156116
 6 -5.50627528832883  0.56535176377638 -1.14528559555956
 6  6.82085465166517 -0.79009729382938  0.71763488608861
 6 -3.56979273857386  5.39302560076008  0.33506432153215
 6 -2.18694213051305  3.30364255555556 -0.00456953215322
 6 -0.53500763826383  6.47086095409541  0.92229731953195
 6 -4.35478401530153  5.63134153905391 -1.03629440514051
 1 -0.47183474837484  0.28055376097610  0.02785223192319
 1  3.18121213581358 -1.17652965506551 -1.09743925252525
 1  2.50598184908491 -2.94597930483048 -2.24738717341734
 1  0.93467024632463 -3.94136605420542 -2.57954032053205
 1 -5.53174498069807 -2.02849123822382  2.31785394589459
 1  5.01992230243024  0.05451016751675 -1.31035418841884
 1  5.91501346694669  1.47117142644264 -0.69548084768477
 1 -2.80303839953995  0.08512300850085 -0.66385929152915
 1  0.53406973867387  1.85663684668467 -0.45899537163716
 1 -1.49634522572257 -4.49309141334133 -0.89197000270027
 1 -2.59930356005601 -3.45584328632863 -1.85210453065307
 1 -1.02669262036204 -4.17308548294830 -2.63179678267827
 1 -2.35124888268827 -3.65175132353235  0.51465871287129
 1  0.87053285998600 -4.94643712621262 -0.20485420292029
 1  2.24564375017502 -5.38353106160616 -1.25504001790179
 1  4.66092051305131 -0.82321837293729  0.61599218541854
 1  5.19950415001500  0.38709314591459  1.69724419511951
 1  4.50615813611361  4.71753222062206 -0.27222720542054
 1  5.50460708350835  3.48227094629463  0.04455097829783
 1  4.84561397879788  4.18012352045205  1.44881618551855
 1  1.71162699469947  4.78777870747075  0.64266405330533
 1 -7.63826659825983 -2.46440243474347  1.13068776277628
 1 -7.02667831213121 -4.07820558645865  1.70649301720172
 1 -6.93142132613261 -3.75921368486849 -0.02247065786579
 1 -6.77639498119812 -0.42611294259426  0.16995892379238
 1 -4.97112195399540  1.38221241814181 -0.72373622172217
 1 -6.49567139683968  0.93114074237424 -1.65583226172617
 1 -4.64946344184418  0.32226907310731 -1.83556476917692
 1 -3.45856573587359  6.32774543034303  0.83752145614561
 1 -4.32799047654766  4.70645977817782  0.83880601840184
 1 -0.06465189988999  6.40016197609761  1.79583231573157
 1 -1.28676005930593  7.25682237773777  0.82892214861486
 1  0.20914010161016  6.84534303480348  0.24759109330933
 1 -3.74828512431243  6.24912079517952 -1.62294011011101
 1 -5.26678850195020  6.31929467046705 -0.75562070377038
 1 -4.40366488758876  4.74416590889089 -1.65475521392139
 1  3.62768807530753 -4.57069129932993  1.91662029902990
 1  8.13310055475547 -1.81541219351935  1.62122228482848

