%nproc=4
%Mem=4GB
# td=(NStates=1) B3LYP/SVP 

TD

0 1
 8 -4.57383750455046 -4.70069015021502  1.97566292989299
 8  2.87486808490849 -4.79066361556156  1.37723565536554
 8  7.19248963036304 -1.62377991909191  1.68184840534053
 8  3.90305203800380 -3.16085521072107  0.04587744614461
 8  7.69836858885889 -0.42034341364136 -0.16129569886989
 8 -3.00938126692669  2.49499689718972 -0.20683558815882
 7 -0.28030241194119 -0.58800815061506 -0.60734937113711
 7  1.58961664436444  1.83506588538854 -0.43469513161316
 7 -3.46874381738174 -3.23846289308931  0.69618809010901
 7 -0.72783418631863  2.94939535773577 -0.17225224912491
 6  0.51382261466147 -2.48527396569657 -1.33688577167717
 6  0.86926586038604 -1.22160211131113 -0.95631818711871
 6 -0.82246657175718 -2.65149903930393 -1.28884908430843
 6 -1.32368447464746 -1.50855449734973 -0.65526699259926
 6  3.72405034633463  1.38597308260826 -0.36663287968797
 6  2.47364805780578  0.74805613741374 -0.48504006260626
 6  2.16365336963696 -0.49256540234023 -0.85878812381238
 6  3.62284612151215  2.73064107230723 -0.01068184108411
 6  1.59333048554855 -3.39631489728973 -1.90996119711971
 6 -5.78699803500350 -2.60962287188719  1.28266820682068
 6 -3.61654371727173 -1.91438650065007  0.09306309130913
 6  2.15316957715772  2.90947737593759 -0.06542401940194
 6 -5.05381157745775 -1.48726422962296  0.29384802370237
 6  5.08225670377038  0.71984165416542 -0.34236729312931
 6 -2.69329029122912 -1.10951772337234 -0.39071948634863
 6 -1.57691562926293 -3.89770427272727 -1.63184642834283
 6 -4.52967043384338 -3.64099260496050  1.41227034163416
 6  2.15206568256826 -4.51723394309431 -0.92332518831883
 6  5.48708858515852 -0.10956702060206  0.91437954405441
 6  4.57453323952395  3.75939717101710  0.25618780258026
 6  1.40988222962296  4.07398180568057  0.23427354685469
 6 -7.17029816041604 -3.21864924472447  0.96863632973297
 6 -5.84005260776078 -0.64007873777378 -0.37212868726873
 6 -0.09110409940994  4.06952162376238  0.23745237083708
 6 -0.97390835253525  5.22783387638764  0.50448507710771
 6 -2.19148447464746  4.62111823462346  0.44286568946895
 6  3.04662750405040 -4.05673229232923  0.23125452445245
 6 -5.35035969676968  0.50787601620162 -1.33077414441444
 6  6.87100966716672 -0.62851113521352  0.75185830843084
 6 -3.51524728402840  5.32312861106111  0.57271808690869
 6 -1.99172260856086  3.25489768106811 -0.07726680188019
 6 -0.58724286178618  6.59015288328833  0.90909599939994
 6 -4.22243077997800  5.78338674357436 -0.85050582628263
 1 -0.22797036193619  0.28011371697170 -0.08806936023602
 1  2.95097911251125 -1.32647464956496 -1.08088759735974
 1  2.50966221712171 -2.92798750565056 -2.33310574527453
 1  0.96325310461046 -3.84982690029003 -2.64001636813681
 1 -5.68440024622462 -2.20067845694569  2.24964712521252
 1  5.22356266646665  0.02571728822882 -1.18577173017302
 1  5.76785875147515  1.46601091039104 -0.56666796639664
 1 -2.96392448814881 -0.08701420522052 -0.59439234483448
 1  0.50680701240124  1.83385456845685 -0.57746721882188
 1 -1.94037962916292 -4.48321042524252 -0.82480328602860
 1 -2.48637226692669 -3.58863656565657 -2.27191651185119
 1 -0.97523747484748 -4.45853402780278 -2.31433503650365
 1 -2.46642039983998 -3.33717986638664  1.13696094309431
 1  1.32540834753475 -4.99758224072407 -0.60105382288229
 1  2.49453863966397 -5.30121282978298 -1.52941745564556
 1  4.65758017901790 -0.91957800890089  1.17326791299130
 1  5.58814301390139  0.84454889148915  1.64154862556256
 1  4.72125964626463  4.52773324072407 -0.54972495519552
 1  5.55257187998800  3.31819453865387  0.29632615581558
 1  4.32038145554555  4.35523103120312  1.18264956885689
 1  1.85728156015602  5.02577250685068  0.45439522642264
 1 -7.82004477607761 -2.43861985648565  1.12008670267027
 1 -7.38657430173017 -4.07886565246525  1.66369873777378
 1 -7.20443862786279 -3.70572833633363  0.07457904710471
 1 -6.85977331903190 -0.54696502780278  0.00131205910591
 1 -4.95618045984598  1.44117831473147 -1.12071591969197
 1 -6.05121695139514  0.52790041834183 -2.11331801030103
 1 -4.42185068056806  0.02593944014401 -1.95968718141814
 1 -3.30273015231523  6.21125378117812  1.32792049604960
 1 -4.23149082658266  4.66972610481048  1.12892503030303
 1 -0.11527696239624  6.69953191309131  1.87484021652165
 1 -1.34754613791379  7.37010370587059  1.12473172957296
 1  0.19340852845285  7.14556305680568  0.16654298849885
 1 -3.47569786558656  6.41665754885489 -1.40844866096610
 1 -5.06677850095009  6.31714445544554 -0.69444458615862
 1 -4.28207272837284  4.89936142844284 -1.53305304370437
 1  3.44275958245825 -4.32328655885589  1.97335597259726
 1  8.14017126182618 -2.02385303760376  1.58312847544754

