%nproc=4
%Mem=4GB
# td=(NStates=1) B3LYP/SVP 

TD

0 1
 8 -4.38112823362336 -4.75535561676168  1.93836920052005
 8  2.91177177527753 -4.70865541474147  1.25175310711071
 8  7.03067344874488 -1.62302984408441  1.87922814331433
 8  3.75880761356136 -3.12438156335634  0.00902376077608
 8  7.53050180218022 -0.71113249254925 -0.03446301560156
 8 -3.03946427522752  2.58730612811281 -0.39818472307231
 7 -0.37554193589359 -0.59547889768977 -0.67997663386339
 7  1.56458414111411  1.79927230603060 -0.30689235133513
 7 -3.30891783478348 -3.11371041784178  0.64986345764576
 7 -0.84965636853685  2.95310572877288 -0.21474649854986
 6  0.69809104150415 -2.53544898319832 -1.43118520162016
 6  0.91459039283928 -1.15423537463746 -1.00754330963096
 6 -0.75696002110211 -2.66814070347035 -1.40580077947795
 6 -1.31215332153215 -1.54249789168917 -0.92050351625163
 6  3.72418035933593  1.39699418471847 -0.30386660306031
 6  2.42943363636364  0.81553288508851 -0.60288184678468
 6  2.12862986728673 -0.41978812461246 -0.93085533053305
 6  3.49337317421742  2.68431643984398  0.15308453555356
 6  1.85211636413641 -3.39369463526353 -1.92533273427343
 6 -5.46863619881988 -2.55720763036304  1.43535347534753
 6 -3.60690275317532 -1.80333539553955  0.05454923992399
 6  2.04914917511751  2.93206963516352  0.02829535253525
 6 -4.98698489478948 -1.52677818101810  0.48232687158716
 6  5.11689016711671  0.62454212421242 -0.34360741714171
 6 -2.68412937513751 -1.10302707430743 -0.55523593799380
 6 -1.62439037673767 -3.92016651895189 -1.81878512221222
 6 -4.38361582838284 -3.68848735443544  1.37740685528553
 6  2.15056553255326 -4.50311253095310 -0.97159001480148
 6  5.37179705600560 -0.25988205210521  0.91744985108511
 6  4.64758054425443  3.77702893419342  0.50313249704971
 6  1.31966320772077  4.14577898539854  0.23981410091009
 6 -6.92681381198120 -3.24833221302130  1.36306577267727
 6 -5.83047164966497 -0.66113084298430 -0.04552602700270
 6 -0.11129611861186  4.08358302990299  0.16285491109111
 6 -1.02885384708471  5.24024511751175  0.46382101070107
 6 -2.26961228742874  4.75625174797480  0.23778518141814
 6  2.99520236153615 -4.03585020412041  0.13453485248525
 6 -5.48919358015802  0.36726195479548 -1.16850791779178
 6  6.74032659885989 -0.87653593769377  0.83918704130413
 6 -3.52682844214421  5.39031532973297  0.39326014111411
 6 -2.11330476677668  3.31485367666767 -0.08608768396840
 6 -0.57686182368237  6.64884875287529  0.88066315611561
 6 -4.01777031393139  5.96833523842384 -0.89194997069707
 1 -0.54262182708271  0.28349405500550 -0.29328988228823
 1  2.91857587218722 -1.25437743984398 -1.10647015561556
 1  2.81526277717772 -2.83796850375038 -2.28591102580258
 1  1.37071385068507 -3.92276419401940 -2.75366773327333
 1 -5.55597740394039 -2.17669605870587  2.41468362886289
 1  4.99649996019602  0.01540625712571 -1.21665481848185
 1  5.88825079067907  1.22344665396540 -0.27921922152215
 1 -2.99958805450545 -0.00604610841084 -0.84577748334833
 1  0.56407273897390  1.76197738073807 -0.63546301840184
 1 -1.60405599679968 -4.68001010521052 -1.22419322502250
 1 -2.64376800650065 -3.68260596259626 -1.90449977017702
 1 -1.21404135523552 -4.43973214761476 -2.55865946894689
 1 -2.39668342614261 -3.55107125552555  0.75608285528553
 1  1.07104291099110 -4.96605908840884 -0.56527024452445
 1  2.61890107590759 -5.27132984148415 -1.67085159905991
 1  4.71970639163916 -1.03118917001700  1.24572515871587
 1  5.46303050265027  0.37369180578058  1.94235870657066
 1  4.33240076037604  4.57760822822282 -0.30714069676968
 1  5.71512813561356  3.39473219241924  0.29076559975998
 1  4.32286170357036  4.28338384648465  1.50582188608861
 1  1.81002683468347  5.00026995659566  0.54645443234323
 1 -7.81730450205020 -2.71750774527453  1.88194288828883
 1 -6.75765140944094 -4.00589835573557  2.22244461236124
 1 -6.98083626762676 -3.60865862936294  0.26852844204421
 1 -6.81429877157716 -0.59461979327933  0.34789671757176
 1 -5.01837667946795  1.17371156805681 -0.66119996809681
 1 -6.55660749044904  0.41323895219522 -1.52747942644264
 1 -4.72266076157616  0.05294214041404 -1.92754396709671
 1 -3.47636751605161  6.25699835563556  1.01181888588859
 1 -4.27871554905491  4.72512164436444  1.03053519131913
 1  0.04981954725473  6.48845080498050  1.65017775027503
 1 -1.52415379867987  7.31768846434643  1.22260151655166
 1  0.01089027662766  7.17411591209121  0.03380971517152
 1 -3.42215251105111  6.75808169126913 -1.29331714781478
 1 -5.08081990509051  6.50948368936894 -0.83385852755275
 1 -4.00010453155316  5.22481397369737 -1.95283502190219
 1  3.69634494099410 -4.39568379857986  1.83949258625863
 1  7.82004924962496 -2.06863751605161  1.77449761236124

