%nproc=4
%Mem=4GB
# td=(NStates=1) B3LYP/SVP 

TD

0 1
 8 -4.58067818861886 -4.84449453065306  1.82983834743474
 8  2.91054165226523 -4.70617516671667  1.26262419421942
 8  6.85010539193919 -1.51423896499650  1.89975019551955
 8  3.95363709650965 -3.16097522272227 -0.04879202080208
 8  7.58604735673567 -0.58938031733173  0.02966339703970
 8 -3.02586291509151  2.51277867536754 -0.33560846544654
 7 -0.39423380508051 -0.56947629742974 -0.54817345354535
 7  1.52912059475948  1.76986936573657 -0.50775243734373
 7 -3.40813775677568 -3.19074812161216  0.64167263856386
 7 -0.74885628852885  2.99756017421742 -0.23721874577458
 6  0.62143337573757 -2.43540897919792 -1.38210029312931
 6  0.87080601440144 -1.08764871597160 -0.98383093839384
 6 -0.73412773787379 -2.63256714611461 -1.20307050645065
 6 -1.35682778897890 -1.48057169906991 -0.61651311721172
 6  3.79134707600760  1.43464795009501 -0.33256947334733
 6  2.46705739873987  0.78765009680968 -0.65703726232623
 6  2.18446545084508 -0.51377752355236 -0.96377862286229
 6  3.56913074997500  2.72417042524252  0.07293652075208
 6  1.67562871537154 -3.37467273307331 -1.98422862386239
 6 -5.58618795399540 -2.64986689628963  1.43234317431743
 6 -3.63716577947795 -1.92084714671467  0.14754853985399
 6  2.06688094829483  3.01771820002000 -0.04678215521552
 6 -5.05237143344334 -1.62000750395040  0.41439007790779
 6  5.10701918001800  0.73954362436244 -0.45157821422142
 6 -2.68887985018502 -1.15229200080008 -0.38711912631263
 6 -1.41299923762376 -3.87870237253725 -1.68409165286529
 6 -4.46494396119612 -3.78853735943594  1.32131124572457
 6  2.04036451245125 -4.54536675637564 -1.01345420122012
 6  5.32447232353235 -0.25827189108911  0.87443554965497
 6  4.58357414361436  3.80318154945495  0.33793597739774
 6  1.37454869626963  4.09826423392339  0.30492061156116
 6 -7.06671780238024 -3.16202358215822  1.26477594369437
 6 -5.83252185468547 -0.54834956485649 -0.06315779017902
 6 -0.03779876887689  4.09481415301530  0.17190581618162
 6 -0.95683664536454  5.19336042904290  0.57410203880388
 6 -2.17536286248625  4.76519264206421  0.29710111301130
 6  3.06988983028303 -4.01958857795780  0.08362976197620
 6 -5.42541720252025  0.31290651925193 -1.22278334533453
 6  6.75009757595760 -0.81042932703270  0.86109923252325
 6 -3.48921468076808  5.43897019521952  0.44911572667267
 6 -2.05807924422442  3.31056324762476 -0.10190926612661
 6 -0.49904404190419  6.58886275427543  0.91676676647665
 6 -3.96718525542554  5.77516592149215 -0.91351212691269
 1 -0.39329689458946  0.62217792339234 -0.41987254055406
 1  2.97781179577958 -1.15200720282028 -1.04834434303430
 1  2.45163641454145 -2.67272197909791 -2.16764919961996
 1  1.30920770007001 -3.78362027962796 -2.96901926842684
 1 -5.40235204140414 -2.33622201130113  2.44965712621262
 1  5.13913422362236  0.18586330283028 -1.41269442244224
 1  5.97943990959096  1.52397670697070 -0.29102040164016
 1 -2.91314941064106 -0.12787829162916 -0.42104501010101
 1  0.46831316301630  1.93225440844084 -0.49949942204221
 1 -1.54123971517152 -4.78212031623162 -0.92297310301030
 1 -2.57276090579058 -3.81347904990499 -2.17696701690169
 1 -0.71950190129013 -4.36912508690869 -2.56779038203820
 1 -2.66974073187319 -3.77818396679668  0.45271251825182
 1  1.23101890859086 -5.02969545204520 -0.50760447794779
 1  2.78168735453545 -5.32759546804680 -1.61750626452645
 1  4.75147956895690 -1.20239629072907  1.03019360556056
 1  5.25441964156416  0.50222465906591  1.67378184888489
 1  4.73104062436244  4.50175064246425 -0.71644162686269
 1  5.63501012381238  3.09231195039504  0.40969749294929
 1  4.30207962536254  4.48809431753175  1.28007931183118
 1  1.91617744974497  5.00323025262526  0.69763955085509
 1 -7.60912368396840 -2.28947494199420  1.56537123112311
 1 -7.11849749404940 -3.92738050395040  2.11605397329733
 1 -7.36248443244324 -3.36232399589959  0.30968255745575
 1 -6.95360270197020 -0.70762109340934  0.19691161906191
 1 -5.03993883568357  1.15045924282428 -0.95076892499250
 1 -6.26354818451845  0.77248487678768 -1.83490016851685
 1 -4.77796629212921 -0.15318847264726 -1.95828704140414
 1 -3.55888576787679  6.48062071787179  1.17782548654866
 1 -4.32682035953595  4.66153528572857  0.67190932873287
 1  0.10342490779078  6.68259021892189  1.67209994249425
 1 -1.38525990929093  7.15804249974997  1.17606686308631
 1 -0.02848366076608  7.22211071157116  0.04194052825283
 1 -3.01874217001700  6.33388927202720 -1.51053886998700
 1 -4.79543136623662  6.51788452945295 -0.92095723742374
 1 -4.17249177027703  4.84417590989099 -1.31799153755376
 1  3.44170947744775 -4.40998522872287  1.99578821582158
 1  7.76871411611161 -2.04473512581258  1.97399756235624

