%nproc=4
%Mem=4GB
# td=(NStates=1) B3LYP/SVP 

TD

0 1
 8 -4.55005512631263 -4.61375145634563  1.96904226782678
 8  2.90868146624662 -4.73684823402340  1.13220115191519
 8  6.87541792319232 -1.49361690279028  2.00047026752675
 8  3.76726845964596 -3.18488761396140 -0.09142628422842
 8  7.62974172617262 -0.50982236153615  0.15016544724472
 8 -2.94555488428843  2.39638703620362 -0.08448335293529
 7 -0.34227860956096 -0.53894324412441 -0.70684932113211
 7  1.58539622232223  1.87254963376338 -0.47483914601460
 7 -3.38783572657266 -3.10866991379138  0.72104057535754
 7 -0.64167557045705  2.77456787498750 -0.04008903280328
 6  0.58591982438244 -2.46518195649565 -1.38788087118712
 6  0.92908184198420 -1.11502145324532 -0.96171872717272
 6 -0.81810613571357 -2.61902579197920 -1.19409960936094
 6 -1.29077118331833 -1.52054569646965 -0.81241270717072
 6  3.81368931023102  1.43623810911091 -0.48361457785779
 6  2.52988368136814  0.88755008680868 -0.67215877447745
 6  2.26405340964096 -0.47912405820582 -0.97920016501650
 6  3.59039287618762  2.77843585178518 -0.08973974687469
 6  1.59287043954395 -3.46240150595060 -1.97384758575858
 6 -5.57405674087409 -2.56530844044404  1.40007994799480
 6 -3.60879294219422 -1.89065412741274  0.08916270127013
 6  2.21063532373237  2.99924635283528 -0.06503398039804
 6 -5.08168436473647 -1.54070957415742  0.37619625852585
 6  5.11287976607661  0.60953062306231 -0.43568662506251
 6 -2.61049201140114 -1.08226499809981 -0.49206962136214
 6 -1.55301323902390 -3.85494999729973 -1.67403064676468
 6 -4.48499596639664 -3.56678518421842  1.36996611121112
 6  1.89892036803680 -4.55027724742474 -0.97283013881388
 6  5.39283916021602 -0.00856692059206  0.87887599369937
 6  4.57763354955495  3.82845407670767  0.34372655645565
 6  1.44925616701670  4.12193660116012  0.18804892439244
 6 -7.09371050165016 -3.07639501930193  1.09090855695570
 6 -5.78661726422642 -0.65489021892189 -0.20237171157116
 6 -0.02804779377938  3.93713838543854  0.18639726532653
 6 -0.95361632333233  5.06866795979598  0.50563519211921
 6 -2.17137246344634  4.62610873367337  0.30567197009701
 6  2.98047088838884 -4.06557317641764  0.08113951295130
 6 -5.26503116391639  0.37668289688969 -1.20851191819182
 6  6.77415998219822 -0.69807809190919  0.90700382298230
 6 -3.55432119141914  5.18719501770177  0.50998181328133
 6 -2.07968140444044  3.11712390369037 -0.05844491969197
 6 -0.48459259675968  6.52340620862086  0.86925201500150
 6 -4.30020855775578  5.58692709760976 -0.75429620532053
 1 -0.66156372127213  0.22032773837384 -0.29106966026603
 1  3.10843485808581 -1.16652865496550 -1.15348485708571
 1  2.68200945184518 -3.08135284218422 -2.36201863656366
 1  1.01411819111911 -3.89599151675168 -2.80825319181918
 1 -5.65045685188519 -2.06391478057806  2.38023018351835
 1  5.09643995419542 -0.12649793329333 -1.17203035603560
 1  6.06364833043304  1.04515882518252 -0.88572987258726
 1 -3.02539063476348 -0.10645614941494 -0.53621652725273
 1  0.43658999069907  1.95158634163416 -0.49101857395740
 1 -1.55841143234323 -4.72762486668667 -1.14035484118412
 1 -2.52725635533553 -3.38783648564856 -1.69859918011801
 1 -1.24263421452145 -4.18004617901790 -2.85507911091109
 1 -2.40202396019602 -3.47585373377338  1.10114736173617
 1  1.04698050475047 -4.96182866536654 -0.11633535103510
 1  2.31936112191219 -5.45129783828383 -1.46174068796880
 1  4.78602302330233 -0.81975802690269  1.26598718491849
 1  5.47851205080508  0.55950038663866  1.85517998869887
 1  4.44288180848085  4.71233170057006 -0.43047303000300
 1  5.65480210301030  3.55751847104710  0.32213873707371
 1  4.20945036243624  4.62857836593659  1.24510581448145
 1  1.90745657765777  4.95536546614661  0.44208399529953
 1 -7.79374214581458 -2.42467846234623  1.53965865986599
 1 -7.25104074837484 -4.08819658555856  1.53283565146515
 1 -7.33829201320132 -2.85258302180218 -0.21679008980898
 1 -6.80292763446345 -0.48975930723072 -0.09650772287229
 1 -4.73751859365937  1.08387258415842 -0.76852070017002
 1 -6.05117694739474  0.83076070437044 -1.63992067056706
 1 -4.57201569706971 -0.04698785258526 -1.93330454315432
 1 -3.30992087138714  6.18005066086609  1.06350405440544
 1 -4.14771244874487  4.46615574777478  1.18382051985199
 1  0.29119368466847  6.70416237613761  1.74962769526953
 1 -1.17594897819782  7.26676337183718  1.08689794619462
 1 -0.05245605800580  7.09896839733973 -0.09170283608361
 1 -3.49822011781178  6.20228611171117 -1.69158697479748
 1 -5.00578240134013  6.31579432043204 -0.53189833153315
 1 -4.90356487758776  4.78957044934493 -1.45848558695870
 1  3.57869317581758 -4.08181241144114  1.75175381238124
 1  7.82812005670567 -1.71395204750475  1.90687084968497

