%nproc=4
%Mem=4GB
# td=(NStates=1) B3LYP/SVP 

TD

0 1
 8 -4.65873599439944 -4.73658373957396  1.93559892349235
 8  3.28706930503050 -4.96861141034103  1.12186011781178
 8  6.97577795919592 -1.33495103620362  2.01262148264827
 8  3.76623835663566 -3.16272539773977 -0.21755889748975
 8  7.68613736573657 -0.56106748604860  0.07723815451545
 8 -3.05109543834383  2.52440983848385 -0.14255916051605
 7 -0.27354173587359 -0.58522787258726 -0.70998963516352
 7  1.57597528022802  1.73478585738574 -0.49192085418542
 7 -3.44677162016202 -3.15058410521052  0.86444491579158
 7 -0.81902330523052  2.88142856105611  0.02766774287429
 6  0.67629886228623 -2.48412385068507 -1.42847493059306
 6  0.92403133693369 -1.16228617971797 -0.98878143344334
 6 -0.74220854595460 -2.68355224462446 -1.30031023042304
 6 -1.31977408360836 -1.48113175507551 -0.79907137303730
 6  3.89025696699670  1.45751023632363 -0.45122133853385
 6  2.53381407440744  0.74413574537454 -0.66828838743874
 6  2.23199020332033 -0.51536768256826 -0.89753199819982
 6  3.61369520642064  2.73122113031303 -0.01871264416442
 6  1.69043019551955 -3.43614888068807 -1.97492769376938
 6 -5.66379571477148 -2.44501641124112  1.39929986998700
 6 -3.67477954085409 -1.86631169316932  0.15352913791379
 6  2.11895615581558  2.89723615181518  0.00963348634863
 6 -5.08930512681268 -1.48385388858886  0.36181482038204
 6  5.09408788688869  0.65491516151615 -0.42087514391439
 6 -2.61849281148115 -1.12174894649465 -0.49242965736574
 6 -1.47134507220722 -4.03215771807181 -1.66475971967197
 6 -4.57187465426543 -3.61560006570657  1.45091420602060
 6  2.00402087808781 -4.54229644934493 -0.94679753555356
 6  5.44324420072007 -0.09048511241124  0.85435354145415
 6  4.60300608680868  3.70226145744574  0.30437262106211
 6  1.29945118651865  4.04941934943494  0.33912403190319
 6 -7.03428455905591 -3.01534891469147  1.15939540564056
 6 -5.78167677017702 -0.44606933683368 -0.10402187658766
 6 -0.06439142814281  3.93960863246325  0.32065069066907
 6 -1.07464842654265  5.17883897689769  0.47830245884588
 6 -2.32958828502850  4.75883200600060  0.38808021092109
 6  3.06629947124712 -4.14835145424542 -0.00362896389639
 6 -5.39618427922792  0.44510973957396 -1.25006607360736
 6  6.78005057125713 -0.69894817891789  0.92189531213121
 6 -3.70499625892589  5.45454175237524  0.33596441154115
 6 -2.18618205450545  3.28960115141514  0.09745066986699
 6 -0.55093923142314  6.47742161016102  0.97535262506251
 6 -4.06654519141914  5.79964836973697 -1.09259003470347
 1 -0.34169173407341  0.32766847244724 -0.28643919721972
 1  2.99859387398740 -1.29684168626863 -1.25780528912891
 1  2.62085333623362 -3.00003471037104 -2.22866530123012
 1  1.07115389468947 -3.89058097569757 -2.94870723722372
 1 -5.58335014121412 -2.01653004210421  2.38424058455846
 1  5.14508481868187  0.01277599409941 -1.21252440544054
 1  5.96484845044504  1.39196350565057 -0.53949524912491
 1 -2.94910300600060  0.06282077827783 -0.66254916051605
 1  0.47205353705371  1.65187637063706 -0.58815828792879
 1 -1.34249984118412 -4.71976408060806 -0.89352015771577
 1 -2.55408903860386 -3.98310601260126 -1.99625894609461
 1 -0.91415136623662 -4.38599677407741 -2.60352395539554
 1 -2.63437719551955 -3.73609975837584  0.63755100210021
 1  1.12206801350135 -5.07102958545854 -0.51926564406441
 1  2.55999518531853 -5.47423013151315 -1.44307882178218
 1  4.72949737073707 -0.68685473657366  0.96770735693569
 1  5.43343754335434  0.50458489508951  1.72608707940794
 1  4.42141966226623  4.65754622202220 -0.29047903060306
 1  5.62554917771777  3.20897361656166  0.13717024022402
 1  4.60507992539254  3.90168567666767  1.38565986988699
 1  1.65137096909691  5.11106103570357  0.42452223912391
 1 -7.77204997659766 -2.19639563406341  1.13230792479248
 1 -7.33750939523952 -3.68134590049005  1.98379074697470
 1 -6.96810499449945 -3.53273103660366  0.13979556875688
 1 -6.73781112281228 -0.30342067336734  0.02112404030403
 1 -4.66828166996700  1.21534573147315 -0.95846969506951
 1 -6.27064889458946  0.96774440274027 -1.60161684018402
 1 -5.01247974347435 -0.36218937273727 -2.14988620132013
 1 -3.68535841514151  6.32819547534753  1.03513121712171
 1 -4.38469614711471  4.59232836503650  0.76454859265927
 1  0.18939350465046  6.35515747564757  1.76507924042404
 1 -1.35151653495350  7.23033972947295  1.04946420282028
 1  0.02423161076108  6.90199870037004 -0.03566723252325
 1 -3.38324862066207  6.45437132023202 -1.69478729482948
 1 -5.02826464956496  6.29687242824282 -1.18493363506351
 1 -4.11755627672767  4.84059555185519 -1.65327506590659
 1  4.09744505100510 -4.66358058825883  1.65000363736374
 1  7.90537778247825 -1.58164881718172  1.91259142174217

