%nproc=4
%Mem=4GB
# td=(NStates=1) B3LYP/SVP 

TD

0 1
 8 -4.60720084088409 -4.89546962816282  1.68713407700770
 8  2.72332293039304 -4.73079762896290  1.18620655245525
 8  7.15903628502850 -1.43316085718572  1.81885210571057
 8  3.73626535933593 -3.10071919711971  0.03678653705371
 8  7.62493124512451 -0.61864324362436 -0.14157372667267
 8 -3.05596592539254  2.43700109760976 -0.13080798539854
 7 -0.29372375407541 -0.50213956375638 -0.49041767796780
 7  1.59382706540654  1.72866524532453 -0.14574623672367
 7 -3.52378932193219 -3.19054810161016  0.52904137543754
 7 -0.77164856775678  2.87032745094509  0.05958093419342
 6  0.59586081848185 -2.39395483378338 -1.33480556365637
 6  0.84890382418242 -1.03897384848485 -0.85871842714271
 6 -0.77796212131213 -2.65007889728973 -1.21643184258426
 6 -1.25524763096310 -1.49290293219322 -0.60015148104810
 6  3.87034497579758  1.44627911321132 -0.23705992239224
 6  2.52266295929593  0.71657298909891 -0.44234579317932
 6  2.19361636593659 -0.56668281408141 -0.77972021702170
 6  3.59695353225323  2.80818882708271  0.01949117621762
 6  1.63044419691969 -3.39565483128313 -1.88342854385439
 6 -5.60906024122412 -2.58777068666867  1.41820176017602
 6 -3.60968303120312 -1.84131919391939  0.24450823582358
 6  2.11782604280428  2.96280270847085  0.08536105910591
 6 -5.07657385368537 -1.48798430163016  0.51143978287829
 6  5.14783326142614  0.72735240524052 -0.52550560696070
 6 -2.62401336353635 -1.10977774937494 -0.33914432883288
 6 -1.54816275397540 -3.86304080638064 -1.75745898959896
 6 -4.60163763056306 -3.80300880658066  1.27816693129313
 6  2.01627210321032 -4.59360157985799 -0.96160901670167
 6  5.48834871117112 -0.13489955385539  0.79433753985399
 6  4.65515130133013  3.93795502680268  0.19313149694969
 6  1.37016825822582  4.06412081958196  0.31732185168517
 6 -7.02825395599560 -3.11086846664666  1.27604707080708
 6 -5.73596219871987 -0.61061579147915 -0.31837331173117
 6 -0.03223821282128  3.97806247784778  0.24719334493449
 6 -0.94553551525153  5.20319141214121  0.38495312391239
 6 -2.22769809600960  4.71556767956796  0.20057146004600
 6  3.00956379767977 -4.12831945104510  0.09143054205421
 6 -5.38050271107111  0.42234746334633 -1.35054612161216
 6  6.88753131933193 -0.69878816291629  0.74142726532653
 6 -3.52899865916592  5.39577587578758  0.34169498459846
 6 -2.08295173147315  3.24717690899090 -0.00653972917292
 6 -0.40279441694169  6.55559942794279  0.74398948874887
 6 -4.26969550645064  5.73762216711671 -0.94440521622162
 1 -0.40155772067207  0.34543024862486 -0.05756630993099
 1  3.01517553215321 -1.34222622472247 -1.01345085368537
 1  2.56312756365637 -2.93048775567557 -2.34024645934593
 1  1.22581936123612 -3.93889580718072 -2.84717708420842
 1 -5.53781558775878 -2.12905129422942  2.50832299279928
 1  5.24464477467747  0.10104482098210 -1.29878303130313
 1  5.91589355495550  1.47813212251225 -0.57291859145915
 1 -2.72240033573357 -0.07326283008301 -0.19635254085409
 1  0.49585591729173  1.86765794879488 -0.31723119521952
 1 -1.30447603880388 -4.98878098229823 -1.31180198589859
 1 -2.46983061276128 -3.56097379937994 -1.87761708190819
 1 -1.06336628772877 -4.11679985438544 -2.77429103210321
 1 -2.61854561236124 -3.68876502490249  0.30231747874787
 1  1.12926873357336 -4.83126560906091 -0.26482019951995
 1  2.45004419021902 -5.33759646814681 -1.70442495639564
 1  4.79172359335934 -0.99125517661766  0.61680226642664
 1  5.35619981958196  0.32520695729573  1.81492596329633
 1  4.28205572587259  4.72985345274528 -0.49046902960296
 1  5.51617824062406  3.54415713491349 -0.05612908970897
 1  4.72247166456646  4.07101260936094  1.26878818271827
 1  1.81914774677468  5.10891082068207  0.65055484238424
 1 -7.89853262486249 -2.24732072657266  1.08712340634063
 1 -7.24214985928593 -3.86202396829683  2.19571193909391
 1 -7.08471665566557 -3.87329509300930  0.24898648784879
 1 -6.83135047674767 -0.65200553185319 -0.16751482358236
 1 -5.19817465926593  1.43907810471047 -1.07282113021302
 1 -6.27853968366837  0.48419604790479 -2.19702638113811
 1 -4.59029752525252 -0.02537569136914 -1.89833104580458
 1 -3.25341522082208  6.20975363116312  1.04968267226723
 1 -4.04407208470847  4.55363449564957  1.00718285608561
 1  0.15851041634163  6.58426038593859  1.73780651315132
 1 -1.21153253655366  7.28245494099410  0.52588184458446
 1  0.38959814741474  6.97278577907791 -0.04539820562056
 1 -3.68471876767677  6.45487137023702 -1.75608342444244
 1 -5.24348617171717  6.26084882588259 -1.01807694939494
 1 -4.59456397749775  4.84869636193619 -1.60652039043904
 1  3.46305161166117 -4.55027925812581  1.82318095509551
 1  8.04468171287129 -1.71508216051605  1.79704986758676

