%nproc=4
%Mem=4GB
# td=(NStates=1) B3LYP/SVP 

TD

0 1
 8 -4.64475459625963 -4.79818990019002  1.74605996959696
 8  2.95728632673267 -4.86470101930193  1.30412834463446
 8  7.08260864226423 -1.69414695579558  1.77372759325933
 8  3.84104583738374 -3.11819094429443  0.00700355875588
 8  7.69290804280428 -0.51239261856186 -0.07207677697770
 8 -3.04645497429743  2.49119651715172 -0.12848775337534
 7 -0.25471985368537 -0.60404975477548 -0.39939857605761
 7  1.59824750745074  1.75209758855886 -0.37044870697070
 7 -3.55474241724172 -3.21481052785279  0.59014748604860
 7 -0.76812821572157  2.91315173337334  0.01509648574858
 6  0.63322455485549 -2.44606004430443 -1.33323540664066
 6  0.90764969876988 -1.16681663276328 -0.95651820712071
 6 -0.73584790989099 -2.71489537893789 -1.19565976537654
 6 -1.24147625382538 -1.50770441234123 -0.53748521442144
 6  3.84269221052105  1.47354183948395 -0.43226944334433
 6  2.56803749674968  0.86709804160416 -0.58194975357536
 6  2.22698970327033 -0.55168131393139 -0.83704594959496
 6  3.62738657555756  2.72744075227523 -0.00794156705671
 6  1.58577973047305 -3.43144841064106 -1.87196739773977
 6 -5.70409974517452 -2.64087599719972  1.28957889788979
 6 -3.69206126902690 -1.92696775877588  0.11621540654065
 6  2.10937519771977  2.96850327852785 -0.02890036703670
 6 -5.12305850215022 -1.52785828902890  0.41379001790179
 6  5.12025050315031  0.70570024002400 -0.52593564996500
 6 -2.62544350655066 -1.08109488108811 -0.25662607700770
 6 -1.51629956765677 -3.89068357065707 -1.69604284798480
 6 -4.56309377617762 -3.68171667736774  1.27056617121712
 6  2.06854733073307 -4.52722494219422 -0.86936979277928
 6  5.47515739203920 -0.01432749664967  0.84675278137814
 6  4.56859264546455  3.87815904720472  0.26217840164016
 6  1.39091033243324  4.12517692519252  0.13916403590359
 6 -7.15433656425643 -3.07740512031203  1.07221668776878
 6 -5.77219582208221 -0.53700843074307 -0.30413188758876
 6 -0.04052904190419  4.06078074967497  0.17080570617062
 6 -0.95397635933593  5.20473156615662  0.45500012861286
 6 -2.21061638783878  4.69041516431643  0.32367377027703
 6  3.06111895319532 -4.03163978307831  0.15116651565157
 6 -5.25815047584758  0.31993722232223 -1.38008907590759
 6  6.82275484168417 -0.69383766786679  0.76602972557256
 6 -3.62894865416542  5.41180747894789  0.58044885998600
 6 -2.11966540284028  3.26678887018702 -0.00818989418942
 6 -0.55453959145915  6.62093596159616  0.74913000280028
 6 -4.23131166806681  5.76739514441444 -0.74321509720972
 1 -0.31125869076908  0.37863356895690  0.03357280398040
 1  3.00823483808381 -1.25606760886089 -0.73223273187319
 1  2.52620387128713 -2.98740344724472 -2.15215765046505
 1  1.22601938123812 -3.91821373897390 -2.83845621212121
 1 -5.53584539073907 -2.09537792689269  2.15620778127813
 1  5.04852516271627  0.01646636313631 -1.39187234023402
 1  5.99884184978498  1.36000030933093 -0.95287658725873
 1 -2.89529762546255 -0.02994849864987 -0.26326923252325
 1  0.63267959965997  1.88419960296030 -0.52591206330633
 1 -1.67359295049505 -4.58812091629163 -1.01089189488949
 1 -2.54417804750475 -3.36042374437444 -1.85929524972497
 1 -1.10345029612961 -4.61518969336934 -2.50205380838084
 1 -2.69862362016202 -3.70583673207321  0.67304455145515
 1  1.05844165086509 -4.83405588808881 -0.18328204570457
 1  2.51120030583058 -5.45260796929693 -1.42692720662066
 1  4.71787620862086 -0.90366641774177  0.99342992919292
 1  5.66088028762876  0.77810224682468  1.53125759645965
 1  4.37691521182118  4.55459592699270 -0.66626660936094
 1  5.52957958075808  3.37584030323032 -0.11557503430343
 1  4.58741815921592  4.34375988408841  1.25368667256726
 1  2.01904773677368  5.01692162176218  0.32998278517852
 1 -7.91809458105811 -2.21228722322232  1.49127382138214
 1 -7.36268191249125 -4.01963972987299  1.60639300720072
 1 -7.39307749174918 -3.16855461896190  0.03295488468847
 1 -6.94149149084908 -0.51072140344034 -0.02222029412941
 1 -4.87003184498450  1.23911810871087 -1.07135098319832
 1 -6.07063889358936  0.42767039533953 -2.26330300880088
 1 -4.40493898939894 -0.20821397519752 -2.00972218491849
 1 -3.49800968026803  6.29598225402540  1.00505820982098
 1 -4.22314999249925  4.85389452165217  1.26224836263626
 1 -0.12304773947395  6.53908586848685  1.75313804630463
 1 -1.26934831813181  7.29810650615062  0.97806706310631
 1  0.11920110771077  6.84432293279328 -0.09879354515452
 1 -3.82846314211421  6.30697658075808 -1.65863367946795
 1 -5.23602542564256  6.30823356435644 -0.66910205190519
 1 -4.25635015611561  4.93903539583958 -1.30118985738574
 1  3.70057536403640 -4.49195342554255  1.96819545654565
 1  7.90196744144414 -2.02187283958396  1.68150831343134

