%nproc=4
%Mem=4GB
# td=(NStates=1) B3LYP/SVP 

TD

0 1
 8 -4.46943706450645 -4.68835891709171  1.97709307290729
 8  2.94333493159316 -4.90331488068807  1.36274420622062
 8  7.19757013841384 -1.43223076417642  1.81041126162616
 8  3.74670640344034 -3.09288841404140  0.17661051945195
 8  7.61797054905491 -0.63811519081908 -0.29570914021402
 8 -3.08600892969297  2.50245764326433 -0.04716962156216
 7 -0.34104848654865 -0.53750310011001 -0.64172280848085
 7  1.59778746144614  1.77267964676468 -0.14019568166817
 7 -3.41059800280028 -3.15053410021002  0.57932640394039
 7 -0.84183558645865  2.83897431563156  0.00563553965397
 6  0.61947317971797 -2.53578901720172 -1.29565164826483
 6  0.86554548834883 -1.16670662176218 -0.96812936823682
 6 -0.77670199529953 -2.75371926132613 -1.28841904130413
 6 -1.36014812101210 -1.43736737863786 -0.88214968086809
 6  3.83019096039604  1.33135762106211 -0.33911012741274
 6  2.52485317831783  0.73986531833183 -0.46789834843484
 6  2.08024502880288 -0.52701884768477 -0.84537678267827
 6  3.56211004790479  2.78469647784778  0.04898412551255
 6  1.66369752225223 -3.47479274507451 -1.77669787078708
 6 -5.60640997619762 -2.69886179577958  1.27523746374637
 6 -3.71045310821082 -1.84354941694169 -0.00192640764076
 6  2.12785704590459  2.95484191239124  0.15576809980998
 6 -5.10527672397240 -1.58404390759076  0.26504514341434
 6  5.15853433153315  0.74116378637864 -0.44512756915692
 6 -2.72089305150515 -1.02223899549955 -0.54332474687469
 6 -1.57538547624762 -3.90464496679668 -1.93880712441244
 6 -4.49192665946595 -3.64314281998200  1.32327144174417
 6  2.07562803880388 -4.55895811551155 -0.87958081388139
 6  5.54172404870487 -0.04263032693269  0.78041614771477
 6  4.54920070627063  3.84376560786079  0.14082626642664
 6  1.35139638103810  4.08504291179118  0.36125624512451
 6 -7.12086321692169 -3.14261164096410  1.18272773887389
 6 -5.88252685518552 -0.62805753565357 -0.29590106450645
 6 -0.05629061806181  3.99054372597260  0.31368999459946
 6 -0.99584054575458  5.11617271027103  0.48157278587859
 6 -2.22818814501450  4.65561168396840  0.23519492239224
 6  3.03208604990499 -4.10435705480548  0.29491089008901
 6 -5.39162382318232  0.44281951055105 -1.25107617461746
 6  6.86782934913491 -0.64585286938694  0.70118324092409
 6 -3.46607236653665  5.46394269246925  0.40478129322932
 6 -2.10600403670367  3.21355354665467  0.02228315311531
 6 -0.54301843934393  6.58305217321732  0.82757784758476
 6 -4.03344188108811  5.93726213111311 -0.90935171087109
 1 -0.40983854875488  0.39690539613961 -0.59873042634263
 1  2.98098211281128 -1.23996599869987 -1.09541905050505
 1  2.34537578847885 -2.94894960186019 -2.09413184788479
 1  1.12780956025603 -4.00908282588259 -2.59624199069907
 1 -5.38343014921492 -2.28237662676268  2.26839900040004
 1  4.90243055325532  0.14946966346635 -1.29875302830283
 1  5.96314828042804  1.45126943624362 -0.81101240084008
 1 -2.92201029672967 -0.01134663846385 -1.08618152375238
 1  0.54093042474247  1.58703988698870 -0.02958243034304
 1 -1.35785137633763 -4.78623072727273 -1.30003080878088
 1 -2.57261089078908 -3.68064576657666 -2.20013933413341
 1 -1.28495844694469 -4.27372554695469 -3.00084368736874
 1 -2.29623338113811 -3.43510965936594  0.98010525752575
 1  1.18974478117812 -5.22636511901190 -0.45748946644664
 1  2.63056224202420 -5.29743245174517 -1.41377589148915
 1  4.82892731373137 -0.85163121422142  0.83974456065607
 1  5.52661686128613  0.74730916751675  1.64129860056006
 1  4.66357387768777  4.70218068546855 -0.54417440014001
 1  5.57912453525353  3.35330805000500  0.08474499769977
 1  4.36908632603260  4.44375988408841  1.09669097299730
 1  1.78643447544754  5.06854678427843  0.65907569446945
 1 -7.72959573117312 -2.12255825032503  1.25178987298730
 1 -7.17625326962696 -3.88371613751375  1.91579394729473
 1 -7.26352453645365 -3.49072683618362  0.32371396059606
 1 -6.77298464016402 -0.61147147844785  0.09933186108611
 1 -4.71394623642364  1.18291248814881 -0.72016586468647
 1 -6.23733556325632  0.89494712301230 -1.75406208470847
 1 -4.84773326882688 -0.05770892469247 -2.12404361706171
 1 -3.35322520182018  6.36819947574757  1.13086079007901
 1 -4.32257993549355  4.76970610281028  0.78697083488349
 1  0.18571313661366  6.63808576847685  1.71886461896190
 1 -1.32019340264026  7.06893358885889  0.98634789118912
 1  0.23186237383738  6.96990549104911  0.10220655485549
 1 -3.51391168696870  6.67932381548155 -1.38794661076108
 1 -5.17784960806081  6.13283602460246 -0.94254939663966
 1 -3.98660318141814  5.06157765006501 -1.61578131653165
 1  3.48162346884689 -4.52087631783178  1.98996763376338
 1  8.09057630233023 -1.71995264756476  1.51529169176918

