%nproc=4
%Mem=4GB
# td=(NStates=1) B3LYP/SVP 

TD

0 1
 8 -4.49892001280128 -4.67190727192719  2.09369473307331
 8  2.97191778987899 -4.82258680788079  1.25133306510651
 8  7.10849123052305 -1.42541008210821  1.92663288378838
 8  3.88165989878988 -3.23956308150815 -0.07992513411341
 8  7.59243799579958 -0.73801518081808 -0.12643221252125
 8 -2.99206953575358  2.43508090559056 -0.19846475107511
 7 -0.31145552725273 -0.58564791459146 -0.55562419861986
 7  1.48715639833983  1.83599597839784 -0.35354701680168
 7 -3.42653959695970 -3.11798084488449  0.64509298059806
 7 -0.82774417731773  2.94365478367837 -0.16213123702370
 6  0.68454968736874 -2.49368480678068 -1.39139122222222
 6  0.86984591839184 -1.12392234333433 -1.01038359365937
 6 -0.72499682478248 -2.65908979837984 -1.29319951935194
 6 -1.30836294249425 -1.53967760966097 -0.73510497639764
 6  3.76967490879088  1.43444793009301 -0.36083229962996
 6  2.45598629162916  0.84952628442844 -0.59935149374937
 6  2.21036804110411 -0.47905405120512 -0.89486173117312
 6  3.52956679357936  2.76727473567357  0.03772299939994
 6  1.60367151965196 -3.50119538533853 -1.89763996499650
 6 -5.59371870707071 -2.48200010961096  1.32355229522952
 6 -3.64234629752975 -1.85450051205121  0.14626841184118
 6  2.14727898809881  2.95443187138714 -0.05845332233223
 6 -5.10610680698070 -1.46812231543154  0.36681532043204
 6  5.08778725682568  0.60328999899990 -0.38711176757676
 6 -2.72573353555355 -1.17258403000300 -0.45969638403840
 6 -1.45444338203820 -3.93346784908491 -1.77120036373637
 6 -4.43523098989899 -3.60364887058706  1.49154826942694
 6  1.99874035003500 -4.54607682738274 -0.92614547034703
 6  5.46744662096210 -0.12484854875488  0.89864797089709
 6  4.54772055825583  3.84104533583358  0.31718390219022
 6  1.28770001140114  4.12838724622462  0.14649476897690
 6 -6.89980111071107 -3.22400978077808  0.96933639973997
 6 -5.81086968946895 -0.57370210011001 -0.32918439283928
 6 -0.08342333133313  4.01932660426043  0.26198482408241
 6 -1.00858181988199  5.14877597059706  0.55521014961496
 6 -2.20781610781078  4.80920704350435  0.41191259415942
 6  2.99609245054505 -4.08499511861186  0.13178457745775
 6 -5.44366902770277  0.34005923452345 -1.31398246524652
 6  6.83648621482148 -0.77084536863686  0.83623674627463
 6 -3.57962372167217  5.34659095729573  0.45147596269627
 6 -2.11630506680668  3.29838202950295 -0.06570564576458
 6 -0.52975711321132  6.53342721072107  0.96198128792879
 6 -4.07765630253025  5.91582998789879 -0.85922669836984
 1 -0.75185275017502  0.22843854945495 -0.23791434473447
 1  2.87945195979598 -1.17899990209021 -1.24581409000900
 1  2.39726097699770 -2.96487119401940 -2.45047748244825
 1  1.21934871417142 -4.04123604120412 -2.72405477197720
 1 -5.41223302950295 -1.97838622772277  2.40556271677168
 1  5.02533284348435 -0.15976125962596 -1.23017617061706
 1  5.87793975957596  1.41019532883288 -0.80430172977298
 1 -2.90333842954295 -0.20284578837884 -0.62314522012201
 1  0.40525685738574  1.75100628362836 -0.37192666476648
 1 -1.40394598579858 -4.58401050525053 -0.87258806450645
 1 -2.44753838353835 -3.61981968396840 -1.98144746494649
 1 -0.95705565666567 -4.21482965736574 -2.62501610461046
 1 -2.55791954975498 -3.60280642904290  0.47168441544154
 1  1.00714652135214 -5.04180666316632 -0.52792651015101
 1  2.43981316711671 -5.48417112561256 -1.26327084098410
 1  4.66939136013601 -0.84881093219322  1.22726331253125
 1  5.51305550515052  0.58693312991299  1.66407087778778
 1  4.60023754405440  4.60217068446845 -0.50427040974097
 1  5.64162078487849  3.59794251345135  0.33313983718372
 1  4.42138155555556  4.31814732283228  1.35963726762676
 1  1.81868770077008  4.84810474007401  0.61126091299130
 1 -7.78035080668067 -2.61743773827383  1.22521721572157
 1 -7.21578722302230 -3.98735650155015  1.71564393229323
 1 -7.13472165616562 -3.64021178467847  0.06382797199720
 1 -6.84853219491949 -0.46011634293429 -0.08255632773277
 1 -5.22876771857186  1.26038023492349 -0.87695154325433
 1 -6.22790462016202  0.62142977127713 -2.14330100860086
 1 -4.52795129062906 -0.25285843964396 -1.80116132883288
 1 -3.53693357265727  6.21238389418942  0.91630933493349
 1 -4.17285496299630  4.52771190339034  0.78438057585759
 1  0.37974253955396  6.55021698159816  1.79930266276628
 1 -1.42463384668467  7.27212390789079  1.35249450585059
 1 -0.18887970037004  7.14864336483648  0.04177051125112
 1 -3.44782507830783  6.88045392849285 -1.15906372247225
 1 -5.21152297539754  6.27157989898990 -0.64965010671067
 1 -3.93494801590159  5.16639813211321 -1.53596333473347
 1  3.67469277577758 -4.48845307550755  1.86169480648065
 1  7.93991123582358 -2.02587323962396  1.79540970357036

