%nproc=4
%Mem=4GB
# td=(NStates=1) B3LYP/SVP 

TD

0 1
 8 -4.54908502930293 -4.81106118731873  1.89477484108411
 8  2.78283888198820 -4.52923747294729  1.43553148494849
 8  7.05338571997200 -1.58932647374737  1.74480470097010
 8  3.80000173297330 -3.13843296849685 -0.01331847344734
 8  7.64461321332133 -0.54072545184518 -0.10544011331133
 8 -3.00749107790779  2.51940933843384 -0.21040594519452
 7 -0.30819520122012 -0.53317266706671 -0.75017365356536
 7  1.55397308000800  1.75342772157216 -0.39004066616662
 7 -3.50759770277028 -3.19230827762776  0.64070254155416
 7 -0.73485488838884  2.96703712191219 -0.21486651055105
 6  0.61758299069907 -2.58109354765477 -1.38349043214321
 6  0.92092102590259 -1.15597554865487 -1.05810836613661
 6 -0.77130145524552 -2.70471436083608 -1.18313851325133
 6 -1.33400550675068 -1.44289793169317 -0.78120958685869
 6  3.85714365566557  1.46692117741774 -0.41194741114111
 6  2.58072876587659  0.80045137693769 -0.58668022662266
 6  2.17315431973197 -0.52405855165517 -0.87315956095610
 6  3.57768160506051  2.74325233343334  0.02161138823882
 6  1.63302445494549 -3.49700496629663 -1.81795199619962
 6 -5.67891722692269 -2.65124703430343  1.27046698669867
 6 -3.70969303220322 -1.88902396439644  0.05571935693569
 6  2.14838909910991  2.92416884508451 -0.06837431443144
 6 -5.11828802510251 -1.54835033823382  0.33756239513951
 6  5.24925340344034  0.73772344234423 -0.41138419481948
 6 -2.68297926012601 -1.07994476607661 -0.40873128752875
 6 -1.57885582328233 -3.93012751505151 -1.68595183888389
 6 -4.55491295809581 -3.64516302200220  1.43369248384838
 6  2.06425690169017 -4.54878709840984 -0.82785564136414
 6  5.48586846314631 -0.08631469536954  0.87640574667467
 6  4.55818160436044  3.78346957825783  0.39378156195620
 6  1.37095833723372  4.11681608910891  0.21883200270027
 6 -7.01778290889089 -3.33638101790179  1.02491195729573
 6 -5.81956055855586 -0.52471720162016 -0.19460093449345
 6  0.03323833483348  4.09721439303930  0.14229285488549
 6 -0.96832779447945  5.15396648964896  0.40387501610161
 6 -2.16647197339734  4.65228135093509  0.36041744464446
 6  2.96216905820582 -4.00668728782878  0.22210360936094
 6 -5.41563622442244  0.34664989358936 -1.32562362936294
 6  6.81252381858186 -0.77087537163716  0.75465858845885
 6 -3.47229298859886  5.33587988618862  0.67394820992099
 6 -1.98566200250025  3.25311750305031 -0.03364243944394
 6 -0.49873401090109  6.58355222322232  0.79105419521952
 6 -4.21045958285829  5.84339274417442 -0.59265004070407
 1 -0.41697926282628  0.36122182778278 -0.41464201750175
 1  2.97591160576058 -1.23251525362536 -0.92072158075808
 1  2.51255250615061 -2.90333504040404 -1.98991142584258
 1  1.22269904920492 -3.96955887348735 -2.70311267776778
 1 -5.73055486168617 -2.01170956005601  2.35862802330233
 1  5.28211852205221 -0.07248253175318 -1.28814196719672
 1  6.03830579617962  1.56272058135814 -0.67993929352935
 1 -3.04098219391939 -0.03666917071707 -0.69633253885388
 1  0.49647597929793  1.69008019101910 -0.51215068716872
 1 -1.76275186638664 -4.59068117231723 -0.71564236993699
 1 -2.40075370507051 -3.54814251625163 -2.09380870107011
 1 -1.02915286638664 -4.39576775117512 -2.42484608760876
 1 -2.80744450225022 -3.67572372077208  0.60200744774477
 1  1.35730153685369 -5.21310379287929 -0.52512623012301
 1  2.75576476227623 -5.18461116961696 -1.27534204810481
 1  4.59492391339134 -0.81140719181918  0.84825541174117
 1  5.38216241584158  0.80617505410541  1.78883335403540
 1  4.44529204950495  4.78874934233423 -0.19638962166217
 1  5.62066868966897  3.37851057025703  0.40082660586059
 1  4.31215063246325  4.31097660576058  1.49172047594759
 1  1.97232306430643  5.10197012661266  0.31944173107311
 1 -7.72106487808781 -2.52488848334833  0.91611630563056
 1 -7.46173181748175 -4.06687445334533  1.69246161406141
 1 -6.94593277727773 -4.08997676117612  0.20961255045505
 1 -6.92756009770977 -0.59808013931393  0.12769469736974
 1 -4.69782462426243  1.10576477337734 -1.02296614471447
 1 -6.42766459615962  0.69051667996800 -1.75911258975898
 1 -4.84390288578858 -0.27995114891489 -2.00576178887889
 1 -3.11534141344134  6.00449310511051  1.19195689968997
 1 -4.02764044154415  4.50109924212421  1.20476261406141
 1  0.13189775507551  6.58370032993299  1.95315804830483
 1 -1.45105648894889  7.14250094559456  0.92771202760276
 1  0.17473666126613  6.93067156765677  0.10129646384638
 1 -3.57715801160116  6.61079696279628 -1.20884870097010
 1 -5.18375019811981  6.24478721972197 -0.37962310401040
 1 -4.13258777987799  5.09996148844885 -1.33011274967497
 1  3.42165747224723 -3.94208843904390  1.88735737273727
 1  8.09019626432643 -1.61602225452545  1.72124228682868

