%nproc=4
%Mem=4GB
# td=(NStates=1) B3LYP/SVP 

TD

0 1
 8 -4.43328344914492 -4.71620170137014  1.94452981658166
 8  2.81565216331633 -4.51331588078808  1.45878381018102
 8  6.85906628802880 -1.80357789888989  1.72810303080308
 8  3.87596932973297 -3.06166529172917  0.11006386478648
 8  7.59786853885389 -0.60184156345635 -0.08173774307431
 8 -3.08660898969897  2.56827422492249 -0.13119802440244
 7 -0.25259964166417 -0.58916826662666 -0.56479511571157
 7  1.49374705740574  1.73087546634663 -0.28499016111611
 7 -3.39896683968397 -3.12329137593759  0.52509098039804
 7 -0.74612601550155  2.95558597679768 -0.15609063296330
 6  0.72282351475147 -2.46653209150915 -1.46831891499150
 6  0.94242317611761 -1.17107705880588 -0.88898145344534
 6 -0.68078240334033 -2.66372026142614 -1.33282348174817
 6 -1.30660276647665 -1.52349599149915 -0.81552301820182
 6  3.80120806210621  1.42208669396940 -0.40300651705171
 6  2.45725641864186  0.78513984578458 -0.54595615421542
 6  2.15418242254225 -0.49173531933193 -0.89756200120012
 6  3.51797563446345  2.74458246644665 -0.05383615651565
 6  1.70462161466147 -3.51736700250025 -1.85620582158216
 6 -5.53085242044204 -2.71132304190419  1.21017095709571
 6 -3.66398846174617 -1.84128919091909  0.07344112911291
 6  2.12452671287129  2.94694112231223  0.01023354635464
 6 -5.13586978327833 -1.52193769696970  0.40431907080708
 6  5.15127360546055  0.71423109310931 -0.49055211161116
 6 -2.58074903710371 -1.07767453905391 -0.47277769216922
 6 -1.52635057275728 -3.89855435773577 -1.82806605030503
 6 -4.45813328012801 -3.73851235693569  1.30929004360436
 6  2.05484596059606 -4.58965118481848 -0.79298215401540
 6  5.36826670297030 -0.17393345724572  0.79544765086509
 6  4.56216200240024  3.76194742604260  0.31691387518752
 6  1.33132437383738  4.10406481398140  0.26841696119612
 6 -6.90842197279728 -3.33473085288529  1.05437490359036
 6 -5.73118172067207 -0.47201193109311 -0.07573904830483
 6 -0.14260924992499  4.01530620222022  0.21321994759476
 6 -0.99430039173917  5.28465955895590  0.49336396499650
 6 -2.18277360356036  4.79060518331833  0.35941734463446
 6  3.02086492779278 -3.89068568766877  0.26470786978698
 6 -5.31111577237724  0.61746697529753 -1.02527359435944
 6  6.67153972017202 -0.85211349544954  0.77452057465747
 6 -3.61422718201820  5.43521982018202  0.47382819791979
 6 -2.09259269556956  3.26468866016602 -0.16552562776278
 6 -0.42538667616762  6.61086495449545  0.83419850965096
 6 -4.25198373527353  5.64216262116212 -0.91604237993799
 1 -0.41966953185318  0.40501620722072 -0.28315886918692
 1  3.12815683028303 -1.04233623572357 -1.26507601620162
 1  2.60933218411841 -3.14818952585259 -2.21070350505051
 1  1.33857063636364 -4.15308722632263 -2.64814718121812
 1 -5.44809661586159 -2.50345873497350  2.38202036253625
 1  5.31400171037104  0.16087080358036 -1.40981413441344
 1  6.08331029662966  1.32326663596360 -0.49604090369037
 1 -2.77354545024502 -0.07030253405341 -0.71340424602460
 1  0.43717004870487  2.01214239723972 -0.54797426952695
 1 -1.54398999019902 -4.89244134833483 -1.19173997969797
 1 -2.55534916461646 -3.55883358535854 -1.90934025422542
 1 -1.16891684278428 -4.14423259765977 -2.87793139613961
 1 -2.58338209600960 -3.63477962636264  0.43254050105011
 1  1.20877668436844 -5.05735821832183 -0.28626234373437
 1  2.65855504130413 -5.31014372287229 -1.39327384128413
 1  4.72429685068507 -0.94934098519852  0.88503909010901
 1  5.54782898249825  0.54932936953695  1.71188565926593
 1  4.11913943424342  4.88137860526053  0.02245226252625
 1  5.59682630543054  3.39925264446445 -0.33316679347935
 1  4.77526694409441  3.77465297339734  1.55927723162316
 1  1.70071590359036  5.12062199179918  0.73962374927493
 1 -7.61999477107711 -2.71618761326133  1.38113280728073
 1 -7.19847549184918 -4.36118388428843  1.67408977687769
 1 -7.17477566156616 -3.74041180468047 -0.10996940774077
 1 -6.74048138983898 -0.59554988628863  0.34094602250225
 1 -4.65335017681768  1.23709790669067 -0.53877772587259
 1 -6.22155398509851  1.21941957025703 -1.41292797129713
 1 -4.72923141864186  0.21117796399640 -1.92909412211221
 1 -3.62910278957896  6.34154681048105  1.21218892289229
 1 -4.15768344584458  4.63939307150715  1.12543468126813
 1  0.28559312461246  6.61719367926793  1.56742947544754
 1 -1.11141252455246  7.37802449794980  1.02465172157216
 1  0.13281246884688  6.85266376687669 -0.17958162396240
 1 -3.58844914071407  6.17699358245825 -1.46491430753075
 1 -5.26107793089309  6.10271301230123 -0.81963710541054
 1 -4.33393791489149  4.68792028432843 -1.46279601800180
 1  3.44527983448345 -4.19741397159716  2.22351098809881
 1  7.64292153685369 -2.29221987428743  1.20796095869587

