%nproc=4
%Mem=4GB
# td=(NStates=1) B3LYP/SVP 

TD

0 1
 8 -4.49821994279428 -4.62537261846185  1.92585794939494
 8  2.77241783988399 -4.68550309950995  1.44542247404740
 8  7.16763714511451 -1.49304684578458  1.71918213871387
 8  3.82715444824482 -3.06928605380538  0.22444530293029
 8  7.55905465746575 -0.65279665896590 -0.31458102740274
 8 -3.02122245104510  2.40062746024602 -0.36161106570657
 7 -0.24052843454345 -0.54720407020702 -0.61889052525253
 7  1.67283496619662  1.82978535733573 -0.34285594769477
 7 -3.38601554455446 -2.99913896069607  0.75157362866287
 7 -0.75832723562356  2.80916133433343 -0.10726575047505
 6  0.63415464786479 -2.52072751105110 -1.37118920202020
 6  0.99086802060206 -1.09682963406341 -1.03402595789579
 6 -0.75728005310531 -2.69925381478148 -1.22063226262626
 6 -1.28501060726073 -1.36759040094009 -0.67020848674867
 6  3.82977091839184  1.45121960726073 -0.33752996939694
 6  2.59851054405441  0.82385371717172 -0.66649820842084
 6  2.25116212051205 -0.46856300210021 -0.96011825682568
 6  3.62120595749575  2.74649265746575  0.00110933803380
 6  1.59200035253525 -3.50856612241224 -1.91240144114411
 6 -5.60290962616262 -2.45562747234723  1.30454039403940
 6 -3.56672873577358 -1.78960402240224  0.14509829482948
 6  2.16775103530353  2.91100752895290  0.14265678867887
 6 -5.07733392969297 -1.38961446464646  0.36045468436844
 6  5.08201667976798  0.63966363636364 -0.50718377477748
 6 -2.64868583078308 -0.93632040364036 -0.51894230863086
 6 -1.51823976167617 -3.84068857115712 -1.63549679337934
 6 -4.50584805160516 -3.48364687038704  1.38198731333133
 6  2.13537401340134 -4.46309852955295 -0.78878173397340
 6  5.31795167146715 -0.35948201210121  0.64911301740174
 6  4.58764455065507  3.78268950025002  0.34596678047805
 6  1.36844808620862  4.13092750025003  0.46340646014601
 6 -6.95088621922192 -3.05573295309531  1.08797826392639
 6 -5.85263386588659 -0.65774050395040 -0.38503997839784
 6 -0.03305829482948  3.91427609920992  0.30807943354335
 6 -0.99197015871587  5.09664075707571  0.65450007860786
 6 -2.33398872507251  4.64110023282328  0.37410881378138
 6  2.95513835513551 -3.97083370247025  0.30408180718072
 6 -5.46192085288529  0.33325855445545 -1.50268133513351
 6  6.77865043124312 -0.88781706580658  0.61106422902290
 6 -3.69360511981198  5.17261355955596  0.43652446754675
 6 -2.06345978227823  3.07345953725373 -0.10766984218422
 6 -0.63899803730373  6.46080994899490  1.09336442624262
 6 -4.32744128102810  5.58939734463446 -0.92190296599660
 1 -0.49393695859586  0.38616432203220 -0.27231778507851
 1  3.25832984758476 -1.02189419151915 -1.04170367896790
 1  2.43866511741174 -2.94283899079908 -2.27738017271727
 1  1.17420419971997 -3.89826174377438 -2.79645201170117
 1 -5.53034484068407 -2.05883427252725  2.33059522002200
 1  4.97040735093509  0.25117983448345 -1.50686383938394
 1  6.10699266486649  1.28199250855085 -0.43051435103510
 1 -2.84785288098810  0.15564006020602 -0.64824773037304
 1  0.67805413711371  1.92184336733673 -0.74066353845385
 1 -1.78297388858886 -4.56338844304430 -1.03132393809381
 1 -2.37075070477048 -3.58510621262126 -2.04766408660866
 1 -0.90394034513451 -4.25264343874387 -2.66498010101010
 1 -2.65853961176118 -3.55729187758776  0.72543979097910
 1  1.30609641634163 -4.84874735723572 -0.14512823032303
 1  2.66426561236124 -5.11268397689769 -1.34539905380538
 1  4.71058547954796 -1.15275132623262  0.83355394159416
 1  5.23493769336934  0.23673811041104  1.66173064376438
 1  4.46743426372637  4.83758422582258 -0.21092107480748
 1  5.73072969576958  3.55706842604260  0.00306682988299
 1  4.58022744014401  4.15775128322832  1.36734803870387
 1  1.92005783778378  5.08786871647165  0.78403819071907
 1 -7.83152592419242 -2.35386138063806  1.22006670067007
 1 -7.29020466476648 -3.96999476537654  1.82205457335734
 1 -6.97927611161116 -3.48200596409641 -0.15581399219922
 1 -6.80849819151915 -0.53706403770377  0.00605253315332
 1 -4.95407024882488  1.23653785068507 -1.05639948804881
 1 -6.10574240394039  0.57615524382438 -2.18119479797980
 1 -4.58738723422342 -0.10891404520452 -2.07217843054305
 1 -3.67831771107111  6.15315797159716  1.16824452845285
 1 -4.46696437393739  4.45906503870387  0.88442057985799
 1 -0.46493192789279  6.39818177807781  2.37996072857286
 1 -1.50998238153815  6.98731542704270  1.15010426682668
 1  0.17173636123612  7.12238073857386  0.58113444764476
 1 -3.79901019681968  6.60280616371637 -1.23926174227423
 1 -5.25752757585759  6.09943268426843 -0.61180632233223
 1 -4.28559308040804  4.75965745804580 -1.63932367076708
 1  3.27911321782178 -4.20089431963196  2.06943558055806
 1  8.13711095579558 -1.98341899419942  1.51017117971797

