%nproc=4
%Mem=4GB
# td=(NStates=1) B3LYP/SVP 

TD

0 1
 8 -4.48791891269127 -4.93295337653765  1.72610797439744
 8  2.66994759285929 -4.73593814301430  1.37804573637364
 8  7.15314569596960 -1.59103664476448  1.79224944544454
 8  3.59172090489049 -3.14461358655866  0.10129298769877
 8  7.79663841584158 -0.34225560486049 -0.06351592089209
 8 -3.03106343514351  2.50487788528853 -0.17629253385339
 7 -0.32173655535554 -0.56737608740874 -0.55810444664466
 7  1.59202688538854  1.83609598839884 -0.35940760286029
 7 -3.35687263026303 -3.14675372217222  0.72260073137314
 7 -0.71232263516352  2.91919233743374 -0.20814583848385
 6  0.57895912831283 -2.39895533383338 -1.45079716281628
 6  0.94518345214521 -1.20776072717272 -0.83205576087609
 6 -0.76958128322832 -2.59392328172817 -1.34628482788279
 6 -1.30538264446445 -1.39105274717472 -0.76236770267027
 6  3.78322626392639  1.41931641694169 -0.29274549094909
 6  2.53589428242824  0.80754208600860 -0.52748430703070
 6  2.23348035233523 -0.51381752755276 -0.87861010601060
 6  3.64066790369037  2.69134714291429 -0.01036180908091
 6  1.58671982448245 -3.45458072387239 -1.93041324232423
 6 -5.58708804400440 -2.66673858345835  1.41869180918092
 6 -3.63861592449245 -1.87445250725072  0.20529431443144
 6  2.20033429362936  3.00511693989399 -0.06963444044404
 6 -5.10726692299230 -1.56601210441044  0.51939057795780
 6  5.10893937203720  0.75995566556656 -0.37276033243324
 6 -2.76119708190819 -1.12621939353935 -0.48341875627563
 6 -1.56170410811081 -3.76062056435644 -1.76372961666167
 6 -4.44240170697070 -3.74551305700570  1.28631774637464
 6  1.87761823782378 -4.65004722442244 -0.89222207800780
 6  5.53167304360436 -0.22177824172417  0.74867297339734
 6  4.72435822202220  3.75054628592859  0.37809999379938
 6  1.38115935733573  4.14133854135414  0.11825194469447
 6 -6.94468559915992 -3.27845522532253  1.13238270437044
 6 -5.83985258775878 -0.70971570147015 -0.26763823822382
 6 -0.05913090209021  4.07615228682868  0.15469409500950
 6 -0.98579954165417  5.20874196719672  0.46695132373237
 6 -2.17531285748575  4.77995411821182  0.38034943784378
 6  2.83637647894789 -4.07645426452645  0.19616101510151
 6 -5.40572523332333  0.35419064766477 -1.17777884488449
 6  6.91328389458946 -0.66183446754675  0.81777490009001
 6 -3.48555431473147  5.39096539473947  0.41468228332833
 6 -2.11065450175017  3.24980717201720 -0.06220529572957
 6 -0.53558769626963  6.57208107610761  0.75745083488349
 6 -4.16361489838984  5.82377078197820 -0.82533330903090
 1 -0.69557712261226  0.34768047364737 -0.13215376867687
 1  3.23583759835984 -1.18411041314131 -1.00999050765077
 1  2.59107035793579 -2.90044475137514 -2.18976141084108
 1  1.13700047934793 -3.88907082468247 -2.86983935043504
 1 -5.89959176537654 -2.08365675477548  2.39055121562156
 1  5.21660197039704  0.47589230573057 -1.44942809580958
 1  5.81772373797380  1.60116442574257 -0.24020532013201
 1 -3.11899999569957 -0.22449795359536 -0.63036594219422
 1  0.61841817351735  1.60545172817282 -0.50051952405240
 1 -1.87239283048305 -4.64488659285929 -1.04952575827583
 1 -2.47940156985699 -3.33477117911791 -2.33386270647065
 1 -0.91330128122812 -4.35441361576158 -2.56712031503150
 1 -2.49308306610661 -3.47963411181118  0.64833208020802
 1  0.87526333303330 -5.19133161566157 -0.40944466196620
 1  2.42717190299030 -5.50357306580658 -1.40256477037704
 1  4.78510293129313 -1.06633268436844  0.58593918011801
 1  5.13023722332233  0.20024446104610  1.70660513121312
 1  4.71841936223622  4.53295376277628 -0.32559254195420
 1  5.72108873167317  3.43517623682368  0.23243976717672
 1  4.54909432683268  4.22664817291729  1.32753405730573
 1  1.83082891489149  5.21825175477548  0.25602538943894
 1 -7.68634140574058 -2.78106410091009  1.11360605460546
 1 -7.45744138843884 -4.10580834673467  1.76001836973697
 1 -7.20543872787279 -3.56168393189319  0.07967955715572
 1 -6.87002434413441 -0.72357268856886  0.10893282118212
 1 -4.81008585038504  1.03141733863386 -0.70569441754175
 1 -6.33418524822482  1.09348697699770 -1.55726240474047
 1 -4.69238773427343  0.13911075727573 -1.88782999569957
 1 -3.35119499879988  6.32811546734673  0.87216492049205
 1 -4.00029770727073  4.64851398359836  0.99770190799080
 1 -0.23137857255726  6.62118407830783  1.90236296879688
 1 -1.38743012631263  7.28260495599560  0.62099135553555
 1  0.35803499109911  6.93661216171617  0.23100943514351
 1 -3.44668496429643  6.48341422452245 -1.35220303640364
 1 -5.15536735983598  6.42520526152615 -0.60193533523352
 1 -4.53826834793479  4.78937042934293 -1.30477021542154
 1  3.36792209870987 -4.47987221742174  2.13598223522352
 1  8.19502674737474 -1.80098075037504  1.85774593719372

