%nproc=4
%Mem=4GB
# td=(NStates=1) B3LYP/SVP 

TD

0 1
 8 -4.55796591739174 -4.71548162936294  1.77175253885389
 8  2.97843844194419 -4.94660921012101  1.18332626442644
 8  7.02201258265827 -1.44780232133213  1.89812003250325
 8  3.58384011681168 -3.09329845504550  0.16313917231723
 8  7.73057180918092 -0.38927030633063  0.04821525222522
 8 -3.03512384118412  2.44628202570257 -0.29425433003300
 7 -0.27497187888789 -0.67082643244324 -0.41610024622462
 7  1.51965964866487  1.82208458725873 -0.42456411851185
 7 -3.45680262326233 -3.16452549934993  0.63717218851885
 7 -0.67527893079308  2.92550296849685 -0.07525254915492
 6  0.66570780318032 -2.45305074337434 -1.37425950905091
 6  0.94501343514351 -1.21490144124412 -0.84257681298130
 6 -0.73730805590559 -2.69310319971997 -1.29335953535354
 6 -1.28590069626963 -1.59319296119612 -0.61669313521352
 6  3.73610155145515  1.41506599189919 -0.30261647804780
 6  2.37065775877588  0.80454178597860 -0.72380393899390
 6  2.20859786408641 -0.48610475627563 -0.97103934893489
 6  3.56110994789479  2.72348035623562 -0.13740451335133
 6  1.75078623112311 -3.43440870667067 -1.79538973997400
 6 -5.59187852305231 -2.47965987558756  1.47827776777678
 6 -3.71395345824582 -1.80002506450645  0.14776856185619
 6  2.08662292249225  3.00771719991999 -0.10140761776178
 6 -5.10191638793879 -1.50860636383638  0.32364100300030
 6  5.08665714381438  0.68554822482248 -0.42857591399140
 6 -2.62573353555356 -1.06527329892989 -0.37306772117212
 6 -1.53312124982498 -3.88416291859186 -1.75164840854085
 6 -4.46914438123812 -3.56523502920292  1.34079319391939
 6  2.10036051205121 -4.54270649034904 -0.90116297209721
 6  5.48590846714671 -0.13677974187419  0.76069417551755
 6  4.58640442664266  3.75015624692469  0.08272045584558
 6  1.36258750015001  4.14451885938594  0.08916903640364
 6 -6.96112724332433 -3.06440382018202  1.06647611371137
 6 -5.85785438793879 -0.59361409130913 -0.37507898229823
 6 -0.08492348134814  4.03887855945595  0.25725435103510
 6 -0.96967792949295  5.16805789878988  0.57258188678868
 6 -2.23147847404740  4.65988211101110  0.42417382028203
 6  2.92299514081408 -4.15050166926693  0.17971937093709
 6 -5.53723838463846  0.33458868746875 -1.36035710271027
 6  6.80454302050205 -0.72627091119112  0.76030915351535
 6 -3.51239699899990  5.21125742394239  0.57507832293229
 6 -2.11903533983398  3.25896808810881 -0.01886096129613
 6 -0.39846398389839  6.58656252425243  0.96779186898690
 6 -4.09804834173417  5.78385679057906 -0.74615539123912
 1 -0.37755532043204  0.24636034163416 -0.37799835313531
 1  3.15235925052505 -1.18517051915192 -1.07058656725673
 1  2.62805405630563 -2.93951865876588 -2.20860329502950
 1  1.38260503980398 -4.01594351195119 -2.68902126862686
 1 -5.71742354855486 -1.91290968006801  2.42616477697770
 1  4.97379768996900  0.09785450195020 -1.32466561956196
 1  5.83576554215422  1.44960927022702 -0.39772107170717
 1 -2.94017211291129  0.03270776697670 -0.58594149974997
 1  0.44602093379338  1.86978816181618 -0.77019649174918
 1 -1.68234382558256 -4.54774687888789 -0.92662346804681
 1 -2.50355398509851 -3.43081078307831 -1.94779409960996
 1 -1.02822277337734 -4.27535570997100 -2.59348295129513
 1 -2.59975373317332 -3.66513266166617  0.44288153515352
 1  1.31304711141114 -5.04369685218522 -0.51545526302630
 1  2.72947213301330 -5.27752046054605 -1.16667118101810
 1  4.87310173117312 -0.95970202130213  1.17282786898690
 1  5.25948014761476  0.25659009560956  1.75416988768877
 1  4.41014853515352  4.53485395279528 -0.72846282898290
 1  5.70890751355136  3.24178689788979 -0.05378885568557
 1  4.31239065646565  4.42021752985299  0.98127943184318
 1  1.87298313031303  5.13567349694970  0.20214000090009
 1 -7.78721149274928 -2.10320631513151  1.13458815281528
 1 -7.11570721502150 -3.83629139503950  1.92463483138314
 1 -6.96870505450545 -3.62892065556556 -0.07462587338734
 1 -6.85754309600960 -0.42609294059406  0.14180610851085
 1 -4.89199404120412  1.07575177207721 -1.00157400550055
 1 -6.46207803750375  0.67859548784878 -1.68953563206321
 1 -4.85798429392939 -0.27256040984098 -2.12558377107711
 1 -3.31617149644964  5.97190984678468  1.31043874787479
 1 -4.36304398189819  4.68983811601160  1.03212535033503
 1  0.13690825612561  6.54790675057506  1.96563929642964
 1 -1.33233461676168  7.19240593609361  1.35530478687869
 1  0.28396758435844  6.88800730123012  0.19988632283228
 1 -3.43691398719872  6.34657054015402 -1.32132994909491
 1 -5.03774559765977  6.27123986498650 -0.38201334303430
 1 -4.56495101620162  4.99868136043604 -1.45440517891789
 1  3.62805811231123 -4.69442367256726  1.76415505250525
 1  8.09157640234023 -1.67612826512651  1.75115527812781

