%nproc=4
%Mem=4GB
# td=(NStates=1) B3LYP/SVP 

TD

0 1
 8 -4.70950107090709 -4.65910599179918  1.88446380998100
 8  2.67248784688469 -4.84171872107211  1.38249618141814
 8  7.20664104550455 -1.33836137723772  1.74218443894389
 8  3.76635836863686 -3.17957708290829  0.03693655205521
 8  7.76467521952195 -0.37671905120512 -0.25089465876588
 8 -3.00481080988099  2.29787718521852 -0.20685559015902
 7 -0.21536591829183 -0.59140849064906 -0.47011564776478
 7  1.58437612031203  1.80056243504350 -0.32107376947695
 7 -3.53268021102110 -3.08044709150915  0.59404787608761
 7 -0.70950235313531  2.95886630483048 -0.18144316821682
 6  0.66270750315032 -2.56607204550455 -1.28035011811181
 6  0.97034596839684 -1.22801275237524 -0.85519807510751
 6 -0.70113443854385 -2.74019790919092 -1.16129632903290
 6 -1.23697580378038 -1.51109475137514 -0.73899536543654
 6  3.83132107340734  1.45633011831183 -0.35144136053605
 6  2.49933062606261  0.79844117591759 -0.58632019061906
 6  2.24087109140914 -0.51976812261226 -0.77552979797980
 6  3.64577841474147  2.79157716591659 -0.05329610251025
 6  1.56458761126113 -3.57046231203120 -1.84457465846585
 6 -5.62813214841484 -2.48853076267627  1.30927086708671
 6 -3.59196125902590 -1.81983704570457  0.13713749874987
 6  2.13349760996100  3.04164059225923  0.05714823782378
 6 -5.04171036733673 -1.50671617481748  0.29757839673967
 6  5.12635111321132  0.80562023202320 -0.53420647704770
 6 -2.57413837603760 -1.06454322592259 -0.46983739813981
 6 -1.63018095579558 -3.81524602690269 -1.61899514321432
 6 -4.59008647544754 -3.60825933163316  1.28401751635164
 6  2.00544102010201 -4.62455467516752 -0.77290014581458
 6  5.49357923422342 -0.18336440034003  0.58828693479348
 6  4.59731551775177  3.81415264656466  0.37143932773277
 6  1.33942518391839  4.06710111761176  0.34051417091709
 6 -7.11490262086209 -3.00795817561756  1.01983144924492
 6 -5.79447805030503 -0.62593732363236 -0.36872834723472
 6 -0.04398938793879  4.03550822242224  0.28772739833983
 6 -1.04189515121512  5.08683977697770  0.51558618721872
 6 -2.29601492769277  4.64066018881888  0.33375477837784
 6  2.99751259255926 -4.09610622972297  0.16365776477648
 6 -5.40229489028903  0.37152238083808 -1.43541460846085
 6  6.94763732993299 -0.62352063616362  0.59579270187019
 6 -3.55598135743574  5.20744704290429  0.57243805890589
 6 -2.04422785908591  3.13645583688369 -0.08547762296230
 6 -0.61863600110011  6.53450731873187  0.97782287208721
 6 -4.11146968386839  5.74379278417842 -0.78990976667667
 1 -0.42235980088009  0.30543624922492 -0.16702725602560
 1  3.04503851845185 -1.18038004010401 -1.06355586418642
 1  2.35954720562056 -3.13621832873287 -2.07782021672167
 1  1.17016379567957 -4.08937085468547 -2.56710907740774
 1 -5.72135394159416 -2.22193058215822  2.36923908440844
 1  5.14486479667967  0.20317503400340 -1.56141929492949
 1  5.78454041964196  1.63208751805181 -0.57838913851385
 1 -2.79335743144314 -0.01293679747975 -0.76437934353435
 1  0.58787511921192  1.81185236823682 -0.55156462856286
 1 -1.92330792199220 -4.67818992319232 -0.71789259495950
 1 -2.65045867556756 -3.47258496049605 -1.93458277847785
 1 -1.13499345044504 -4.41415959035904 -2.47972157515752
 1 -2.65101885968597 -3.48869501790179  0.62562980998100
 1  1.07886369306931 -5.17555003750375 -0.33056677417742
 1  2.67068625442544 -5.54572728122812 -1.15052956685669
 1  4.94488890989099 -0.98331438253825  0.57149773597360
 1  5.35858005760576  0.35811024762476  1.43035750645065
 1  4.59042656295630  4.81790225762576 -0.27094707740774
 1  5.61985860866087  3.43892661186119  0.52646917011701
 1  4.41882129952995  4.14331984008401  1.39812111601160
 1  1.92841867386739  4.98931886148615  0.94514430133013
 1 -7.85022779437944 -2.10886688118812  1.16461115511551
 1 -7.52198784308431 -3.79341710761076  1.63138550645065
 1 -7.24911309530953 -3.44878264176418  0.08906049524953
 1 -6.84397173887389 -0.54137446874687  0.08104003190319
 1 -5.00322516431643  1.31929612651265 -0.78564241234123
 1 -6.28023985368537  0.67441506980698 -1.87320399889989
 1 -4.68202669816982 -0.06343949774978 -2.34967618031803
 1 -3.59464934423442  6.05927858365837  1.31328903290329
 1 -4.14967264476448  4.48054718691869  0.88803094089409
 1  0.10503506880688  6.35847780768077  1.92474520702070
 1 -1.54028541184118  7.09269596509651  1.20558981538154
 1 -0.02107291969197  7.02807130763076  0.39128546274627
 1 -3.41993228902890  6.36044192729273 -1.31196901300130
 1 -5.11602342544254  6.29485222622262 -0.67261240294029
 1 -4.50578509960996  4.83636512881288 -1.53436317471747
 1  3.19673497999800 -4.58465269546955  2.03911254825483
 1  8.17585483018302 -1.67574822712271  1.66294645724572

