%nproc=4
%Mem=4GB
# td=(NStates=1) B3LYP/SVP 

TD

0 1
 8 -4.35178529932993 -4.72334241544154  1.91939730333033
 8  2.93906450455046 -4.68442299149915  1.40240817261726
 8  7.03218359975998 -1.56946448754875  1.86582680318032
 8  3.72023375617562 -3.06069519471947  0.02549540794079
 8  7.61727047904790 -0.58027940724072 -0.09873944324432
 8 -3.09603993279328  2.48145554305431 -0.42959786438644
 7 -0.26951133283328 -0.52752210201020 -0.79778841504150
 7  1.57790547324732  1.78475085388539 -0.42886454855486
 7 -3.37977492049205 -3.06410545734574  0.57502597389739
 7 -0.74744614751475  2.79169958815882 -0.24898992289229
 6  0.62264349674967 -2.45427086538654 -1.38378046114611
 6  0.99072800660066 -1.12733268436844 -0.90616317161716
 6 -0.67959228432843 -2.51442533193319 -1.31289148854885
 6 -1.31473357955796 -1.33793743564356 -0.82540400630063
 6  3.81649959125913  1.40321480678068 -0.39817603400340
 6  2.61576226922692  0.81467279907991 -0.67561912051205
 6  2.18316532083208 -0.46332247804780 -0.94589683468347
 6  3.55585942284228  2.72550055825583  0.15238446554655
 6  1.48388954145415 -3.51614688048805 -1.86258645964596
 6 -5.52965230043004 -2.61268317791779  1.38373831383138
 6 -3.60377244014401 -1.73338840084008  0.16098988398840
 6  2.12101636183618  2.88824525272527 -0.07039451645165
 6 -5.03773997029703 -1.52306780998100  0.40840947984798
 6  5.10678915701570  0.72670234023402 -0.43326638303830
 6 -2.62343330553055 -0.88026479807981 -0.52357277167717
 6 -1.53426136383638 -3.75049955225523 -1.69311255495550
 6 -4.33365083188319 -3.57439594529453  1.38687780238024
 6  1.87619809580958 -4.59922214191419 -0.78952180798080
 6  5.34922479877988 -0.19489555345535  0.73382148824882
 6  4.59917570377038  3.73100433173317  0.43159534333433
 6  1.30741198259826  4.01367577507751  0.32422254175418
 6 -6.91307243784378 -3.19513689348935  1.27554702080208
 6 -5.89138774127413 -0.63739846974697 -0.21531300570057
 6 -0.07563255225523  3.91576624822482  0.14183280888089
 6 -0.95731669336934  5.08063915691569  0.60376500510051
 6 -2.26831215741574  4.61989811261126  0.36612801570157
 6  2.98214105540554 -3.98897551665166  0.17328872787279
 6 -5.56391105190519  0.38015324392439 -1.25475654265427
 6  6.85335790199020 -0.77530581468147  0.84418754135414
 6 -3.66047180648065  5.18686498469847  0.44898571367137
 6 -2.07610104640464  3.15434762606261 -0.12001107630763
 6 -0.55173931143114  6.39012288028803  1.14621971177118
 6 -4.01367990489049  5.89280768566857 -0.97846862256226
 1 -0.34700226512651  0.42928863446345 -0.34385493879388
 1  2.99524353895390 -1.25796779887989 -1.38443795239524
 1  2.21845309620962 -2.99320402730273 -2.35244767946795
 1  1.02131891119112 -4.06598851645164 -2.71221358785879
 1 -5.51031283748375 -2.19412780188019  2.47670983148315
 1  5.03012332253225  0.14486920342034 -1.28543169616962
 1  6.02623458905891  1.53346765606561 -0.46398769836984
 1 -2.87876597229723  0.21518601480148 -0.61240414601460
 1  0.40230656235624  1.63809499249925 -0.64917438953895
 1 -1.41966755795580 -4.64210631483148 -1.12738354405441
 1 -2.38005163486349 -3.39570727272727 -1.94660398059806
 1 -1.26613656475648 -4.14866304070407 -2.58258186118612
 1 -2.52433619141914 -3.53944009240924  0.56891413841384
 1  1.08986479317932 -4.93882636513651 -0.20124384188419
 1  2.36546573237324 -5.49384209270927 -1.25774028792879
 1  4.72068648964897 -1.13540959205921  0.80500108630863
 1  4.91606580618062  0.41912634923492  1.71906637733773
 1  4.52651017131713  4.51310177757776 -0.44954493719372
 1  5.51344796759676  3.09985270447045  0.39391591479148
 1  4.50750016741674  4.16756226432643  1.48975027892789
 1  1.71618745074507  4.89741967156716  0.71568135503550
 1 -7.72496526812681 -2.65766176067607  1.66930162416242
 1 -7.08830447474747 -4.15412317821782  1.82053442134213
 1 -7.02609079307931 -3.47285504900490  0.19877146634663
 1 -7.06399374107411 -0.59545987728773  0.10549247714771
 1 -4.83427826962696  1.09985418231823 -1.03868771687169
 1 -6.67388921862186  0.89383701200120 -1.41335801430143
 1 -5.09652814831483 -0.10066322012201 -2.13122433513351
 1 -3.62312219151915  6.15828848464847  1.12749045304530
 1 -4.26123380088009  4.35526465866587  0.68432056985699
 1  0.22223678897890  6.12327428732873  2.13285601810181
 1 -1.32987437073707  7.21880857635764  1.53933318971897
 1  0.07332652025203  6.96181468196820  0.42208854305431
 1 -3.23120341614161  6.48785466856686 -1.50212802890289
 1 -5.12018384148415  6.28951169216922 -1.21238638033803
 1 -4.09269379047905  4.91629312161216 -1.60203994239424
 1  3.64781008750875 -4.31602583278328  1.98884752175218
 1  7.94256150085008 -1.66638729102910  2.09728989158916

