%nproc=4
%Mem=4GB
# td=(NStates=1) B3LYP/SVP 

TD

0 1
 8 -4.64737485828583 -4.74518459965997  1.80166553015302
 8  3.01865246334633 -4.96227077627763  1.22198012981298
 8  7.12605298669867 -1.32272981408141  1.92296251675168
 8  3.78619035183518 -3.14041316651665  0.04348720712071
 8  7.65352410441044 -0.71673305260526 -0.18391796109611
 8 -3.05572590139014  2.54980237773777 -0.13321822642264
 7 -0.34073845554555 -0.57407675747575 -0.64998363456346
 7  1.59608729142914  1.77249962876288 -0.30978264036404
 7 -3.43275021802180 -3.14631367816782  0.72654112541254
 7 -0.75800720362036  2.91006142434243 -0.01583660756076
 6  0.64242547494749 -2.36343178147815 -1.31266334943494
 6  0.91763069686969 -1.13477342844284 -0.86983953925393
 6 -0.79242356745675 -2.70349423882388 -1.17959815921592
 6 -1.32310441664166 -1.54895853775378 -0.65777724362436
 6  3.88791673297330  1.42266675197520 -0.43729994639464
 6  2.51832252525252  0.78654998679868 -0.56100765936594
 6  2.22879988428843 -0.51992813861386 -0.78372061706171
 6  3.61879571647165  2.73016102430243 -0.15711648454845
 6  1.63916506900690 -3.51165643144314 -1.88623882488249
 6 -5.63359269446945 -2.69980188978898  1.27496743674367
 6 -3.65982804570457 -1.89778484048405  0.05416920192019
 6  2.19506376657666  3.01298772697270 -0.00612808980898
 6 -5.18491468776878 -1.56755225842584  0.31596023492349
 6  5.13616209430943  0.67742741274127 -0.39187224362436
 6 -2.72038300050005 -1.09923669526953 -0.46634704910491
 6 -1.56881481918192 -3.85690019231923 -1.77142038573857
 6 -4.57352481928193 -3.61345985168517  1.36901601620162
 6  2.06174665066507 -4.52728494819482 -0.86337919371937
 6  5.46808668496850 -0.13610967486749  0.80636874297430
 6  4.50181596779678  3.97208844014401  0.28195037883788
 6  1.40783202460246  4.12689709720972  0.11266138563856
 6 -7.02030316091609 -3.25217259705971  1.02001146724672
 6 -5.80890949344935 -0.49117384728473 -0.19120059445945
 6 -0.03737872687269  4.08516318791879  0.26106473207321
 6 -0.99412037373737  5.23902499549955  0.57297192579258
 6 -2.23449877607761  4.69560568336834  0.44357576047605
 6  3.02819566086609 -4.08578519761976  0.21029242824282
 6 -5.42798745954595  0.49904513311331 -1.24457552455246
 6  6.81875444164416 -0.73762204630463  0.76976009860986
 6 -3.55318107740774  5.36448274647465  0.50798161326133
 6 -2.06488992529253  3.24239643094309  0.06856778157816
 6 -0.44360849834984  6.55444931293129  0.78722381218122
 6 -4.14242277917792  5.68643704860486 -0.96623739943994
 1 -0.41376894179418  0.35640134573457 -0.33556410971097
 1  3.11827584218422 -1.17475947804781 -0.94123363196320
 1  2.63278452935294 -2.88888359525953 -2.07787022172217
 1  1.08904568386839 -3.93773569116912 -2.68860122662266
 1 -5.60869267546755 -2.03848223732373  2.21196335683568
 1  5.22916322652265  0.18395311181118 -1.32054520752075
 1  5.77487945354535  1.55107941724172 -0.70578187778778
 1 -3.08080617631763 -0.06740224402440 -0.81598450405041
 1  0.65238156985699  1.87079826282628 -0.30851032313231
 1 -1.74075966716672 -4.74679678387839 -1.11392219791979
 1 -2.41368499819982 -3.46241394339434 -2.28068738893889
 1 -1.18484843594359 -4.26910508490849 -2.59440304330433
 1 -2.60779453725373 -3.81122727112711  0.85878312531253
 1  1.18769457615762 -4.91399388188819 -0.23963768126813
 1  2.53081226702670 -5.43490619911991 -1.49694420832083
 1  4.58184260526053 -0.89828587968797  1.07477806400640
 1  5.23548774837484  0.31762619921992  1.85166963766377
 1  4.40362788308831  4.74326479387939 -0.62977295999600
 1  5.62116873967397  3.64652737193719  0.32121864506451
 1  4.22081149854985  4.40103561166117  1.11407271117112
 1  1.91368720072007  5.11877180678068  0.11568135503550
 1 -7.95982875447545 -2.40844683918392  1.06714140814081
 1 -7.14783042734273 -4.14324209010901  1.73842621052105
 1 -7.08296648064807 -3.82895065856586  0.16441803100310
 1 -6.79782712441244 -0.28249858115812  0.28229015691569
 1 -4.82665750755075  1.36564076097610 -0.90844469256926
 1 -6.45443727342734  0.78082571087109 -1.46750342884288
 1 -4.89472796829683  0.07300414661466 -2.04930614331433
 1 -3.49915979527953  6.30122277807781  1.04475217921792
 1 -4.35867354485448  4.44687381958196  0.59074121192119
 1  0.20106467176718  6.78344030393039  1.81317404990499
 1 -1.27915929922992  7.19787648314831  0.84390364676468
 1  0.37153634123412  6.88408690919092 -0.03053671947195
 1 -3.58318861466147  6.41532741584158 -1.46439425552555
 1 -5.35728755185519  5.74950769176918 -0.83561870357036
 1 -4.17704222532253  4.58941043334333 -1.29818955735574
 1  3.60943625012501 -4.56990122032203  2.03486212321232
 1  8.04631187588759 -1.59956060836084  1.77880804340434

