%nproc=4
%Mem=4GB
# td=(NStates=1) B3LYP/SVP 

TD

0 1
 8 -4.60989110991099 -4.85993607480748  1.78796416001600
 8  2.93864446254625 -4.89985453465346  1.28200613241324
 8  7.21969235063506 -1.47476501760176  1.68679890039004
 8  3.58507023982398 -3.07107623282328  0.19814267266727
 8  7.67985673767377 -0.42627400670067 -0.24199376867687
 8 -2.98443877267727  2.45704310181018 -0.29243414801480
 7 -0.33194757645765 -0.58771812161216 -0.61476011221122
 7  1.51359904260426  1.84305668446845 -0.25426708880888
 7 -3.51243818681868 -3.24623367016702  0.55266373767377
 7 -0.65038644154415  2.98199861806181 -0.11083610751075
 6  0.62043327572757 -2.49750518881888 -1.31700378347835
 6  0.87327626142614 -1.20444039513951 -0.95149770507051
 6 -0.71854617971797 -2.70980486988699 -1.33665386478648
 6 -1.32303440964096 -1.51237487938794 -0.75604707060706
 6  3.72358029932993  1.33043752905291 -0.23368958535854
 6  2.46364705770577  0.81739307110711 -0.46175773437344
 6  2.21430843514351 -0.48123426922692 -0.83313555855586
 6  3.56434027092709  2.64559256745675  0.14484371147115
 6  1.68542969546955 -3.43738900470047 -1.88101830283028
 6 -5.56096543174317 -2.58952086168617  1.45199513951395
 6 -3.64460652355236 -1.88824388638864  0.09704348934893
 6  2.15687994819482  2.97365379357936  0.13419594259426
 6 -5.09810600690069 -1.54851035423542  0.42332097099710
 6  5.08909738783878  0.59959962996300 -0.50659371577158
 6 -2.61688265046505 -1.14211098269827 -0.44051446584658
 6 -1.33841177887789 -3.96314081638164 -1.93789703340334
 6 -4.54833230003000 -3.71048955465547  1.30905001960196
 6  2.03273374937494 -4.61270349004900 -0.88629148494849
 6  5.48411828812881 -0.15357142104210  0.77136524262426
 6  4.51576736293629  3.76370760206021  0.52999518331833
 6  1.35692693409341  4.17983239073907  0.27053717321732
 6 -7.08241937253725 -3.06384376417642  1.28968843494349
 6 -5.88157676017602 -0.50653538343834 -0.09108058245825
 6 -0.05403039203920  4.16328099969997  0.24219284488449
 6 -0.95418638033803  5.20255134813481  0.51654628322832
 6 -2.24723004920492  4.74718084088409  0.32246364926493
 6  2.91816465776578 -4.06950356945695  0.23215461446145
 6 -5.40385504630463  0.46722195079508 -1.19254032103210
 6  6.87191975817582 -0.71063934803480  0.61178430103010
 6 -3.52053781308131  5.54262056025603  0.27694850995100
 6 -2.05937937423742  3.25026721802180 -0.10616969216922
 6 -0.51083522102210  6.67106097409741  0.88041313111311
 6 -4.13344188108811  5.60938934383438 -1.08361913761376
 1 -0.44761232613261  0.27693339893989 -0.14808536183618
 1  3.12096611121112 -1.08269027112711 -0.85076458505851
 1  2.63652490339034 -2.79672437933793 -2.15978841354135
 1  1.35624240354035 -3.80694261186119 -2.81212357885789
 1 -5.42597440364036 -2.37208559765977  2.45076723722372
 1  5.09441975217522  0.08777349384938 -1.47841099409941
 1  5.75955792139214  1.42110641994199 -0.46500780038004
 1 -2.96479457515752 -0.13133863766377 -0.37824072967297
 1  0.52353868556856  1.89418060106011 -0.25526499859986
 1 -1.45061065226523 -4.80760286448645 -1.26366717241724
 1 -2.47250087978798 -3.68922662466247 -2.08907822802280
 1 -0.86085603670367 -4.35307348174817 -2.85734933793379
 1 -2.73011676947695 -3.78026417481748  0.57196444344434
 1  1.02107791449145 -5.06257874037404 -0.33663738123812
 1  2.56470565636564 -5.36360906940694 -1.25752026592659
 1  4.82064648564856 -0.98272432353235  0.97678826502650
 1  5.34562876247625  0.39988442504250  1.81482595329533
 1  4.36446396669667  4.86991745914592  0.05001501880188
 1  5.62970959375938  3.39895261446145  0.15183170637064
 1  4.55929534693469  3.99326483458346  1.62127343124312
 1  1.61103693569357  5.39773970357036  0.48393818071807
 1 -7.84444721632163 -2.30205620012001  1.65217991199120
 1 -6.95655129942994 -4.03391115701570  1.93050541844184
 1 -7.33063124712471 -3.42012977647765  0.30962255145515
 1 -6.79763710541054 -0.42813314461446  0.25765769366937
 1 -4.97675251705170  1.36858105500550 -0.81153500160016
 1 -6.27695952565256  0.86896452475247 -1.61327800630063
 1 -4.60244874037404  0.03757060326033 -1.92758397109711
 1 -3.53491337063706  6.58145080088009  0.92657036103610
 1 -4.29009668716872  4.87743687588759  1.00554269206921
 1  0.09067363266327  6.64874683458346  1.82784551705170
 1 -1.19132051535154  7.30869756525653  1.07854711111111
 1 -0.03007381978198  7.14924342484248  0.16396273047305
 1 -3.56266656245625  6.11873775687569 -1.85977379347935
 1 -4.99648147124713  6.41155389638964 -1.04970011171117
 1 -4.43556807790779  4.56939843214321 -1.63823356175618
 1  3.39777508400840 -4.39412364256426  1.92644128112811
 1  8.11685893059306 -1.92223287558756  1.40384054665467

