%nproc=4
%Mem=4GB
# td=(NStates=1) B3LYP/SVP 

TD

0 1
 8 -4.45210533133313 -4.78627870907091  1.68219358295830
 8  2.74254485258526 -4.81605615481548  1.30028796059606
 8  7.17342772417242 -1.38322586368637  1.92325254575458
 8  3.66726845964596 -3.16258538373837  0.09279213761376
 8  7.60850960296030 -0.69638101740174 -0.17941751105110
 8 -3.05061539033903  2.61356875437544 -0.37495239983998
 7 -0.28696307800780 -0.63744309410941 -0.63234187038704
 7  1.56287397009701  1.80699307810781 -0.31859352145215
 7 -3.32493943694369 -3.15537458425843  0.53207167846785
 7 -0.77056845974597  2.90533095129513 -0.14745976987699
 6  0.65391662406241 -2.46724216251625 -1.44390647374737
 6  0.94797373117312 -1.22362231333133 -0.99306186148615
 6 -0.78902322742274 -2.67718160756076 -1.28954915431543
 6 -1.36404851105110 -1.50674431633163 -0.76501796769677
 6  3.69866780808081  1.39437392269227 -0.31100731713171
 6  2.44030472347235  0.84292562436244 -0.60761231983198
 6  2.13786079037904 -0.45029117491749 -0.88205045004500
 6  3.52757659455946  2.70656866506651  0.18165739283928
 6  1.63765491799180 -3.48284355015502 -1.91830203120312
 6 -5.49173850905091 -2.69612152175218  1.39217915791579
 6 -3.64536659955996 -1.84393945594559  0.14025781078108
 6  2.15319958015802  2.90552698089809  0.13766628962896
 6 -5.01861805810581 -1.51353685688569  0.49736837573757
 6  5.06892537063706  0.75353502350235 -0.34249730613061
 6 -2.67454841704170 -1.02325909750975 -0.45599601400140
 6 -1.48762670037004 -3.87321182348235 -1.71363460716072
 6 -4.40063753055306 -3.67190569626963  1.30945005960596
 6  1.97463793979398 -4.56523874357436 -0.96261911771177
 6  5.42610248654865 -0.20062612651265  0.82327043314331
 6  4.64197998419842  3.72498372967297  0.44161634543454
 6  1.32833407480748  4.18143255075508  0.31181130063006
 6 -6.92669379998000 -3.33614099389939  1.21910137623762
 6 -5.75614421692169 -0.43668839873987  0.00808933453345
 6  0.01763677467747  4.11118579017902  0.26932555815582
 6 -0.90802176387639  5.28662975597560  0.49143377197720
 6 -2.17644297049705  4.80383650645064  0.21185258815882
 6  2.91089393069307 -4.09374599369937  0.21510290929093
 6 -5.43822848364836  0.52092732133213 -0.95504657165717
 6  6.77585015121512 -0.78116640074007  0.66627975057506
 6 -3.59518527782778  5.40150644884488  0.30161097619762
 6 -2.06383982028203  3.36797898919892 -0.16190526572657
 6 -0.51720585808581  6.60594446244624  0.90756584638464
 6 -4.23511204810481  5.47207561246125 -1.08639941564156
 1 -0.47175474037404  0.21700740634063 -0.00805135843584
 1  3.13101711631163 -1.08041004310431 -0.98435794439444
 1  2.66941819271927 -2.97397210411041 -2.23204563926393
 1  1.12864964426443 -3.92894481208121 -2.82422478897890
 1 -5.46012781898190 -2.33283167226723  2.34680684118412
 1  5.23468377857786 -0.05562084558456 -1.14895804880488
 1  5.84462642824282  1.53346765606561 -0.78030933053305
 1 -2.88364646034603  0.13017751395140 -0.48499140474047
 1  0.59696602830283  1.88658984198420 -0.31296076817682
 1 -1.34698028922892 -4.65862796699670 -1.02944375007501
 1 -2.60712434213421 -3.84875257725773 -2.08293761396140
 1 -0.81697164826483 -4.29951812621262 -2.60756435943594
 1 -2.35604936273627 -3.60792694109411  0.53246049304931
 1  0.93651945864586 -4.77163964646465 -0.48187190469047
 1  2.27811699749975 -5.41322403090309 -1.61380589448945
 1  4.67654207520752 -0.86471252235223  1.02980356655666
 1  5.28279247884788  0.34283872047205  1.65778024872487
 1  4.78086560686069  4.71213168056806 -0.32672265496550
 1  5.65247186998700  3.15336805600560  0.30182670587059
 1  4.54346376377638  4.17573308140814  1.40775207910791
 1  1.88964479647965  5.14189411901190  0.53802358925893
 1 -7.67308007960796 -2.33554954945495  1.31091578557856
 1 -7.02018766306631 -4.12181994789479  1.99754212211221
 1 -6.92313049704970 -3.78273603710371  0.26894848404840
 1 -6.83436077777778 -0.21947227852785  0.48289021692169
 1 -4.85706054785479  1.46896109300930 -0.50631447954795
 1 -6.28755058475848  0.86754438273827 -1.58173485198520
 1 -4.71466996249625  0.18438528472847 -1.71034224692469
 1 -3.64403428272827  6.32235489128913  0.99519722372237
 1 -4.12478015551555  4.76881601380138  0.96387852565256
 1  0.06390095539554  6.66453841374137  1.87973070557056
 1 -1.42071345464546  7.34109080458046  0.88590784718472
 1 -0.11362217461746  7.29985848634863  0.12469880408041
 1 -3.69129942574257  6.13834971807181 -1.61807962406241
 1 -5.18442026512651  5.88450119111911 -0.78761390309031
 1 -4.14595911701170  4.54226571887189 -1.44312405080508
 1  3.12082738923892 -4.51057528772877  2.09436807380738
 1  7.93133037773777 -1.78623927622762  1.58100826342634

