%nproc=4
%Mem=4GB
# td=(NStates=1) B3LYP/SVP 

TD

0 1
 8 -4.63761388218822 -4.88107818901890  1.78582394599460
 8  3.12404300240024 -4.79487403660366  1.17076500830083
 8  7.05205558695870 -1.66218375947595  1.73900412091209
 8  3.84502623542354 -3.05005413061306 -0.02509965156516
 8  7.58156690869087 -0.46542792209221 -0.02689225852585
 8 -3.08908923772377  2.53472086958696 -0.33507841244124
 7 -0.29671405310531 -0.57104645444544 -0.57952658885889
 7  1.51023870657066  1.72026440524052 -0.27638930103010
 7 -3.43207015001500 -3.27677672447245  0.62376084738474
 7 -0.85453685658566  2.75432585078508  0.03266824292429
 6  0.59389062146215 -2.45072051035104 -1.50149223232323
 6  0.92264119791979 -1.19126907800780 -0.96143869916992
 6 -0.69939426452645 -2.63148703810381 -1.32910310971097
 6 -1.29433153935394 -1.48772241414141 -0.74885635153515
 6  3.73451139243924  1.33095758105811 -0.30989720612061
 6  2.53119381238124  0.72053338513851 -0.48068962756276
 6  2.23221022532253 -0.52762890869087 -0.78527077207721
 6  3.50597443434343  2.74411241944194 -0.04236500940094
 6  1.64228538103810 -3.47266253205321 -1.90379058005801
 6 -5.53482281748175 -2.66245815541554  1.41026096609661
 6 -3.63090515341534 -1.89683474547455  0.28793257825783
 6  2.09657391759176  2.83690011821182  0.05863838683868
 6 -5.03280947724772 -1.47593309650965  0.57932657155716
 6  5.08675715381538  0.74667433743374 -0.36701975837584
 6 -2.66316727892789 -1.13143991559156 -0.39676009040904
 6 -1.53756169386939 -3.78298280058006 -1.94122736643664
 6 -4.52956042284228 -3.73119162486249  1.29211832643264
 6  2.13941441744174 -4.45674789448945 -0.86118897469747
 6  5.40826070237024 -0.23634969886989  0.94743284938494
 6  4.54725051125113  3.81800303160316  0.38909109290929
 6  1.33989523092309  4.03930833833383  0.32795291479148
 6 -7.00716184678468 -3.09317669746975  1.12828229432943
 6 -5.76843544604460 -0.43932866276628  0.10800932653265
 6 -0.11535652465247  3.92682735433543  0.35332395799580
 6 -0.92077303900390  5.15562665566557  0.45491011961196
 6 -2.27680300650065  4.76311243404340  0.14058546144614
 6  3.09360220152015 -3.93941056015602  0.07169856885689
 6 -5.40660532133213  0.61686691529153 -0.91950301730173
 6  6.75699826602660 -0.72757104120412  0.83747687028703
 6 -3.49844560386039  5.53762006020602  0.19712052715272
 6 -2.13818725502550  3.20088227952795 -0.08020709590959
 6 -0.52373651115112  6.54880874887489  0.75431052085209
 6 -4.08051658855886  5.87515592049205 -1.27761853755376
 1 -0.31214877977798  0.31619732533253  0.09065851255126
 1  3.11079509410941 -0.91233323542354 -1.03480298889889
 1  2.57712896379638 -2.94478918581858 -2.41736417111711
 1  1.35848262756276 -4.18953087068707 -2.78239060556056
 1 -5.59335114131413 -2.26056444554455  2.45357751825183
 1  5.18142845304530  0.12971768826883 -1.31383453645365
 1  5.86900886648665  1.54773908320832 -0.54054535413541
 1 -3.00724882058206 -0.01605710951095 -0.64003690929093
 1  0.35523185488549  1.68701988498850 -0.41965143724372
 1 -1.78726431763176 -4.63165526972697 -1.12332313801380
 1 -2.51920555025502 -3.16046374837484 -2.03238255845585
 1 -1.29798975007501 -4.13607178157816 -2.77634123712371
 1 -2.44448820662066 -3.68417456585659  0.80291753875388
 1  1.30909671637164 -4.97943042554255 -0.44632835033503
 1  2.55720490629063 -5.39437214571457 -1.45200971487149
 1  4.61532595359536 -0.93942999409941  0.98288887508751
 1  5.32168636823682  0.34278871547155  1.92783725442544
 1  4.44872239253925  4.80080054745475 -0.15764574727473
 1  5.65800242304230  3.67991071027103  0.10613713691369
 1  4.45632504990499  3.85392090019002  1.42817412131213
 1  1.66388222022202  5.00351028062806  0.70206999389939
 1 -7.77258002960296 -2.31339733423342  1.40978567256726
 1 -7.10810645494549 -4.02993075897590  1.76686905480548
 1 -7.09542772677268 -3.50460822432243  0.14744633383338
 1 -6.80077741944194 -0.26249658095810  0.60982291019102
 1 -4.85856069786979  1.44146834373437 -0.55995984408441
 1 -6.39496132583258  0.92992062036204 -1.28534521302130
 1 -4.77408590409041  0.23508035423542 -1.77083829652965
 1 -3.40895077437744  6.55575823162316  0.67816552055206
 1 -4.25623330083008  4.84597372957296  0.62284442224222
 1  0.08521308660866  6.50472243214321  1.80186291879188
 1 -1.28974035733573  7.18130482598260  1.10349960636064
 1 -0.06249706210621  7.05584408490849 -0.10962462826283
 1 -3.40628092389239  6.63832971607161 -1.77254507060706
 1 -5.12048387148715  6.31656439743974 -1.07490263196320
 1 -4.32949747084708  4.87586907920792 -1.85500523892389
 1  3.69384469096910 -4.46580081028103  1.83029166616662
 1  7.74740198489849 -2.13670432273227  1.73672383498350

