%nproc=4
%Mem=4GB
# td=(NStates=1) B3LYP/SVP 

TD

0 1
 8 -4.69514963576358 -4.57686776797680  1.96480184378438
 8  3.02137273537354 -4.68823337253725  1.41590952275228
 8  7.07265764716472 -1.74320186128613  1.57659788028803
 8  3.73710544334433 -3.06667579277928  0.14477733613361
 8  7.69424817681768 -0.44993637293729 -0.22970253955396
 8 -2.99636996579658  2.42462986048605 -0.32906781138114
 7 -0.25955033673367 -0.63419276907691 -0.70536917311731
 7  1.63601128382838  1.75481786058606 -0.51527318941894
 7 -3.51379832283228 -3.14249329612961  0.59677814911491
 7 -0.69324072697270  2.94350476867687 -0.21305632953295
 6  0.66372760516052 -2.55175061336134 -1.41324340744074
 6  0.99135806960696 -1.15635558665867 -1.01933448874887
 6 -0.78757308240824 -2.75508939833983 -1.22133233263326
 6 -1.30147225342534 -1.50239388128813 -0.70120158605861
 6  3.80293823512351  1.45528001330133 -0.43224944134413
 6  2.50564125712571  0.79567089888989 -0.66703826242624
 6  2.20384738903890 -0.50126627242724 -1.09220146514651
 6  3.53328716561656  2.68686669486949  0.01702092919292
 6  1.56703785628563 -3.62914818061806 -1.84657485848585
 6 -5.66931626682668 -2.54027593719372  1.42645258525853
 6 -3.63026508940894 -1.85639070107011  0.07743152815282
 6  2.14912917311731  2.92620904910491 -0.13661113811381
 6 -5.10197639393939 -1.44120962416242  0.33005164406441
 6  5.12988146624662  0.85038470847085 -0.39345240164016
 6 -2.68412937513751 -1.10625739733973 -0.49005942034203
 6 -1.47579551725173 -3.96236073837384 -1.65530877457746
 6 -4.56837430423042 -3.57865637133713  1.35839495409541
 6  2.09257973397340 -4.59729194889489 -0.71300415621562
 6  5.43412328862886  0.01948588468847  0.89896800290029
 6  4.46212199839984  3.80863209450945  0.63375555935594
 6  1.35196643804380  4.09888429592959  0.28270839033903
 6 -7.06801793239324 -3.11685906570657  0.95916538263826
 6 -5.71912051455145 -0.40934566446645 -0.24216569096910
 6 -0.05041003000300  4.11835650725073  0.13772239783978
 6 -0.96975793749375  5.15928702170217  0.55212984158416
 6 -2.26665199139914  4.68908503130313  0.38918032093209
 6  3.03927676897690 -4.09171579067907  0.34544594359436
 6 -5.29174383518352  0.38675390399040 -1.33452451945195
 6  6.88376094229423 -0.64320260436044  0.64548767136714
 6 -3.63156891619162  5.29604590279028  0.58042885798580
 6 -2.10909434573457  3.19606179747975 -0.04249332453245
 6 -0.56735087258726  6.38641250925092  1.10863595339534
 6 -4.15974451135113  5.65867427232723 -0.73462423812381
 1 -0.44643220812081  0.25551125672567 -0.18385893919392
 1  2.90985500010001 -1.27937994009401 -1.12141164976498
 1  2.35755700660066 -3.15795050195019 -2.13202563726373
 1  1.13648042734273 -4.26015793339334 -2.60810317681768
 1 -5.46610841704170 -2.05427381648165  2.33543570407041
 1  5.30048035823582  0.11480619711971 -1.26534968796880
 1  5.96796876247625  1.73701801110111 -0.68277957755776
 1 -2.79303739943994 -0.02775827962796 -0.57170007560756
 1  0.53470980268027  1.86752793579358 -0.69829930203020
 1 -1.78760435163516 -4.73418552275228 -0.84605541124112
 1 -2.59092272197220 -3.86411411341134 -2.10781010121012
 1 -0.83206315741574 -4.55067324172417 -2.44336793979398
 1 -2.79237299509951 -3.70765691409141  0.89245649264927
 1  1.31179698639864 -5.06743922642264 -0.16536025352535
 1  2.73488267406741 -5.38328103660366 -1.35502001590159
 1  4.91761618261826 -0.92617866896690  0.99851043724372
 1  5.72522672227223  0.95056949354936  1.69245371607161
 1  4.31352887318732  4.84934540194019  0.22613263056306
 1  5.55392201500150  3.61740445964596  0.51572809600960
 1  4.47227664506451  4.01902741084108  1.79236053995400
 1  2.03433926592659  5.04503443304330  0.66726651355135
 1 -7.85740851245125 -2.28057405190519  0.97235192919292
 1 -7.29058470277028 -3.84798256415641  1.73973634153415
 1 -6.99173735773577 -3.58683644714471  0.06631822102210
 1 -6.82142948464846 -0.36268659996000  0.12525445334533
 1 -4.95055989778978  1.37952214911491 -1.16607045514551
 1 -6.24810664036404  0.64845247354735 -2.10493717221722
 1 -4.51902039753975  0.08923576977698 -2.00263147584758
 1 -3.69270915021502  6.33533618941894  1.06489419341934
 1 -4.35957363486349  4.46639577177718  1.17769990779078
 1 -0.05006044074407  6.10205216511651  2.06359909240924
 1 -1.32341372467247  7.17349404490449  1.27027628402840
 1  0.18219740734073  6.82555105560556  0.35312164636464
 1 -3.35910620642064  6.20273615671567 -1.33360117621762
 1 -4.98290011311131  6.33145588658866 -0.55544068576858
 1 -4.52901742284228  4.76189768206821 -1.23638337673767
 1  3.68681398789879 -4.43827805800580  2.04205284228423
 1  7.92478972367237 -2.32446309860986  1.47540770337034

