%nproc=4
%Mem=4GB
# td=(NStates=1) B3LYP/SVP 

TD

0 1
 8 -4.43678379917992 -4.68228831003100  1.94306967056706
 8  2.96128672677268 -4.78454300350035  1.45003293509351
 8  7.12667304870487 -1.34068160926093  1.95498571907191
 8  3.63653538633863 -3.03791291649165  0.16133899229923
 8  7.62391114311431 -0.73017439673967 -0.20021959125913
 8 -3.07546787558756  2.44250164766477 -0.45943084768477
 7 -0.26193057475748 -0.60445979577958 -0.68988762496250
 7  1.59655733843384  1.83539591839184 -0.49767142924292
 7 -3.36981392439244 -3.13114216101610  0.60059853115312
 7 -0.79803120602060  2.93802422062206 -0.14876990089009
 6  0.64252548494849 -2.49324476277628 -1.49132121522152
 6  0.96859579337934 -1.15785573667367 -0.97146970227023
 6 -0.70283460856086 -2.60142403180318 -1.33208340774077
 6 -1.38998110431043 -1.42857649954996 -0.85210667656766
 6  3.83837177847785  1.42076656195620 -0.39169538593859
 6  2.54597529052905  0.76378771057106 -0.63991555015502
 6  2.26315331963196 -0.58029417521752 -0.94155640064006
 6  3.61768560546055  2.72563057125713 -0.03243401630163
 6  1.72936408890889 -3.50240550635063 -1.84149435043504
 6 -5.58682801800180 -2.48586049564957  1.40899083908391
 6 -3.59791185408541 -1.86323138513851  0.02673645864586
 6  2.15296955715572  2.95695212341234 -0.01086856385639
 6 -5.07600379667967 -1.51445694889489  0.33090172907291
 6  5.09261773987399  0.60122979297930 -0.59258231463146
 6 -2.66353731593159 -1.14862163376338 -0.54498491289129
 6 -1.50232817051705 -3.79408391069107 -1.82063530723072
 6 -4.51634910171017 -3.56829533523352  1.37662677727773
 6  1.95379585558556 -4.56797901760176 -0.71447430323032
 6  5.49116899319932 -0.06712277617762  0.71235934203420
 6  4.59974576077608  3.77245847714771  0.35774795859586
 6  1.29180042144214  4.02874728222822  0.31744186368637
 6 -7.04656578717872 -2.94734211401140  1.24034350045005
 6 -5.83049165166517 -0.58834356425643 -0.21189266366637
 6 -0.13398838783878  3.90000467206721  0.24195282088209
 6 -1.00654161586159  5.02473356635664  0.69293392199220
 6 -2.27418274447445  4.56440256305630  0.35827723062306
 6  2.96363920522052 -4.00465708480848  0.26055745474547
 6 -5.50885554635463  0.31520674927493 -1.32120318731873
 6  6.86103867006701 -0.68860714481448  0.75244836743674
 6 -3.55563132243224  5.34231052925293  0.50795161026103
 6 -2.09569300560056  3.18130032133213 -0.10185926112611
 6 -0.60805494299430  6.40268413641364  1.26527161696170
 6 -4.13215175207521  5.85714411931193 -0.79686046174617
 1 -0.39048661356136  0.49718542414241 -0.45917647094710
 1  3.14265828042804 -1.17794979707971 -1.35043455205521
 1  2.70299155005501 -2.99452415931593 -2.23966640134013
 1  1.26718349764976 -4.16982890049005 -2.52551491799180
 1 -5.58750055625562 -2.08950733983398  2.33288544904490
 1  5.14741505170517  0.05819053555356 -1.48098125112511
 1  5.85171713731373  1.24935924522452 -0.86083738333833
 1 -2.85677377307731  0.02606710291029 -0.71326423202320
 1  0.66354268596860  1.66953813681368 -0.57340681278128
 1 -1.79559515071507 -4.50398250245025 -0.99572037773777
 1 -2.45134876457646 -3.58329603160316 -2.30907022722272
 1 -1.01805175627563 -4.49612778717872 -2.52941654465447
 1 -2.46776053385339 -3.50899704810481  0.31584883188319
 1  1.14722052875288 -5.01647412991299 -0.02887660516052
 1  2.49600878667867 -5.53970667916792 -1.24009852375238
 1  4.94609903090309 -0.85796184728473  1.18261884808481
 1  5.49258345794579  0.64413885048505  1.49648411911191
 1  4.43985150545055  4.54346481388139 -0.27897788048805
 1  5.64235085788579  3.52741546074608  0.29091561476148
 1  4.17916733413341  4.06418192629263  1.50288159205921
 1  1.72644847684768  4.87092702230223  0.60656044294429
 1 -7.67544031563156 -1.90407640214021  1.32871756575658
 1 -7.25647129142914 -3.77168493439344  2.03847621552155
 1 -7.36075425942594 -3.46879464296430  0.24547613681368
 1 -6.76613395509551 -0.18246857815782  0.18576050395040
 1 -4.89496433823382  1.34582877977798 -1.15883973207321
 1 -6.36737856755676  0.65123275157516 -1.70211689018902
 1 -4.96999549504950  0.04031087728773 -2.28458967166717
 1 -3.54663454275428  6.25037769356936  0.99060676467647
 1 -4.34631230873087  4.49729886208621  0.86844898269827
 1  0.14966953225323  6.16419837973797  2.18939167166717
 1 -1.44113549684969  6.87235393089309  1.75464472087209
 1 -0.24250506290629  7.06914541504150  0.56705303950395
 1 -3.62105240104010  6.76449233233323 -1.07560537663766
 1 -5.32784460756076  6.15686842784278 -0.76960210191019
 1 -4.01972649374937  5.25227671997200 -1.73496323472347
 1  3.61199650615062 -4.32352658285829  2.04385302230223
 1  7.96509375407541 -1.77991864416442  1.99037920052005

