%nproc=4
%Mem=4GB
# td=(NStates=1) B3LYP/SVP 

TD

0 1
 8 -4.34631475227523 -4.67832791399140  1.91095645924592
 8  2.90173077117712 -4.85346989618962  1.27926585838584
 8  7.08395877727773 -1.47797533863386  1.90589080958096
 8  3.68366009880988 -3.17232635783578  0.08440129852985
 8  7.55967471947195 -0.57105848514851 -0.10751032033203
 8 -3.04572490129013  2.44088148564856 -0.46476138073807
 7 -0.22680706240624 -0.56395574537454 -0.67490612681268
 7  1.53873155585559  1.71137351615162 -0.42842450455046
 7 -3.39374631763176 -3.02376142294229  0.67860633193319
 7 -0.71259266216622  2.92743316151615 -0.04538956285629
 6  0.57284851725173 -2.50362580088009 -1.36273835693569
 6  1.00343927772777 -1.16198614971497 -1.02581513681368
 6 -0.81233555865587 -2.69781367076708 -1.20137033643364
 6 -1.30049215541554 -1.44498814071407 -0.70765223112311
 6  3.78678661996200  1.43714820012001 -0.35745196159616
 6  2.51057175017502  0.75443677547755 -0.65629718831883
 6  2.23970097439744 -0.56033217901790 -0.95587783278328
 6  3.55277911481148  2.75323333153315  0.05269449654965
 6  1.64139529202920 -3.50607587338734 -1.94951515251525
 6 -5.55130446564656 -2.58511042064206  1.42153209320932
 6 -3.57544960786079 -1.73527858985899  0.15180896589659
 6  2.14056831703170  2.97552398059806 -0.03208068506851
 6 -4.97956415271527 -1.48281378457846  0.48244688358836
 6  5.09300777887789  0.77395706570657 -0.37093014941494
 6 -2.61221218341834 -1.00175694729473 -0.39741015541554
 6 -1.62600053775378 -3.80897539983998 -1.69844308800880
 6 -4.39690715751575 -3.63941244694469  1.36763587818782
 6  2.11828230423042 -4.57037925762576 -1.02535539133913
 6  5.38334821112111 -0.19964602850285  0.77586569266927
 6  4.48626441264126  3.75773700500050  0.44981716551655
 6  1.31253249464947  4.03164757225723  0.26879699919992
 6 -6.96751788238824 -3.23049042884288  1.08904837093709
 6 -5.77473607610761 -0.54569929982998 -0.12101357575758
 6 -0.06207119611961  4.06975164676468  0.29828845444544
 6 -1.05734669636964  5.18302939593959  0.56226085468547
 6 -2.22663798999900  4.67754387718772  0.27585898879888
 6  2.88871171247125 -4.08061468056806  0.13033443244324
 6 -5.33964862566257  0.38816404500450 -1.19482054905491
 6  6.69141170737074 -0.83543182728273  0.76694981758176
 6 -3.63074883418342  5.31712801100110  0.45638645374537
 6 -2.07953138943894  3.21995418671867 -0.16072514771477
 6 -0.68352248974898  6.48975284328433  1.02772786258626
 6 -4.06089462636264  5.88810721562156 -1.03358413411341
 1 -0.27004456935694  0.54176988258826 -0.60179073237324
 1  3.06635064966497 -1.13616561866187 -1.11152066066607
 1  2.35031628252825 -2.89172387928793 -2.37759019371937
 1  1.18217499679968 -4.03043496109611 -2.83182554905490
 1 -5.57012881908191 -2.17728611771177  2.55341750225022
 1  5.25926623682368  0.00667538403840 -1.32087524052405
 1  5.90658262386239  1.47837214651465 -0.27642894249425
 1 -2.64313240894089  0.16628112431243 -0.37559046464647
 1  0.43495982768277  1.85213639663966 -0.71113058515852
 1 -1.71043663486349 -4.65475757995800 -0.99467027272727
 1 -2.80025365506551 -3.69502720472047 -1.86859617981798
 1 -1.16691664276428 -4.24472264666467 -2.65203880688069
 1 -2.62056581438144 -3.59490563896390  0.75793304030403
 1  1.22813862056206 -5.13248573107311 -0.47273099059906
 1  2.76088527432743 -5.31943465196520 -1.53441795569557
 1  4.51066548754876 -0.97306335743574  0.76440702690269
 1  5.21745594519452  0.34991942854285  1.78064253495350
 1  4.36165368566857  4.73239370677068 -0.13751373407341
 1  5.47780440324032  3.36085880508051  0.32904942814281
 1  4.39140855825582  4.08615412351235  1.56877818171817
 1  1.82852868486849  4.97288721832183  0.74327411431143
 1 -7.68278104970497 -2.34946094059406  1.10361505550555
 1 -7.03772941724172 -3.98136590249025  1.95216758465847
 1 -6.96466465046505 -3.81253901740174  0.01368295749575
 1 -6.85685302700270 -0.27586791809181  0.29649157705771
 1 -4.97963280508051  1.40942513941394 -0.69525337343734
 1 -6.28154998469847  0.46042367066707 -1.80140681918192
 1 -4.46002449794979  0.06510335653565 -1.83083429612961
 1 -3.81840171947195  6.18559121492149  1.03228093209321
 1 -4.26559423692369  4.42086121832183  0.78430056785678
 1  0.16439100440044  6.36377833773377  1.85203793629363
 1 -1.50410179347935  7.01791848734873  1.55138439483948
 1 -0.07101791419142  7.09288778927893  0.10294662886289
 1 -3.29975027082708  6.49633551665167 -1.68330614671467
 1 -4.83783560666067  6.66545928692869 -1.10152529422942
 1 -4.28350287138714  5.00455194749475 -1.46830656905691
 1  3.32332763926393 -4.20830506070607  1.77908654565457
 1  7.90546779147915 -1.89451010331033  1.92286244884488

