%nproc=4
%Mem=4GB
# td=(NStates=1) B3LYP/SVP 

TD

0 1
 8 -4.30615073587359 -4.68962904410441  2.04964032763276
 8  3.08573917201720 -4.98996354555455  1.26866479827983
 8  6.93357373877388 -1.35349289038904  2.12672289278928
 8  3.64095582838284 -2.98639776497650  0.10779363776378
 8  7.63465221722172 -0.58721010031003  0.04100453115312
 8 -2.98542887168717  2.60235763326333 -0.39990489508951
 7 -0.26021040274027 -0.61683103290329 -0.68588722492249
 7  1.60116779947995  1.72713509230923 -0.34919658175818
 7 -3.49716665966597 -3.13542258905891  0.56429490079008
 7 -0.71437284018402  2.97367778597860 -0.30853587748775
 6  0.57777901030103 -2.44969040734073 -1.56745882898290
 6  0.97854678847885 -1.20902085318532 -1.05338789408941
 6 -0.82113643874387 -2.66467035643564 -1.41707190659066
 6 -1.31786389258926 -1.55636927882788 -0.74956642254225
 6  3.75305324662466  1.30557504280428 -0.41772798919892
 6  2.43336402940294  0.75729706150615 -0.63409496809681
 6  2.20281728602860 -0.56864301010101 -0.95175742074207
 6  3.58087192409241  2.64439244744474 -0.00581135403540
 6  1.64481563406341 -3.54758002380238 -1.97155735673567
 6 -5.63468280348035 -2.59401131073107  1.43100304030403
 6 -3.65700776367637 -1.87689275127513  0.07898168316832
 6  2.09243350355035  2.94575100330033 -0.03057053405341
 6 -4.98966516281628 -1.47180268346835  0.44198283718372
 6  5.07149562766277  0.63101277127713 -0.47292034843484
 6 -2.67871883408341 -1.06023279487949 -0.58616903130313
 6 -1.56123406110611 -3.86131063336334 -1.80635387908791
 6 -4.45254272107211 -3.63710221592159  1.36584569916992
 6  2.07840831683168 -4.53283550325032 -0.85270812661266
 6  5.33630350665066 -0.17454351825183  0.84165227132713
 6  4.58494428062806  3.71627285858586  0.33722590639064
 6  1.37524876627663  4.13977838533853  0.19393951345135
 6 -6.92197332793279 -3.18635601540154  1.14644411051105
 6 -5.85239384188419 -0.55704043394339 -0.07206868126813
 6  0.03720873187319  4.14008868046805  0.13558218381838
 6 -0.91243220492049  5.25346643964396  0.41688631723172
 6 -2.22254758095810  4.73245936873687  0.37795919881988
 6  2.99289213051305 -4.01660827992799  0.14915631463146
 6 -5.40154481528153  0.43126835543554 -1.18816988398840
 6  6.72608517471747 -0.74876316041604  0.86085920852085
 6 -3.59377513681368  5.38534483268327  0.70504131923192
 6 -2.08243167946795  3.37294948624863 -0.23012208740874
 6 -0.48486262376238  6.60790465846585  0.95627071687169
 6 -4.29356789368937  5.67256566146615 -0.63561433713371
 1 -0.59874743964397  0.24648035363536 -0.07392794609461
 1  3.08706272087209 -1.24033603570357 -1.09297880648065
 1  2.43217446834683 -2.94025873277328 -2.58260069476948
 1  1.13252003130313 -4.11926384398440 -2.83266563306331
 1 -5.61038284448445 -2.26145453455345  2.48334049454946
 1  5.15231554175417  0.08634335083508 -1.43568672167217
 1  5.84358632423242  1.33343765306531 -0.51367266686669
 1 -2.87205530123012  0.07607210341034 -0.61674458005801
 1  0.44384071577158  2.04513569656966 -0.70959043114311
 1 -1.59065465666567 -4.72125422962296 -1.07739854555456
 1 -2.58474210391039 -3.47619532153215 -1.88827814801480
 1 -1.19078903000300 -4.44063223762376 -2.57348095109511
 1 -2.64417817561756 -3.67662381078108  0.62599984698470
 1  1.29397520422042 -5.12449493199320 -0.58188190569057
 1  2.79335852165217 -5.15585829432943 -1.35463997789779
 1  4.50057447844785 -0.95065111621162  0.86732731893189
 1  4.98195239483949  0.47595203180318  1.85927039773977
 1  4.35179269956996  4.58032850025003 -0.33193317601760
 1  5.62673929672967  2.97804052325233  0.27865438863886
 1  4.34948436583658  4.01110661876188  1.33474477837784
 1  1.77911374337434  5.18059798939894  0.43307309420942
 1 -7.71102387398740 -2.42075807030703  1.07239193319332
 1 -7.09978562286229 -4.08302606850685  1.82875524342434
 1 -6.86510469446945 -3.79728749224922  0.16868845804580
 1 -6.89194653635364 -0.38580891219122  0.40141206910691
 1 -4.81792663446345  1.09789398629863 -0.70733458155816
 1 -6.27332916261626  0.56534416271627 -1.75902258075808
 1 -4.69955845134513  0.06004285048505 -1.82332354505451
 1 -3.34996487578758  6.21493414921492  1.32339004300430
 1 -3.99495717321732  4.44322345454546  1.23310544834483
 1  0.37811237653765  6.42482444234424  1.63625635813581
 1 -1.21840322362236  7.14824151965196  1.58822807920792
 1 -0.33452426482648  7.16262476297630  0.04649098329833
 1 -3.57741803760376  6.39642552565257 -1.21733955005501
 1 -5.23079490259026  6.10441318231823 -0.66120126182618
 1 -4.51082560366036  4.87254874717472 -1.36778651705170
 1  3.76640194669467 -4.57816204640464  1.83014165116512
 1  7.82740998569857 -1.58300895319532  2.27723788638864

