%nproc=4
%Mem=4GB
# td=(NStates=1) B3LYP/SVP 

TD

0 1
 8 -4.67227734853485 -4.58945902710271  1.93384874847485
 8  3.18904950305031 -4.84033858305831  1.32321025282528
 8  6.86189657105711 -1.76588412951295  1.74893511401140
 8  3.92918465126513 -3.18234735993599  0.02152501090109
 8  7.62588134013401 -0.60234161346135 -0.15466503580358
 8 -3.10920124892489  2.34779217671767 -0.08217312191219
 7 -0.19056343804380 -0.63845319511951 -0.46596523272327
 7  1.58420610331033  1.86688906770677 -0.29339100120012
 7 -3.58065500850085 -3.12819186598660  0.44161263256326
 7 -0.84761616451645  2.79040945914591  0.01480645674567
 6  0.72603383578358 -2.50285572387239 -1.22928501160116
 6  1.03649258305831 -1.27054700580058 -0.79668222352235
 6 -0.73198752385239 -2.71996588598860 -1.26714691409141
 6 -1.17186929312931 -1.51611525342534 -0.67172863876388
 6  3.72561050235023  1.56848133343334 -0.43388960536054
 6  2.44892558555856  0.81698303010301 -0.49262082068207
 6  2.26511351565157 -0.54413055885589 -0.72615486048605
 6  3.58190202710271  2.81119912811281 -0.02524329722972
 6  1.73287443994399 -3.46068133393339 -1.92299250025003
 6 -5.65324465966597 -2.36088799839984  1.36590653065307
 6 -3.62124418731873 -1.86111117311731  0.02818660366037
 6  2.10932519271927  3.03453988218822  0.04195671867187
 6 -5.01288748504850 -1.39509501270127  0.28695733463346
 6  5.11391987008701  0.75348501850185 -0.40927398379838
 6 -2.54510547274727 -1.00897766936694 -0.33721413581358
 6 -1.44245218291829 -3.95091959425943 -1.87912115581558
 6 -4.65219268606861 -3.54440294599460  1.39749886448645
 6  2.14171464746475 -4.59459167886789 -0.98140099589959
 6  5.40390026632663 -0.08247431133113  0.75466357245725
 6  4.54189997619762  3.95437666896690  0.14933711751175
 6  1.29028026942694  4.08201260876088  0.35875599509951
 6 -7.07029816041604 -2.86570395019502  1.15410487658766
 6 -5.80574917741774 -0.41913664356436 -0.27417889228923
 6 -0.08715370437044  3.93853852545254  0.27074570017002
 6 -0.99128008970897  5.10437153015302  0.57619224782478
 6 -2.23118844504450  4.67899402220222  0.45231663456346
 6  3.15352819411941 -4.17853447254725  0.12341374037404
 6 -5.38755341614161  0.48710393899390 -1.34244531153115
 6  6.74533709990999 -0.79406769086909  0.68124124672467
 6 -3.66348210751075  5.32749904810481  0.36680749584958
 6 -2.15744918121812  3.20043223452345  0.05699662446245
 6 -0.67117125462546  6.61291515951595  0.82233732353235
 6 -4.16026456335634  5.45128353325333 -0.95641641734173
 1 -0.34202176707671  0.28250395599560 -0.15108566186619
 1  3.26550056465647 -1.03833583568357 -1.23074258285829
 1  2.43387463836384 -2.87767247414741 -2.38409084378438
 1  0.96112289158916 -4.01817373497350 -2.66320868736874
 1 -5.65439724592459 -1.92805119421942  2.36727888838884
 1  5.14419472967297  0.22476719321932 -1.41389454245425
 1  6.14639660526053  1.28290259955996 -0.61883318291829
 1 -2.67215531123112 -0.07522302610261 -0.43191609720972
 1  0.59764609630963  1.76015719871987 -0.38904837693769
 1 -1.25299089028903 -5.00462256645665 -1.42254306000600
 1 -2.51608523822382 -3.82279998199820 -1.87931725192519
 1 -1.32749270037004 -3.89797797219722 -3.05067867086709
 1 -2.77541129892989 -3.74044019241924  0.59892713971397
 1  1.23313912061206 -4.96656913941394 -0.35421913941394
 1  2.58959814561456 -5.41708441694169 -1.50344485838584
 1  4.65037945894590 -0.84115016611661  0.57589817601760
 1  5.15745994559456  0.36026046264626  1.65328979967997
 1  4.80740826112611  4.64634510191019 -0.73755373807381
 1  5.57098372117212  3.44540725992599  0.56530305350535
 1  4.12424184158416  4.72342785088509  1.01194249814981
 1  1.82299813181318  5.05235516511651  0.73257304420442
 1 -7.73562633423342 -2.11501749624962  1.18612330633063
 1 -7.24725036933693 -3.48390615651565  2.16303867176718
 1 -7.23969215321532 -3.58411617511751  0.27026861606161
 1 -6.70902824452445 -0.41480181148115  0.14656658455846
 1 -5.10213505530553  1.37700189708971 -0.85108895699570
 1 -6.33019484918492  0.45848347664766 -1.99243592209221
 1 -4.32676117161716  0.09416626282628 -1.87265847854785
 1 -3.64540441974197  6.22185484128413  0.97279498349835
 1 -4.36469414691469  4.70555968816882  1.02418455625562
 1  0.20256482178218  6.91582354225423  1.64165689818982
 1 -1.65794717801780  7.41208790429043  0.72479173557356
 1  0.02339152675268  7.10985948644865  0.07366370057006
 1 -3.66380667646765  6.04233011611161 -1.68528634473447
 1 -5.31711353445345  5.73796653765377 -1.14195933763376
 1 -4.30651517261726  4.61615310761076 -1.46121585998600
 1  4.00927623412341 -4.66068029822982  1.75856449344934
 1  7.74997224192419 -2.38207886018602  1.80307046964696

