%nproc=4
%Mem=4GB
# td=(NStates=1) B3LYP/SVP 

TD

0 1
 8 -4.48736885768577 -4.58818890009001  2.06441180478048
 8  2.77014761286129 -4.84800935013501  1.24108204000400
 8  7.01043142454245 -1.56096363746375  1.80081030153015
 8  3.82107384018402 -3.13097222242224  0.05371823022302
 8  7.47170592259226 -0.67150853015302 -0.19706927622762
 8 -3.14015434423442  2.38858625612561 -0.36210111471147
 7 -0.27214159585959 -0.46467581738174 -0.67882651885189
 7  1.62663034573457  1.78236061486149 -0.37052871497150
 7 -3.46509345234523 -3.07401644844484  0.71460993229323
 7 -0.79858126102610  2.84432485068507 -0.24950997489749
 6  0.73504473687369 -2.43487892619262 -1.43253533663366
 6  0.97018595239524 -1.17946789788979 -0.96496905220522
 6 -0.69913423852385 -2.62120601000100 -1.36235643504350
 6 -1.34987709390939 -1.46578021992199 -0.76756822272227
 6  3.83582152345235  1.45338982428243 -0.40943716011601
 6  2.53487418041804  0.76665799759976 -0.53056461506151
 6  2.25529253355336 -0.56571271707171 -0.88073031803180
 6  3.58501233813381  2.76561456965697  0.05098432553255
 6  1.67807896039604 -3.43799906570657 -1.89838003900390
 6 -5.59985932113211 -2.38724063366337  1.41233117311731
 6 -3.54264632753275 -1.80049511151115  0.18764254925493
 6  2.12604686488649  2.91091751995199  0.07339986298630
 6 -5.06410260656066 -1.46725222842284  0.35047368626863
 6  5.13817229532953  0.77246691669167 -0.38309136553655
 6 -2.60548151035103 -1.11774854645465 -0.44740515491549
 6 -1.43921185888589 -3.81960646294629 -1.81121436513651
 6 -4.45791325812581 -3.54456296199620  1.45215433003300
 6  2.07682815881588 -4.56266848654866 -0.96603945974597
 6  5.45545542184218 -0.07025308920892  0.87304541064106
 6  4.49336512271227  3.80588181948195  0.47854003780378
 6  1.26859810121012  4.03726813431343  0.23114323382338
 6 -6.97611874247425 -2.97002438223822  1.24299376547655
 6 -5.78086668916892 -0.60548527842784 -0.29658113251325
 6 -0.08483347234723  3.85457012861286  0.15063368896890
 6 -0.98239920162016  5.02030312331233  0.55106973557356
 6 -2.28283360956096  4.56555267806781  0.39008041094109
 6  3.03987682898290 -3.99468608770877  0.18080947994799
 6 -5.27695235603560  0.33636886548655 -1.33572463946395
 6  6.75419798599860 -0.72110039413941  0.79209233183318
 6 -3.66654241354135  5.25647194539454  0.47193800890089
 6 -2.19094253055306  3.16513870517052 -0.08147722292229
 6 -0.61876601410141  6.41384525252525  0.99160425022502
 6 -4.04205274217422  5.89825823072307 -0.81864263996400
 1 -0.42942050695070  0.40166587218722 -0.49850040334033
 1  3.13317733233323 -1.15367736983698 -1.07016652525252
 1  2.58573982488249 -3.05893059996000 -2.25408784348435
 1  1.35285206450645 -3.78163008060806 -2.82747511401140
 1 -5.54237604380438 -2.03763215231523  2.41117327782778
 1  5.26483679387939  0.07434215071507 -1.29288244124412
 1  5.92503446904691  1.45404971427143 -0.59133043264326
 1 -2.77713580928093  0.01373586978698 -0.77590049564957
 1  0.52820915261526  2.09241042404240 -0.63335280738074
 1 -1.48376396759676 -4.64083618781878 -1.21234203990399
 1 -2.49458308800880 -3.88199590159016 -1.93235255545555
 1 -0.93515346644664 -4.12918109250925 -2.79012261526153
 1 -2.66060981878188 -3.49525567396740  0.76929417641764
 1  1.26505231193119 -5.12945542804280 -0.47169088658866
 1  2.73593277907791 -5.30176288478848 -1.40614512841284
 1  4.71532595359536 -0.87250330143014  1.05016560276028
 1  5.33190739033904  0.64147858445845  1.70115458615862
 1  4.48416593689369  4.68460892829283 -0.21323130583058
 1  5.61723834663466  3.53199591879188  0.52868939213921
 1  4.04960437783778  4.23135864396440  1.28381968586859
 1  1.79547537953795  5.02873280288029  0.61160094699470
 1 -7.77858062966297 -2.24867086158616  1.22195688968897
 1 -7.04410005430543 -3.96902466836684  1.95888825672567
 1 -7.08503668766877 -3.63419118261826  0.25202679187919
 1 -6.74665200690069 -0.52983331463146  0.04214614251425
 1 -5.03615845764576  1.18725292219222 -0.71026487458746
 1 -6.02464429412941  0.66164379267927 -2.04664134263426
 1 -4.49222771827183 -0.16386954075408 -1.84182539523952
 1 -3.57482736203620  6.01718437423742  1.45034273827383
 1 -4.32974065156516  4.55892502470247  0.82216435423542
 1  0.36955152045204  6.33205516541654  1.58940167266727
 1 -1.62297368066807  6.90163685918592  1.39768902530253
 1 -0.22279309170917  7.12490099059906  0.15615194939494
 1 -3.35143543934394  6.65632151525153 -1.22159997609761
 1 -5.16264808790879  6.29867260826083 -0.83685882758276
 1 -4.25617013811381  5.06502799509951 -1.65422516091609
 1  3.49700500700070 -4.59471370157016  1.97298593559356
 1  7.68816606130613 -2.23169382168217  1.61586174877488

