%nproc=4
%Mem=4GB
# td=(NStates=1) B3LYP/SVP 

TD

0 1
 8 -4.55185530633063 -4.71511159235924  1.89761512511251
 8  2.46743734183418 -4.66337088628863  1.31462939473947
 8  7.21533191459146 -1.49805734683468  1.84861508200820
 8  3.74004573737374 -3.26153527872787  0.10122298069807
 8  7.75069382138214 -0.38806018531853 -0.07673724302430
 8 -2.83310363916392  2.29874727222722 -0.20276518111811
 7 -0.25983036473647 -0.61992134193419 -0.50380901710171
 7  1.58903658635864  1.75423780258026 -0.24069573167317
 7 -3.43447039003900 -3.06410545734574  0.58834730603060
 7 -0.67423882678268  2.92633305150515 -0.16884190809081
 6  0.64824605700570 -2.50811624992499 -1.30366244934493
 6  0.93919285308531 -1.16814676577658 -0.91995455075508
 6 -0.72230655575558 -2.63409729912991 -1.30432063146315
 6 -1.31376348254825 -1.50392403430343 -0.77440890679068
 6  3.77850579187919  1.40226471177118 -0.17587380378038
 6  2.46420711371137  0.67033836563656 -0.46951851045104
 6  2.14640164446445 -0.58617476327633 -0.79544178917892
 6  3.62716655355536  2.71339934813481 -0.03233400630063
 6  1.60481163366337 -3.37591285708571 -2.00534073507351
 6 -5.49176851205121 -2.59531144074407  1.38658859885989
 6 -3.61767383028303 -1.81360642264226  0.15204898989899
 6  2.08291255145515  2.91169759795980 -0.02066954395440
 6 -5.03228942524252 -1.56230173337334  0.40000863976398
 6  5.06917539563956  0.66106577657766 -0.33196625302530
 6 -2.68849981218122 -1.02943971557156 -0.48307872227223
 6 -1.54272220992099 -3.76495099739974 -1.93404664836484
 6 -4.46772423922392 -3.70140864656466  1.26039515411541
 6  2.03041351735174 -4.56839905960596 -1.07148000380038
 6  5.44212408870887 -0.19456552045205  0.75556366246625
 6  4.58878466466647  3.84928615991599  0.25322750655066
 6  1.37238848024802  4.08506291379138  0.28328844834483
 6 -6.89674080468047 -3.20791817161716  1.21011047714771
 6 -5.81751035353535 -0.49259398929893 -0.08521999639964
 6  0.00852586358636  4.08431310291029  0.20252887848785
 6 -0.99979094079408  5.20632172517252  0.48310293889389
 6 -2.21021634783478  4.67200332313231  0.30553195609561
 6  2.76897973927393 -4.01574819391939  0.13732513151315
 6 -5.55084974577458  0.42809803840384 -1.25625669266927
 6  6.94777734393439 -0.65089337343734  0.80520364296430
 6 -3.59673543284328  5.30950724892489  0.41203201830183
 6 -2.04745818211821  3.20859305060506 -0.00135921112111
 6 -0.49237337483748  6.61807567556756  0.71959704950495
 6 -4.24719325622562  5.65459386428643 -0.84930570627063
 1 -0.62046961186119  0.25130083568357  0.04959440614061
 1  2.78690270487049 -1.32983498559856 -1.00308981758176
 1  2.64119537043704 -2.77632233913391 -2.28978141284129
 1  1.26466324562456 -3.72897481508151 -3.06981934843484
 1 -5.40078188438844 -2.05998438753875  2.44164632513251
 1  5.21520183038304  0.01274599109911 -1.29039219221922
 1  5.88090005560556  1.24356866616662 -0.49527082668267
 1 -3.01959005470547 -0.02252775657566 -0.43698660426043
 1  0.32940927262726  1.56449763276328 -0.24558403050305
 1 -1.15378096929693 -4.60865296949695 -1.26458726442644
 1 -2.70003363306331 -3.57144484648465 -2.01974129432943
 1 -1.18817876897690 -3.95001317571757 -3.03931753475348
 1 -2.51683544134413 -3.56219236763676  0.46935418241824
 1  1.15972177887789 -5.21971445394539 -0.78694241174117
 1  2.73244243004300 -5.11251395989599 -1.65860037393739
 1  4.88087250825083 -1.13745979707971  0.86537712391239
 1  5.18061226082608  0.50984542114211  1.82236670737074
 1  4.17009452975298  4.78981944934493 -0.35889587228723
 1  5.79027565036504  3.62787550675068 -0.18671214801480
 1  4.50160957835784  4.50584609270927  1.25115641954195
 1  1.87453328532853  5.04452438203820  0.56798658555856
 1 -7.69320209180918 -2.35923191769177  1.54322901690169
 1 -6.99661530583058 -3.98701646754675  1.85565793369337
 1 -7.17390557455746 -3.40931869536954  0.13978556775678
 1 -6.86176351805180 -0.56492682398240  0.31496342424242
 1 -5.11754659645965  1.41048524542454 -0.86511035913591
 1 -6.39864169386939  0.58837646594659 -1.75548222672267
 1 -4.76407490299030 -0.07532068586859 -1.85195640834083
 1 -3.66665654495450  6.20231288708871  1.03232093609361
 1 -4.18351602910291  4.60167930013001  1.02764490229023
 1  0.02415698099810  6.71455341524153  1.50066279877988
 1 -1.58795017831783  7.20467716321632  0.83085234163416
 1  0.11416060366037  7.10948944944494 -0.08966263206321
 1 -3.76571686748675  6.55882176527653 -1.45270308640864
 1 -5.32334415751575  5.86305904690469 -0.74857999969997
 1 -4.15793031413141  4.59834132643264 -1.57702744114411
 1  3.02165747224722 -4.31894612481248  1.99861849884988
 1  8.16692393709371 -1.66751740404040  1.53393355595560

