%nproc=4
%Mem=4GB
# td=(NStates=1) B3LYP/SVP 

TD

0 1
 8 -4.46035615641564 -4.67081716291629  1.84956031963196
 8  2.99890048814882 -4.78525307450745  1.39915784758476
 8  7.10669105050505 -1.43640118121812  1.88568878937894
 8  3.73912564536454 -3.05929505470547  0.13317617601760
 8  7.43065181718172 -0.89116049534953 -0.35206477577758
 8 -3.01315164396440  2.40135753325333 -0.15626053065307
 7 -0.27492187388739 -0.62273162296230 -0.75868450465046
 7  1.52514019671967  1.81062344114411 -0.26433809590959
 7 -3.43634057705771 -3.16248529532953  0.63090156145615
 7 -0.73878528142814  2.96762718091809 -0.17198222212221
 6  0.64077530993099 -2.47696313461346 -1.37609969306931
 6  0.91626055985599 -1.12208215931593 -0.90966352165217
 6 -0.67187151225123 -2.73299718911891 -1.16509670907091
 6 -1.27275938213821 -1.45007864976498 -0.84540600650065
 6  3.74099204050405  1.43467795309531 -0.33034925132513
 6  2.52464315731573  0.81117244904490 -0.49046060466047
 6  2.21810881518152 -0.47740388618862 -0.92870511551155
 6  3.60375421232123  2.79897790599060 -0.02041281418142
 6  1.67873902640264 -3.46029129492949 -1.79599980098010
 6 -5.60935027022702 -2.61797370697070  1.26738667866787
 6 -3.64547661056106 -1.77837289928993  0.08668245324532
 6  2.15734999519952  3.03400982918292 -0.03133061006101
 6 -5.12385858215822 -1.51739724292429  0.35447408630863
 6  5.08190666876688  0.68444811481148 -0.46835989238924
 6 -2.66041700390039 -1.05993276487649 -0.50776119051905
 6 -1.51345928362836 -3.86467096939694 -1.74018726242624
 6 -4.48318578537854 -3.58974748044804  1.25874498909891
 6  2.03153362936294 -4.48667088678868 -0.66157901370137
 6  5.52069194549455 -0.04341040494049  0.77977608370837
 6  4.56140192639264  3.85117634893489  0.37107929172917
 6  1.34134537593759  4.12290669816982  0.24607472697270
 6 -6.95039617021702 -3.13998137793779  1.11144061016102
 6 -5.89847845034503 -0.62812754265427 -0.34485595999600
 6 -0.05867085608561  4.02254692629263  0.24534315991599
 6 -1.00145110681068  5.16346743974397  0.46455108370837
 6 -2.28820414661466  4.61748787158716  0.37251865476548
 6  3.04069691099110 -4.02670929002900  0.28650004900490
 6 -5.45832049284928  0.49814504310431 -1.26389745674567
 6  6.80294286048605 -0.92270055415542  0.64648777137714
 6 -3.59565532483248  5.33966026422642  0.58515933103310
 6 -2.13352678897890  3.26628882018202 -0.07397647284728
 6 -0.41120525802580  6.55151901990199  0.90828591839184
 6 -4.23662219911991  5.62321072597260 -0.81902267796780
 1 -0.40254781968197  0.28909461506151 -0.24423497679768
 1  3.05668968356836 -1.13142514461446 -1.15709521812181
 1  2.56591784268427 -3.03839854675468 -2.00030246494650
 1  1.34812159145915 -4.05204712231223 -2.75383775027503
 1 -5.35634744094409 -2.12145053415341  2.42147430793079
 1  4.95614592479248 -0.11188647214721 -1.19489264226423
 1  6.00892285788579  1.28700300960096 -0.92895419501950
 1 -2.79491758745875  0.06232072827283 -0.85157806340634
 1  0.40977730943094  1.96182736573657 -0.48917838993899
 1 -1.38966455765577 -4.77909001320132 -1.19035984168417
 1 -2.50382401210121 -3.50538824082408 -2.19609893009301
 1 -1.05955590669067 -4.13039121352135 -2.77218082108211
 1 -2.49258301610161 -3.64902105050505  0.73511075807581
 1  0.94718052475248 -5.04271675417542 -0.41409512701270
 1  2.44765395119512 -5.16830953945395 -1.35439995389539
 1  4.69578399939994 -0.74504055515552  1.01067165336534
 1  5.53132733233323  0.69312374897490  1.63005747644764
 1  4.59783730403040  4.54243471087109 -0.19841982468247
 1  5.49889651245125  3.60370308950895  0.09531605480548
 1  4.55323474087409  4.07791329942994  1.48084938883888
 1  1.90380621262126  4.93222315191519  0.51266105300530
 1 -7.81576434803480 -2.39132512701270  1.37520221422142
 1 -7.22174781908191 -4.00541830773077  1.71145351325133
 1 -6.94304248824882 -3.54214197769777  0.09172076127613
 1 -7.00914825652565 -0.45058538983898 -0.14573264536454
 1 -5.18000284208421  1.52966716361636 -0.61223507160716
 1 -6.19742157185719  0.79935756405641 -1.84075075357536
 1 -4.67644614011401  0.38421526772677 -1.90916212891289
 1 -3.46869674897490  6.29288194399440  1.13589129312931
 1 -4.08273595109511  4.54460359255926  1.10562270007001
 1  0.12179674497450  6.32016397629763  1.88352108460846
 1 -1.05790717401740  7.33420011551155  1.18964822122212
 1  0.15995518311831  6.91920042054205  0.09510584478448
 1 -3.71949224502450  6.53338922202220 -1.16290410651065
 1 -5.43115493859386  5.68943168416842 -1.07383252495249
 1 -3.97200172127213  4.64929642194219 -1.38867860626063
 1  3.51780708720872 -4.43725795599560  2.04241287828783
 1  7.88719596429643 -1.96213686598660  1.58656881948195

