%nproc=4
%Mem=4GB
# td=(NStates=1) B3LYP/SVP 

TD

0 1
 8 -4.46607672847285 -4.81617169836984  1.97330269386939
 8  2.84090468856886 -4.97787233643364  1.23694162596260
 8  6.99970035143514 -1.50550809190919  1.95769599009901
 8  3.56405813861386 -3.11888101330133  0.14707756615662
 8  7.58498725072507 -0.64431581088109 -0.02345191449145
 8 -2.90874120292029  2.52269966746675 -0.31961686628663
 7 -0.30026440814081 -0.56397574737474 -0.62431106730673
 7  1.52671035373537  1.83076545534553 -0.44166582868287
 7 -3.38217516051605 -3.15910495729573  0.65833430473047
 7 -0.71845324822482  3.02877329552955 -0.16046107000700
 6  0.72222345474547 -2.46190162846285 -1.41262334543454
 6  0.91769070287029 -1.13912386348635 -1.00651320662066
 6 -0.73735806090609 -2.64468835823582 -1.21463166256626
 6 -1.26089819601960 -1.44264790669067 -0.69343080898090
 6  3.87192513381338  1.45669015431543 -0.44391060746075
 6  2.48750944394439  0.82125345714571 -0.59326088468847
 6  2.25674267856786 -0.51417756355636 -0.86239848484849
 6  3.60891472837284  2.77849585778578 -0.06506727962796
 6  1.73190434293429 -3.43484875067507 -1.97422762376238
 6 -5.55501483668367 -2.61441335093509  1.33104304430443
 6 -3.64130619351935 -1.86703176517652  0.13001678667867
 6  2.17550181038104  3.05117154535454 -0.08990646764676
 6 -5.04487068336834 -1.56000150335034  0.37815645454545
 6  5.11205968406841  0.61890156015602 -0.36908996539654
 6 -2.69759072127213 -1.12731950355036 -0.40602101650165
 6 -1.49366730443044 -3.80695519781978 -1.71824506820682
 6 -4.43337080388039 -3.74540304600460  1.42160127472747
 6  2.04629510551055 -4.59162138183818 -1.02510536633663
 6  5.31869174547455 -0.08085414931493  0.81830993709371
 6  4.57202298849885  3.85804703600360  0.34216640044004
 6  1.41899314071407  4.15914032153215  0.16419653915392
 6 -6.97770890149015 -3.27659503930393  1.15339480558056
 6 -5.86883548604860 -0.71287601750175 -0.29621109550955
 6 -0.06654164316432  4.05916058765877  0.08497712331233
 6 -0.96230719241924  5.24962605560556  0.52941757035704
 6 -2.20197552375238  4.75418154095409  0.27730913381338
 6  2.85845868716872 -4.18535515461546  0.16212761176118
 6 -5.52364702550255  0.39254448304830 -1.18052911991199
 6  6.72828539473947 -0.71811009510951  0.81938506110611
 6 -3.49840559985999  5.46480277847785  0.54391520662066
 6 -2.00455389168917  3.33630582188219 -0.15522459765977
 6 -0.49695383288329  6.57880174817482  1.00233532333233
 6 -4.25990452735273  5.74382278717872 -0.79427020272027
 1 -0.29152671757176  0.30336604220422  0.04152359905991
 1  3.11925594019402 -1.18034003610361 -1.08125763436344
 1  2.52774402530253 -3.00902560946095 -2.47118955365537
 1  1.21740852015202 -3.85624754235424 -2.88635100160016
 1 -5.38365017121712 -2.04063245234523  2.42278443894389
 1  5.09830014021402  0.01662637913791 -1.32683583658366
 1  5.92124409000900  1.38686299559956 -0.57142844244424
 1 -2.85104320002000 -0.01545704950495 -0.56722962856286
 1  0.55902223392339  1.94007519051905 -0.46166563866387
 1 -1.54178977017702 -4.68339044324432 -0.99234003970397
 1 -2.38472210191019 -3.49551725372537 -1.88144746494649
 1 -0.93046299739974 -4.32337051145115 -2.59304290729073
 1 -2.42368612641264 -3.56596274467447  0.98587583458346
 1  1.00663647034704 -4.96608909140914 -0.61312503000300
 1  2.53180236603660 -5.39220192869287 -1.53201771567157
 1  4.78345276627663 -1.10923697479748  0.84660524672467
 1  5.06614081368137  0.41065550215021  1.68108257895790
 1  4.39567708800880  4.93786425382538  0.01739175647565
 1  5.53850047284728  3.49263198239824  0.10469699289929
 1  4.49962938033803  3.97579308740874  1.54553585748575
 1  1.92111794379438  5.04522445204520  0.54895468236824
 1 -7.73611638323832 -2.47679367386739  1.11207590159016
 1 -7.31348699299930 -4.11313907980798  1.92409477737774
 1 -7.20809899389939 -3.95007277077708  0.21840342954295
 1 -6.82707004870487 -0.68004833613361  0.16630855875588
 1 -5.17953279507951  1.40482467936794 -0.77421126922692
 1 -6.21520335003500  0.51117874617462 -1.87870454895490
 1 -4.67282577807781 -0.01625477927793 -1.95841705440544
 1 -3.33590346964696  6.56537919371937  0.88256596059606
 1 -4.19489716721672  4.96708584078408  1.39852198999900
 1  0.26140070537054  6.48992095199520  1.76107884038404
 1 -1.33297468076808  7.39926662216222  1.32140139653965
 1  0.02580176777678  7.08119662016202  0.06774310851085
 1 -3.71073136893689  6.27245312841284 -1.66706452255226
 1 -5.21283310641064  6.35680842184218 -0.55784092579258
 1 -4.59115363646365  4.76138763106311 -1.14325406380638
 1  3.54052935943594 -4.60243447364736  1.76253489048905
 1  7.86903414811481 -1.88509916221622  1.81692185478548

