%nproc=4
%Mem=4GB
# td=(NStates=1) B3LYP/SVP 

TD

0 1
 8 -4.66517663846385 -4.78489857105711  1.80263562716272
 8  2.77459805790579 -4.85060961016102  1.46023395519552
 8  7.17953833523352 -1.39455699679968  1.80951117161716
 8  3.61938367116712 -3.23579270447045  0.24872773117312
 8  7.46741549354935 -0.57054843414341 -0.30220979027903
 8 -2.91748207700770  2.42554995249525 -0.32723762836284
 7 -0.32286666836684 -0.54615396519652 -0.62257089328933
 7  1.57818550125012  1.87860023882388 -0.41620328242824
 7 -3.54525146814681 -3.19233828062806  0.59809828112811
 7 -0.67592899579958  2.93630404860486 -0.08881390529053
 6  0.72619385178518 -2.42729816811681 -1.37909999309931
 6  0.93160209400940 -1.14891484258426 -0.90473302860286
 6 -0.68263258835884 -2.61691558095810 -1.33823402280228
 6 -1.31487359355936 -1.48669231113111 -0.75104657055706
 6  3.84553249454945  1.52373685898590 -0.37573378977898
 6  2.50060075307531  0.86319765156516 -0.61147270587059
 6  2.22028903320332 -0.51427757355736 -0.76899914491449
 6  3.70542437933793  2.78888689688969 -0.02984375727573
 6  1.73767491999200 -3.42837810361036 -1.83106330733073
 6 -5.61819115431543 -2.56572848244824  1.37541748174817
 6 -3.67294935783578 -1.94059912191219  0.11178496349635
 6  2.13280754095410  2.98506493469347 -0.15613309030903
 6 -5.02403860016002 -1.60359586278628  0.25874451335133
 6  5.13781225932593  0.74001367136714 -0.48236129252925
 6 -2.70073103530353 -1.15789256085609 -0.45622603700370
 6 -1.32780071777178 -3.95003950625063 -1.83385662936294
 6 -4.59621708850885 -3.70007851355135  1.32654176877688
 6  1.91642211821182 -4.60241246094609 -0.75953880968097
 6  5.47842771907191 -0.13026909080908  0.75355346144614
 6  4.59396518271827  3.91070230153015  0.29227141094109
 6  1.38661990339034  4.13958836633663  0.23387350685069
 6 -7.02212334293429 -3.11376875667567  1.22645211131113
 6 -5.80694929742974 -0.63248797869787 -0.26801827622762
 6 -0.01502649164916  4.10619529112911  0.27879650525053
 6 -0.95231619331933  5.20062115511551  0.50822545114511
 6 -2.19099442564256  4.69599572237224  0.41162256515652
 6  2.83796663796380 -4.14962158125813  0.26029742874287
 6 -5.42324698549855  0.32619784838484 -1.38598966596660
 6  6.71426399259926 -0.72778106220622  0.66243936653665
 6 -3.57942370167017  5.26503280148015  0.48009882498250
 6 -1.94355779207921  3.19367155845585 -0.01021009620962
 6 -0.54830896839684  6.52659652765277  1.08234332413241
 6 -4.12394093099310  5.84734313921392 -0.71983275897590
 1 -0.46691425632563  0.40504621022102 -0.24264481778178
 1  3.07921193579358 -1.22511451355135 -1.09888939753975
 1  2.73020427132713 -2.81822652955296 -1.98446088078808
 1  1.58237501680168 -3.88448036563656 -2.85904827132713
 1 -5.46728853505350 -2.08723711281128  2.48044020452045
 1  5.10094040424042  0.10576529302930 -1.33167632063206
 1  6.05809777537754  1.41546585588559 -0.70808210781078
 1 -2.97092518821882  0.04812930913091 -0.61911481708171
 1  0.56244257595760  1.93441462446245 -0.48173764586459
 1 -1.32609820102010 -4.70403250745075 -0.88259906560656
 1 -2.33096672637264 -3.64767246924693 -2.45823514371437
 1 -0.70643059415942 -4.56162433683368 -2.65672927592759
 1 -2.68432219001900 -3.76120226862686  0.68135538253825
 1  0.84244005070507 -4.78180066256626 -0.15368908640864
 1  2.29199838563856 -5.42619532803280 -1.30050456435644
 1  4.57635205620562 -0.89694574567457  0.95377596379638
 1  5.36517071667167  0.54048848544854  1.71322579327933
 1  4.59880740104010  4.83212367976798 -0.56851683438344
 1  5.74925154795480  3.45616833603360  0.21734825802580
 1  4.38270768816882  4.46074158225823  1.13627493139314
 1  1.77581341334133  4.97220715031503  0.55790557745775
 1 -7.82953572517252 -2.46509250375038  1.78613330733073
 1 -7.14731037533753 -4.00595836173617  1.89238160606061
 1 -7.20869905390539 -3.30416818031803  0.16569815901590
 1 -6.93049039073907 -0.60736106740674  0.27089901780178
 1 -5.12997783958396  1.34166836373637 -0.96288013611361
 1 -6.26038786848685  0.52568019631963 -2.25320199869987
 1 -4.79416791229123 -0.17809096289629 -1.99880109280928
 1 -3.68569844914491  6.19287194299430  1.29456716071607
 1 -4.05940361786179  4.31124025622562  1.01599373717372
 1  0.42227679297930  6.59039099899990  1.78436116861686
 1 -1.32264364766477  7.12871956745675  1.68713797019702
 1 -0.20414122652265  7.32091059155916  0.20859719391939
 1 -3.45784608040804  6.43059894299430 -1.11386920302030
 1 -5.13855567866787  6.21321406240624 -0.61737687938794
 1 -4.29486400750075  4.88798029032903 -1.34525426382638
 1  3.26737204370437 -4.30492472267227  2.10242887988799
 1  8.25131237593759 -1.68597925022502  1.78949911251125

