%nproc=4
%Mem=4GB
# td=(NStates=1) B3LYP/SVP 

TD

0 1
 8 -4.63873399419942 -4.74541462266227  1.69643500710071
 8  3.00469106720672 -4.83744829402940  1.44470240204020
 8  7.17060744214421 -1.44785232633263  1.75911613211321
 8  3.79026075887589 -3.21552067726773  0.07706056445645
 8  7.68094684668467 -0.51265264456446 -0.31936150545055
 8 -3.07397772657266  2.51913931143114 -0.17740264486449
 7 -0.29159354105411 -0.56648599839984 -0.62810144634463
 7  1.54943262596260  1.80460283908391 -0.27724938703870
 7 -3.50104704770477 -3.04922396919692  0.53048151945195
 7 -0.81757316021602  2.89986040424042  0.05571054715472
 6  0.60899213161316 -2.52966840514051 -1.29926200930093
 6  0.89225815961596 -1.14496444754475 -0.97962051735174
 6 -0.82025635073507 -2.73434732413241 -1.22259245864586
 6 -1.36132823902390 -1.43076671857186 -0.65415688158816
 6  3.84414235553555  1.35274976027603 -0.28212442884288
 6  2.46613730673067  0.80016134793479 -0.44308586718672
 6  2.14746175047505 -0.44626077187719 -0.82624486948695
 6  3.53552738963896  2.77799580778078 -0.02000277317732
 6  1.69759091159116 -3.53202846864686 -1.72539274027403
 6 -5.58730806600660 -2.49376128572857  1.29491943194319
 6 -3.64323638653865 -1.74457951995200  0.05992977797780
 6  2.19931419161916  2.93440986918692  0.02360488348835
 6 -5.03449964626463 -1.50753625682568  0.31622026092609
 6  5.09746822492249  0.65470514051405 -0.51929498589859
 6 -2.74975593779378 -0.99289606120612 -0.48331874627463
 6 -1.56327426512651 -3.88172267456746 -1.71375461916192
 6 -4.50478794559456 -3.62746125182518  1.22729184378438
 6  2.09992046804680 -4.64634685438544 -0.74295715151515
 6  5.46694657095710 -0.17071313521352  0.65959406550655
 6  4.52273806000600  3.83636486778678  0.24982716651665
 6  1.35043628502850  4.04935934343434  0.24755487498750
 6 -7.00572170277028 -3.17083446324633  1.07860732683268
 6 -5.89937854035404 -0.63123785368537 -0.29444091849185
 6 -0.09102409140914  3.98452312391239  0.27103572917292
 6 -0.94787574927493  5.21901299429943  0.60030465906591
 6 -2.15109043524352  4.71501762456246  0.35651705460546
 6  3.06242908420842 -4.08512513161316  0.32221362036204
 6 -5.37174183498350  0.30396562516252 -1.35355642264226
 6  6.91076364256426 -0.67983626772677  0.65372849544955
 6 -3.52240800010001  5.45771206940694  0.48795961106111
 6 -2.15200863716372  3.19869206050605  0.11470239503950
 6 -0.49187332483248  6.56660052805281  0.85074016381638
 6 -4.19658819571957  5.65795420032003 -0.89322009770977
 1 -0.37411497639764  0.31082678827883 -0.23345389868987
 1  2.84130814541454 -1.22654465656566 -1.02987249584958
 1  2.51451270217022 -2.94933964086409 -2.06698913361336
 1  1.30536731603160 -4.20304222182218 -2.47146951345134
 1 -5.48223002920292 -1.89612800190019  2.24585674617462
 1  5.21932224242424  0.04122883938394 -1.41527468046805
 1  6.08233019861986  1.29718402770277 -0.61836313591359
 1 -2.60274837053705  0.06405090129013 -0.62687559315932
 1  0.64703103480348  1.93425460846085 -0.45799527162716
 1 -1.78007359855986 -4.72137424162416 -1.16215702140214
 1 -2.58299192889289 -3.73305100710071 -2.09698901910191
 1 -1.10861081218122 -4.43943211761176 -2.58741234423442
 1 -2.63926768456846 -3.51369751815182  0.27548479547955
 1  1.29690549724972 -5.42271475397540 -0.23859757725773
 1  2.75496468226823 -5.35169787828783 -1.36470098399840
 1  4.75353977497750 -0.96824287538754  0.98173876007601
 1  5.33639783938394  0.39129356595660  1.71942641334133
 1  4.46396391669167  4.66242671007101 -0.51954193689369
 1  5.43713033583358  3.65124784398440  0.24447097029703
 1  4.48658807620762  4.30787629572957  1.05686699059906
 1  1.80565639763976  5.02327225682568  0.47648743564357
 1 -7.72880565216522 -2.36583257775778  1.42716741074107
 1 -7.24331997629763 -4.18540630653065  2.06843921182118
 1 -7.38695687968797 -3.70404816831683  0.24110569976998
 1 -6.95836317801780 -0.61488181948195  0.03353528142814
 1 -4.73522836463646  1.11816601350135 -0.78944279237924
 1 -6.19914174387439  0.89411704000400 -1.90970764926493
 1 -4.91281977747775 -0.31323447724773 -2.13423463616362
 1 -3.30644052335234  6.41644430023002  0.95323302730273
 1 -4.35590326782678  4.74354348654866  0.87110924872487
 1  0.13870843614361  6.56256821672167  1.85933866636664
 1 -1.16825820912091  7.25825252075207  1.34033328972897
 1  0.16634582218222  7.29326782728273  0.17019335353535
 1 -3.54619491529153  6.26542242534253 -1.57978579467947
 1 -5.10095191829183  6.34747748874887 -0.79502464416442
 1 -4.45035955705570  4.87162865516552 -1.42690242864286
 1  3.74959026552655 -4.51347557775778  2.03590222722272
 1  8.06855410011001 -1.51425207750775  1.67279744234423

