%nproc=4
%Mem=4GB
# td=(NStates=1) B3LYP/SVP 

TD

0 1
 8 -4.64528464926493 -4.89419950115011  1.73389875347535
 8  3.03796439453945 -4.95952050125012  1.15432336413641
 8  7.12057243864386 -1.55338287938794  1.84467468796880
 8  3.80434216701670 -3.11411053625363  0.09571242964296
 8  7.69411816381638 -0.66360774007401 -0.15784535383538
 8 -2.99616994579458  2.53510090759076 -0.12651755635564
 7 -0.29629401110111 -0.53575292509251 -0.48414705090509
 7  1.55358304100410  1.81589396819682 -0.29191085318532
 7 -3.41534847784778 -3.16686573337334  0.67824629592959
 7 -0.74866626952695  2.92570298849885 -0.06031105500550
 6  0.80097132953295 -2.44433987228723 -1.40676275937594
 6  0.96668560236024 -1.08631858295830 -0.86894945024502
 6 -0.66577090219022 -2.66948083748375 -1.24342454185419
 6 -1.25245735193519 -1.48362200410041 -0.68022948884889
 6  3.79996793809381  1.40149463476348 -0.29353556995700
 6  2.48607930093009  0.83417474927493 -0.51251280988099
 6  2.20961796609661 -0.46499264506451 -0.76763900890089
 6  3.64864870177018  2.70458846704670 -0.03950472337234
 6  1.64540569306931 -3.44291955775578 -1.92172237323732
 6 -5.60882021722172 -2.55431734133413  1.43688362836284
 6 -3.62284434733473 -1.93314837683768  0.11808559355936
 6  2.11693595379538  2.97331375957596  0.00807333033303
 6 -5.01040723702370 -1.56166166936694  0.40477911681168
 6  5.08655713381338  0.67500717071707 -0.40951400780078
 6 -2.62549351155115 -1.11836860846085 -0.40555096949695
 6 -1.47477541524152 -3.83506800910091 -1.82125536923692
 6 -4.60628809560956 -3.76694520022002  1.32413152775278
 6  1.98531900790079 -4.47762998269827 -0.84763761956196
 6  5.46307618391839 -0.25864192809281  0.89726783288329
 6  4.54763054925492  3.80481171247125  0.29534171797180
 6  1.27221846324632  4.13044745224522  0.22802292179218
 6 -7.00037116771677 -3.14103148294829  1.18935840194019
 6 -5.83080168266827 -0.54502923282328 -0.07422889728973
 6 -0.13135812481248  4.12315698729873  0.11207983358336
 6 -1.08633959565957  5.29545063806381  0.36282091069107
 6 -2.28143346954695  4.76365248804880  0.15433683658366
 6  2.96003884518452 -4.06136275537554  0.14659605860586
 6 -5.46934159495950  0.45610083868387 -1.13409447644764
 6  6.82983554975498 -0.94355263936394  0.75283840644064
 6 -3.66543230253025  5.44516081428143  0.33007382248225
 6 -2.08675211151115  3.34406659795980 -0.07597667286729
 6 -0.48097223472347  6.61119498749875  0.87181227102710
 6 -4.29322785968597  5.81808021292129 -0.99648042374237
 1 -0.36325389028903  0.22970867646765  0.12487193389339
 1  3.07808182278228 -1.17130913301330 -0.68622813141314
 1  2.64252550345034 -3.12103681058106 -2.38825125982598
 1  1.29301608090809 -4.04218613621362 -2.91808417491749
 1 -5.34547635383538 -2.27017540664066  2.59853201370137
 1  5.09322963316332 -0.04886016951695 -1.13206635963596
 1  5.91220318591859  1.44028833813381 -0.58323962356236
 1 -2.70045814151415  0.03155765196520 -0.56571947754775
 1  0.49882621432143  1.66647783078308 -0.29513898599860
 1 -1.59685527672767 -4.69937204140414 -1.21520232593259
 1 -2.51988561826183 -3.40291799379938 -2.17565688588859
 1 -0.99165911701170 -3.87516569096910 -2.85598920192019
 1 -2.45790954875488 -3.68184433283328  0.44763201020102
 1  1.15773157985799 -4.90513299579958 -0.53319703720372
 1  2.42889207500750 -5.48127083558356 -1.42499701360136
 1  4.67934235523552 -0.99166521762176  0.90547113331333
 1  5.51127532713271  0.42153659025903  1.71835630633063
 1  4.35155267556756  4.69537000440044 -0.15753573627363
 1  5.65606222902290  3.51003372257226  0.07755427862786
 1  4.49000841824182  4.16010151825183  1.39105040894089
 1  1.56237206920692  5.08023795339534  0.75176496339634
 1 -7.75352812441244 -2.28235422992299  1.05931062506251
 1 -7.21643728802880 -3.98502626852685  1.85463783168317
 1 -7.14096228022802 -3.49384714821482  0.08465005420542
 1 -6.68406574827483 -0.43442377367737  0.42367429532953
 1 -4.83106794859486  1.41722591949195 -0.69537338543854
 1 -6.35344717441744  1.05962359065907 -1.52032871137114
 1 -4.74773326882688  0.01900874707471 -2.14028524122412
 1 -3.59463934323432  6.27701035683568  0.97612531653165
 1 -4.55017269476948  4.77476660886089  0.88207034483448
 1 -0.06406184088409  6.74587654755475  1.98657138963896
 1 -1.43844522782278  7.36616331183118  0.52582183858386
 1  0.28591777937794  6.74745324582458  0.20733706790679
 1 -3.70710100590059  6.58417430053005 -1.54748256435644
 1 -5.20285210831083  6.19615235623562 -1.11980712241224
 1 -4.54053857495750  5.08536002830283 -1.65380511891189
 1  3.68101340784078 -4.46521075127513  1.81192982998300
 1  8.05684292899290 -1.90850150245024  1.65618578117812

