%nproc=4
%Mem=4GB
# td=(NStates=1) B3LYP/SVP 

TD

0 1
 8 -4.58855897669767 -4.75073515471547  1.79422478607861
 8  2.68198879697970 -4.63108765796580  1.52158008980898
 8  7.32391277267727 -1.54972251335134  1.65588580908091
 8  3.83515524832483 -3.14550367556756  0.20332319071907
 8  7.76281503350335 -0.51319269856986 -0.28376794609461
 8 -3.10553088188819  2.54639203670367 -0.18386329092909
 7 -0.33137751945195 -0.58252760256026 -0.61200983718372
 7  1.49831751445144  1.72272465126513 -0.33905556765677
 7 -3.38357530053005 -3.14242328912891  0.64845331663166
 7 -0.74195559845985  2.90896131433143 -0.04755977987799
 6  0.58631986438644 -2.45295073337334 -1.36505858895890
 6  0.90132906670667 -1.12238218931893 -0.96493904920492
 6 -0.81024534963496 -2.63881777117712 -1.35056525592559
 6 -1.37693980018002 -1.43480712261226 -0.79272073797380
 6  3.75924386568657  1.33886837213721 -0.35681189758976
 6  2.50908160116012  0.68268960076008 -0.52295385398540
 6  2.18671567586759 -0.57055320112011 -0.77562980798080
 6  3.54421825872587  2.67068507670767  0.03577280438044
 6  1.70383153565357 -3.46731199699970 -1.84512471347135
 6 -5.55843517871787 -2.59471138073807  1.34401434143414
 6 -3.64138620152015 -1.89517457945795  0.14172795779578
 6  2.02383664386439  2.90146657485749  0.01019354235424
 6 -5.11437763406341 -1.60478598179818  0.32970160906091
 6  5.14645312341234  0.73949361936194 -0.32895595199520
 6 -2.65011597379738 -1.00466723832383 -0.36324673907391
 6 -1.54019195689569 -3.86311081338134 -1.88043128682868
 6 -4.51554902170217 -3.63291179687969  1.27630674527453
 6  1.98812928892889 -4.52376459615962 -0.76272912871287
 6  5.67769764606461 -0.05198126202620  0.65686379247925
 6  4.51347713391339  3.78473970527053  0.36290847464746
 6  1.31427266866687  3.98436284378438  0.30188030753075
 6 -6.99666079667967 -3.24975235503550  1.07428689478948
 6 -5.78429703220322 -0.54984971487149 -0.27470894529453
 6 -0.07474246324632  3.99580425202520  0.20607923352335
 6 -0.95193615531553  5.19299039203920  0.55228985758576
 6 -2.21270659685969  4.70464658745875  0.37924932783278
 6  2.90120296159616 -3.97939455855586  0.31405280428043
 6 -5.48157281808181  0.46657188578858 -1.39133020002000
 6  7.02893545974597 -0.68841712581258  0.64270739333933
 6 -3.44673043234323  5.45129142734273  0.49991080618062
 6 -2.13141657795780  3.21689388068807 -0.04774384958496
 6 -0.57143128062806  6.57632150015002  0.81594668446845
 6 -4.10833937083708  5.71970037493749 -0.83534431013101
 1 -0.63674123902390  0.47201290689069 -0.37950850415041
 1  3.07536155075508 -1.13946594869487 -0.94109361796180
 1  2.56559781068107 -2.89281398829883 -2.28538097279728
 1  1.25303208250825 -4.20210212781278 -2.65444781128113
 1 -5.42180398659866 -2.19394778387839  2.28517067756776
 1  5.07281759195920  0.04530924742474 -1.13306645964596
 1  5.68846081168117  1.49213352265227 -0.74761606120612
 1 -2.99274737043704 -0.17012251605161 -0.46389929552955
 1  0.49498583028303  1.64995617861786 -0.24544401650165
 1 -1.68437402860286 -4.59169127332733 -1.10371117681768
 1 -2.63829745944594 -3.55251295329533 -2.13790311051105
 1 -0.90995094619462 -4.28672684708471 -2.73354695769577
 1 -2.57654141194119 -3.76744289268927  0.64415166216622
 1  1.14894070077008 -4.94320680318032 -0.17004072157216
 1  2.45253443924392 -5.41907461596160 -1.16335084898490
 1  4.96299072007201 -0.92605865696570  0.92172275847585
 1  5.29870407000700  0.47172160876088  1.58314278497850
 1  4.22822034233423  4.70610107750775 -0.04748473117312
 1  5.62769939273927  3.48300101930193  0.12877940114011
 1  4.48287770517052  3.98917442554255  1.60875217911791
 1  1.59981581358136  4.95426535613561  0.60466025292529
 1 -7.57129990159016 -2.30882687718772  0.89118381238124
 1 -7.25597124142414 -3.93750151605161  1.94551691959196
 1 -7.08882706670667 -3.75718348184818  0.13552514171417
 1 -6.94658199989999 -0.41021135243524  0.20531245914592
 1 -4.62386722852285  1.13591778867887 -0.83599744784478
 1 -6.26747857755776  0.99740736903690 -1.85951262976298
 1 -4.75510400590059 -0.06211936573657 -2.16554776747675
 1 -3.20782066136614  6.28811146694669  1.27442514651465
 1 -4.27675535303530  4.70306943914391  0.98266040384038
 1  0.38200276557656  6.61655361526153  1.54463719621962
 1 -1.45655703900390  6.96036273177318  1.22636189258926
 1 -0.06592740514051  7.40309881038104 -0.12239590539054
 1 -3.59223951975197  6.28075395849585 -1.55578339443944
 1 -5.04127595069507  6.36461920292029 -0.72597773947395
 1 -4.45267978907891  4.71827331963196 -1.33891362976298
 1  3.26917222372237 -4.48325255545555  2.20822945994599
 1  8.12189943464347 -2.06522717501750  1.63818398099810

