%nproc=4
%Mem=4GB
# td=(NStates=1) B3LYP/SVP 

TD

0 1
 8 -4.56269639043904 -4.72377245844584  1.89461482508251
 8  2.76562716081608 -4.72565711491149  1.26798473027303
 8  7.14626500790079 -1.41665920702070  1.94624484498450
 8  3.63099483228323 -3.01127025222522  0.12466532493249
 8  7.75174392639264 -0.72817419671967 -0.17256682598260
 8 -2.97204753355336  2.37824522202220 -0.30133503810381
 7 -0.36054043574357 -0.50016936673667 -0.67565620182018
 7  1.59629731243124  1.81215359415942 -0.41140280238024
 7 -3.46153309630963 -3.22691173797380  0.51999047034703
 7 -0.65149655255526  2.78224864306431 -0.15185020892089
 6  0.55742697509751 -2.51460689898990 -1.36280836393639
 6  0.86665559935994 -1.06582653375338 -0.96272882818282
 6 -0.83669799489949 -2.66854074347435 -1.23760395979598
 6 -1.35477758395840 -1.39019266116612 -0.77843930983098
 6  3.87833577487749  1.44614910021002 -0.35443165956596
 6  2.51995268826883  0.80310164196420 -0.61099265786579
 6  2.14860186448645 -0.49893603940394 -0.91964420942094
 6  3.69372320922092  2.78615662386239 -0.03519429232923
 6  1.56642779527953 -3.47452271807181 -1.85990619161916
 6 -5.54651398659866 -2.61538344794479  1.33794373437344
 6 -3.67826988988899 -1.87646270827083  0.04596838183818
 6  2.21651591179118  3.00432686088609 -0.01725920292029
 6 -5.12155835213521 -1.62990849404941  0.34365300420042
 6  5.20576905500550  0.76087575757576 -0.42426548294830
 6 -2.66802776497650 -1.01591836343634 -0.39959037343734
 6 -1.50227816551655 -3.89079358165817 -1.79714295799580
 6 -4.53424089088909 -3.77385589128913  1.32039115371537
 6  1.98936941294129 -4.51784400410041 -0.87314016981698
 6  5.52203207950795 -0.02381844574457  0.79214732083208
 6  4.67053283948395  3.83893512481248  0.43619580338034
 6  1.37404864626463  4.15120952845285  0.38472859235924
 6 -7.02036316691669 -3.02681006080608  1.37648711481148
 6 -5.80099870237024 -0.56034076397640 -0.18116959135914
 6 -0.02888787778778  4.01690636223622  0.23232185778578
 6 -0.99511047274727  5.07906899989999  0.54090871947195
 6 -2.25695102130213  4.63359948274827  0.39864126702670
 6  2.92414525582558 -3.97008362746275  0.22304370337034
 6 -5.40070473127313  0.27288251685169 -1.37781884888489
 6  6.87957052325233 -0.75798408250825  0.67726084868487
 6 -3.52825858515852  5.31756805500550  0.47085790089009
 6 -2.04575801210121  3.13551574287429 -0.05059413461346
 6 -0.62959709720972  6.44220808880888  0.86116120592059
 6 -4.16040457735774  5.81529993489349 -0.87250802650265
 1 -0.44622218711871  0.61212691829183 -0.44169472277228
 1  2.98122213681368 -1.10642264436444 -1.09021853045305
 1  2.49644089498950 -3.09900460736074 -2.38897133183318
 1  1.27126390569057 -4.12208412601260 -2.66690905740574
 1 -5.45457726392639 -1.99991838093809  2.29590175067507
 1  5.34744505470547  0.09011372787279 -1.29648280128013
 1  6.11046301190119  1.45711002030203 -0.51017231683168
 1 -2.96182427812781  0.14628912511251 -0.41830473607361
 1  0.56351268296830  1.92913409640964 -0.57620709280928
 1 -1.48946453765377 -4.67922002620262 -1.09620042574257
 1 -2.46852048174817 -3.74651235323532 -1.77152647284728
 1 -1.24741469256926 -4.33053122752275 -2.76034963796380
 1 -2.46253001080108 -3.53055920432043  0.65144239123912
 1  1.08920472717272 -4.92176465896590 -0.44165788328833
 1  2.42448163396340 -5.41724443294329 -1.39509402330233
 1  4.84975939693969 -0.75257130823082  0.89488007420742
 1  5.40700490009001  0.51734617121712  1.64963943464346
 1  4.28111563186319  4.60309077647765 -0.30423040574057
 1  5.70504712751275  3.54866758595860  0.45506202940294
 1  4.32191160856086  4.21377688578858  1.53620492439244
 1  1.86278211021102  4.93576350595059  1.03715350225023
 1 -7.64942771437144 -2.28735472997300  1.59355404940494
 1 -7.12429807410741 -3.78366613251325  2.12908527642764
 1 -7.41828001200120 -3.63390115361536  0.49243083228323
 1 -6.98017535923592 -0.52656298759876  0.03136506440644
 1 -4.79301414321432  1.12731692859286 -1.05218906700670
 1 -6.19769159885989  0.72225985428543 -1.68963564206421
 1 -4.83593208870887 -0.31921507530753 -2.20517172987299
 1 -3.47720760006001  6.14109676547655  1.25773347734774
 1 -4.33071074857486  4.73200233243324  0.86262840064006
 1  0.22996756205621  6.36651861176118  1.57263999649965
 1 -1.48797018031803  7.03950064556456  1.34675393179318
 1 -0.13311412381238  6.90775927642764  0.00070640484048
 1 -3.57288758455846  6.75101098419842 -1.21638945504550
 1 -5.11132295539554  6.11831457245725 -0.47667280898090
 1 -4.37472199329933  4.98207970027003 -1.65601533993399
 1  3.28892419891989 -4.27260149034903  1.92258089508951
 1  8.08123536823682 -1.79583023532353  1.93933409600960

