%nproc=4
%Mem=4GB
# td=(NStates=1) B3LYP/SVP 

TD

0 1
 8 -4.32531265206521 -4.88001808300830  1.97954331793179
 8  2.68879947804781 -4.69625417461746  1.33501143294329
 8  7.15054543594359 -1.54462200330033  1.91061128162816
 8  3.53388512131213 -3.08222734793479  0.10535339373937
 8  7.71047979998000 -0.73225460476048 -0.16240580988099
 8 -3.08519884868487  2.59026642414241 -0.24890979557956
 7 -0.29180356205621 -0.60381973177318 -0.63797243344334
 7  1.56848453115312  1.87479985878588 -0.35738740084008
 7 -3.41571851485149 -3.15964501130113  0.79365783708371
 7 -0.77571897479748  3.01762218041804 -0.09007403130313
 6  0.70290152255226 -2.49823526182618 -1.41094317741774
 6  0.96306524032403 -1.10916086718672 -1.03173572887289
 6 -0.71186551165117 -2.72588647804780 -1.32939313871387
 6 -1.21499360556056 -1.55037867976798 -0.75406687258726
 6  3.77555549684969  1.46995148044804 -0.36045226162616
 6  2.49447014001400  0.72985431723172 -0.63278483708371
 6  2.22281928622862 -0.49524567036704 -0.94775702070207
 6  3.51566540344034  2.80203821202120 -0.03154392729273
 6  1.63586473897390 -3.50133539933993 -2.00058025902590
 6 -5.56452578777878 -2.75066697629763  1.28911885188519
 6 -3.59002106500650 -1.93746880888089  0.18199198419842
 6  2.11060532073207  2.95905233343334  0.04685720872087
 6 -5.07395359165917 -1.70172567576758  0.26752539143914
 6  4.99584806290629  0.69871954195420 -0.42170522692269
 6 -2.61740270247025 -1.17663443504350 -0.38307872227223
 6 -1.47575551325133 -3.92533703600360 -1.68796203990399
 6 -4.50623809060906 -3.77102560826083  1.35824493909391
 6  1.98265874187419 -4.63594581428143 -0.96569942574257
 6  5.51577145344534 -0.03800986488649  0.88235634173417
 6  4.55019080528053  3.80101133243324  0.26750893469347
 6  1.32019326072607  4.11616602410241  0.30016013551355
 6 -6.99441057165717 -3.20496787658766  1.10161962806281
 6 -5.83835243774377 -0.71663639353935 -0.23753522792279
 6  0.01159617061706  4.05910058165817  0.25060368596860
 6 -0.95635659735974  5.26695778877888  0.53731836043604
 6 -2.20738606480648  4.84470059285929  0.38476987988799
 6  2.79471231253125 -4.02015863496350  0.19690108910891
 6 -5.49887454825483  0.31695692429243 -1.25955702270227
 6  6.93249581578158 -0.77953623772377  0.75470859345935
 6 -3.51014677397740  5.54821111931193  0.38931974707471
 6 -2.12669610591059  3.28830102140214  0.04706563136314
 6 -0.52026616411641  6.65197906590659  0.95879096889689
 6 -4.07537607450745  6.04368277317732 -1.01831260696070
 1 -0.51130869576958  0.26047175277528 -0.29425997929793
 1  2.97626164076408 -1.31738374047405 -0.95669517811781
 1  2.52040329122912 -3.19110381728173 -2.70859329402940
 1  1.10402718201820 -3.97258917651765 -2.89841220772077
 1 -5.29660146634663 -2.01080947004700  2.26616877737774
 1  5.07284759495950  0.12680739723972 -1.43184633763376
 1  5.83027499309931  1.48261257055706 -0.38965026462646
 1 -3.03471156685669 -0.13984948874888 -0.61956486208621
 1  0.68255458715872  1.83176435943594 -0.60516998909891
 1 -1.47308289948995 -4.77500960516052 -0.97720852655265
 1 -2.60560419011901 -3.38761646364636 -2.04089340954095
 1 -1.11216116721672 -4.38901707610761 -2.59734333733373
 1 -2.59752351015101 -3.74523067146715  0.63105035203520
 1  0.83678948564856 -5.24613709620962 -0.64698841634163
 1  2.71503068886889 -5.33389609810981 -1.41599611351135
 1  4.82451687268727 -0.83727977907791  0.96064665086509
 1  5.37037123672367  0.71515595219522  1.70492496319632
 1  4.62527004730473  4.47753822122212 -0.48800878357836
 1  5.65817244004401  3.43340605980598  0.29988651185119
 1  4.40682009940994  4.19293480158016  1.35273657755776
 1  1.70331616361636  5.02152208180818  0.54848463536354
 1 -7.84301707330733 -2.41860785528553  1.47113180718072
 1 -7.41232687698770 -4.27333509940994  1.62202457035704
 1 -7.28960714471447 -3.60375813931393 -0.05231364216422
 1 -7.01326866856686 -0.73917424872487 -0.09356742884288
 1 -4.69297413921392  1.01563576047605 -0.76740058815882
 1 -6.38704053375337  0.77814544284428 -1.57331400990099
 1 -4.88705720122012 -0.17846099989999 -2.03645485818582
 1 -3.49168904820482  6.47035969176918  1.20747845184518
 1 -4.20191786928693  4.78542767496750  0.76406854465447
 1  0.10024458975898  6.64869682958296  1.98791152365237
 1 -1.40807219051905  7.57369406490649  0.86376563296330
 1  0.29416860446045  7.20384888538854  0.37551388558856
 1 -3.30717101290129  6.79210509360936 -1.34362217831783
 1 -4.99918174127413  6.67169991099110 -0.68526366806681
 1 -3.92026654775477  5.12386387868787 -1.74373411181118
 1  3.33892919941994 -4.22975720592059  2.06781541854185
 1  7.88690593529353 -2.14393504580458  1.60978114071407

