%nproc=4
%Mem=4GB
# td=(NStates=1) B3LYP/SVP 

TD

0 1
 8 -4.41047116791679 -4.66039612081208  1.89482484608461
 8  2.83064366246625 -4.96504105330533  1.28369630143014
 8  7.03877425882588 -1.58516605770577  1.91337155765577
 8  3.87903963676368 -3.35362448764876 -0.05212235383538
 8  7.65510426242624 -0.55655703500350  0.04205463616362
 8 -3.07718804760476  2.49101649914991 -0.35822072667267
 7 -0.33321770347035 -0.56098544834483 -0.63396203240324
 7  1.58949663236324  1.76897927672767 -0.26474813691369
 7 -3.33807075007501 -3.05485453225323  0.61706017731773
 7 -0.77846924982498  3.00751116931693 -0.09765478937894
 6  0.70152138453845 -2.46368180648065 -1.35540762386239
 6  0.84666360016002 -1.14810476157616 -0.95988854415442
 6 -0.71683600870087 -2.59007289668967 -1.32074227362736
 6 -1.29368147434743 -1.43945758765877 -0.81285275117512
 6  3.82263020432043  1.42777726302630 -0.38145436183618
 6  2.50092078507851  0.76612794459446 -0.64573613221322
 6  2.23205020932093 -0.54099024482448 -0.89763200820082
 6  3.61995583248325  2.72752076027603  0.02184141124112
 6  1.71984313681368 -3.36089135493549 -1.96765696669667
 6 -5.52560189538954 -2.59606151575158  1.36034597459746
 6 -3.67165922882288 -1.75234029602960  0.04294807980798
 6  2.18619287948795  2.96165259345935  0.07863038603860
 6 -5.12874907120712 -1.51722722592259  0.41685032393239
 6  5.03496197429743  0.60016968696870 -0.40273332973297
 6 -2.69756071827183 -1.03212998459846 -0.43819423382338
 6 -1.48480641834183 -3.81328583088309 -1.78826206990699
 6 -4.34607207400740 -3.57056556225623  1.39215833043304
 6  2.04158463446345 -4.58635085478548 -0.93783663946395
 6  5.42410228652865 -0.15991205510551  0.81635974207421
 6  4.71701748794880  3.81603283458346  0.26570875467547
 6  1.35853709510951  4.11335574307431  0.33001312081208
 6 -6.95591672227223 -3.19549692949295  1.28097756385639
 6 -5.87485608810881 -0.62205693559356 -0.19513098749875
 6 -0.11919690869087  4.06875154675468  0.19698832443244
 6 -0.96500746244624  5.18762985598560  0.47516214481448
 6 -2.23247857405741  4.75234135693569  0.39596099899990
 6  2.90999384068407 -4.16972359145915  0.12664406340634
 6 -5.45521018181818  0.40058528712871 -1.25810687768777
 6  6.80989355555556 -0.78033631773177  0.82957608020802
 6 -3.64031979127913  5.36017231543154  0.46388720382038
 6 -2.12119555585559  3.28273046434643 -0.04799387458746
 6 -0.62347648514851  6.70814468246825  0.76807189698970
 6 -4.35855439233923  5.57006541144114 -0.78764954065407
 1 -0.45656322122212  0.36513221882188 -0.05669622292229
 1  3.15520953555356 -1.29949195129513 -1.10931043964396
 1  2.58690994189419 -2.93120782768277 -2.22725516021602
 1  1.38232501180118 -3.86930884848485 -2.87463983048305
 1 -5.59261106730673 -2.03199158825882  2.37804996549655
 1  4.82192250245025 -0.16583186668667 -1.23579673267327
 1  5.87033899949995  1.18221253055306 -0.80488178777878
 1 -2.81249934563456  0.06076057225723 -0.68426133173317
 1  0.56026235793579  1.91885306830683 -0.48020749284928
 1 -1.05844143534353 -4.74044614881488 -1.14334514021402
 1 -2.50265389508951 -3.72763046504650 -1.86415573577358
 1 -1.10133008410841 -4.25895406980698 -2.71007461046105
 1 -2.29839359715972 -3.38665481388139  0.77376462346235
 1  0.99755556225623 -4.91248373087309 -0.52796651415141
 1  2.44005319111911 -5.43999670817082 -1.57561207510751
 1  4.64342876387639 -0.98594464556456  1.25723630983098
 1  5.46100029962996  0.45483992059206  1.86298076877688
 1  4.76070359065907  4.44114458185819 -0.63064304700470
 1  5.63767038983898  3.30566328552855  0.41517804100410
 1  4.44699411681168  4.57162267036704  1.17015831973197
 1  1.84091992399240  5.19599952955295  0.26808659555956
 1 -7.60473324492449 -2.44699069356936  1.77160185418542
 1 -6.98802444674467 -4.29722748864886  1.71680404830483
 1 -7.16919510351035 -3.30613837733773  0.09746133533353
 1 -6.87329467116712 -0.57230756205621  0.20959288718872
 1 -5.11299614141414  1.42055625252525 -0.73958780688069
 1 -6.37431926162616  0.61127875617562 -1.87121379987999
 1 -4.50129862536254  0.05393223942394 -1.93824503720372
 1 -3.51944182348235  6.29116177197720  0.95185288928893
 1 -4.21031870937094  4.72537166936694  1.00641277907791
 1  0.10475504080408  6.84550651055106  1.53798653115312
 1 -1.43535491879188  7.30202689818982  1.06320557695770
 1 -0.36737755015502  7.21851035153515 -0.20717438323832
 1 -3.65198549434943  6.23697958105811 -1.36290410651065
 1 -5.27886971007101  6.37980072107211 -0.84980012171217
 1 -4.59471399249925  4.62259375167517 -1.37928766716672
 1  3.37172247874787 -4.61964619481948  1.93508214521452
 1  7.96462370707071 -1.74403505580558  2.01187134973497

