%nproc=4
%Mem=4GB
# td=(NStates=1) B3LYP/SVP 

TD

0 1
 8 -4.60092021282128 -4.82198227942794  1.90705606920692
 8  3.05842644074407 -4.91074562376238  1.19086701850185
 8  6.80765114651465 -1.73419096019602  1.92131235173517
 8  3.84239597239724 -3.11308043324332 -0.04594173577358
 8  7.78251700370037 -0.53688506780678  0.11236166686669
 8 -2.97634796359636  2.49385678317832 -0.24983988858886
 7 -0.29421380308031 -0.55793514331433 -0.64001263746375
 7  1.56257394009401  1.84363674247425 -0.51198286038604
 7 -3.48534547754775 -3.15680472727273  0.69712818411841
 7 -0.72394379727973  3.04310472867287 -0.15953097699770
 6  0.70428166056606 -2.50085552385239 -1.36777886098610
 6  0.95456439023902 -1.09204915601560 -1.05978853415342
 6 -0.67421174627463 -2.71684557395740 -1.30759095849585
 6 -1.24920702690269 -1.51152479437944 -0.68160962686269
 6  3.73931187248725  1.40485497079708 -0.36241245764576
 6  2.51252194519452  0.87209854165417 -0.63371493009301
 6  2.24388139243924 -0.50424657045705 -0.83979622462246
 6  3.53824766166617  2.76781478967897 -0.03924469736974
 6  1.63893504600460 -3.43125839163916 -1.98133833483348
 6 -5.65696503170317 -2.59530143974397  1.39666960696070
 6 -3.61813387628763 -1.90894595659566  0.16970075507551
 6  2.07877213741374  2.93164959315932 -0.10235771277128
 6 -5.11317751405140 -1.54995049824983  0.47075571447145
 6  5.11751022912291  0.67873754375438 -0.36483954035404
 6 -2.69593055525553 -1.11837860946095 -0.37469788418842
 6 -1.45228316601660 -4.01243574587459 -1.79227247094709
 6 -4.54943241004100 -3.73210171587159  1.38151726632663
 6  2.02708318431843 -4.49469168886889 -1.03773662946295
 6  5.34837471377138 -0.15234129802980  0.88046615271527
 6  4.62297808400840  3.81158238953895  0.26626881068107
 6  1.35457669906991  4.16723113061306  0.27770789028903
 6 -7.01266239683968 -3.22751013081308  1.18979844594459
 6 -5.85513411591159 -0.56513124302430 -0.18595006940694
 6 -0.04958994799480  4.14737940954095  0.16939556515652
 6 -0.91466242794279  5.25759685268527  0.45098972757276
 6 -2.17841316751675  4.82538866166617  0.32778418131813
 6  3.04900774207421 -4.10682730183018  0.07697909690969
 6 -5.41932659345935  0.45243047164716 -1.19533060006001
 6  6.78994156035604 -0.71075936003600  0.89596271887189
 6 -3.49338509780978  5.36987328552855  0.43437425252525
 6 -2.12130556685669  3.31503369466947  0.00967189198920
 6 -0.52328646614661  6.67247111511151  0.76849193899390
 6 -4.28021655855586  5.80629903480348 -0.82718349404940
 1 -0.36726429132913  0.12965867146715  0.10799024572457
 1  3.00810482508251 -1.37744974707471 -0.95875538413841
 1  2.62920417131713 -3.15844055095510 -2.16002843754375
 1  1.10678745804580 -4.20585250285029 -2.67846021252125
 1 -5.56778858505851 -2.44159254835484  2.43259542004200
 1  5.09659997019702  0.20946566306631 -1.36660981398140
 1  5.96452841844185  1.23514782408241 -0.51970326992699
 1 -3.13125122082208 -0.01273677747775 -0.67554045964596
 1  0.52892922462246  1.71048223122312 -0.47234670677068
 1 -1.58283387458746 -4.66000810501050 -0.92993379907991
 1 -2.40778440814081 -3.58295599759976 -2.25205452565257
 1 -0.80027997909791 -4.43819199359936 -2.40915451845185
 1 -2.57489124692469 -3.60098624702470  0.69967721472147
 1  1.36120192689269 -4.89642212471247 -0.24478819631963
 1  2.59686887268727 -5.37098980748075 -1.50745525942594
 1  4.63873829482948 -1.17419347044704  0.87768835503550
 1  5.35043924352435  0.49151358795879  1.72507697839784
 1  4.37029454975498  4.68627909530953 -0.26300628332833
 1  5.65972259505951  3.39387210641064  0.21200772397240
 1  4.72551196859686  3.99182469056906  1.50445174907491
 1  2.01580741274127  5.06566649624962  0.61039082598260
 1 -7.73040581218122 -2.39271526602660  1.42911760576058
 1 -7.20975661996200 -4.05842360826083  2.04687705560556
 1 -7.18075625962596 -3.72361012451245  0.22197378657866
 1 -6.82081942364236 -0.40064039533953  0.22494442234223
 1 -4.89976481828183  1.17961215811581 -0.51796564466447
 1 -6.55509733943394  0.72886051435144 -1.80901758025803
 1 -4.77933642914291 -0.02218537233723 -1.93467468016802
 1 -3.51288116741674  6.42850550635064  0.98205590959096
 1 -4.21808948644864  4.59588872107211  0.76459859765977
 1 -0.06608204290429  6.65757771767177  1.79426215871587
 1 -1.39881126442644  7.34193088858886  0.97738699509951
 1 -0.04670548294829  7.19359786028603 -0.06981064686469
 1 -3.85091538733873  6.72109799289929 -1.41200901700170
 1 -5.35322714581458  6.24195693669367 -0.53185832753275
 1 -4.35116963806380  4.89002049434943 -1.54546428482848
 1  3.60303561006101 -4.53084731493149  1.76163480048005
 1  7.80394763946395 -2.10336098839884  1.98458862146215

