%nproc=4
%Mem=4GB
# td=(NStates=1) B3LYP/SVP 

TD

0 1
 8 -4.64473459425943 -4.79096917811781  1.84482984658466
 8  3.02450304840484 -4.74714926412641  1.21709964176418
 8  6.92655303670367 -1.56513405450545  1.95178539903990
 8  3.91377311011101 -3.10206933213321  0.01949480788079
 8  7.55379413141314 -0.55612699199920  0.10803123382338
 8 -3.05484581338134  2.50238763626363 -0.15634053865387
 7 -0.28103248494850 -0.61465081488149 -0.57688632483248
 7  1.49870755345535  1.80082246104610 -0.40442210431043
 7 -3.51709865286529 -3.16914596139614  0.71235970727073
 7 -0.77036843974397  2.92755317351735 -0.22034705860586
 6  0.67942917531753 -2.42868830713071 -1.52931501460146
 6  0.92047098089809 -1.09409936103610 -1.02275483078308
 6 -0.76021034613461 -2.63860775017502 -1.22394259365937
 6 -1.27820992719272 -1.50062370427043 -0.73461492739274
 6  3.82769071037104  1.46972145744574 -0.45635185158516
 6  2.49696038903890  0.77465879767977 -0.62799435803580
 6  2.21629863416342 -0.51619776557656 -0.99076132113211
 6  3.57422125902590  2.77588559675968 -0.02209298219822
 6  1.68466961946195 -3.44620988678868 -2.00894109510951
 6 -5.59911924712471 -2.57625953555356  1.40912085208521
 6 -3.60852291519152 -1.80841590359036  0.24869865486549
 6  2.05628988918892  2.95731215941594 -0.16317379437944
 6 -4.98739493579358 -1.44987049024902  0.51666030493049
 6  5.08346682478248  0.65084475447545 -0.39387244364436
 6 -2.68729969216922 -1.11248802040204 -0.40533094749475
 6 -1.52097003470347 -3.92394689698970 -1.75184842854285
 6 -4.55085255205521 -3.67105561126113  1.42398151275128
 6  2.11312178817882 -4.54787700740074 -0.99552240804080
 6  5.24723459975998 -0.18490455435544  0.92632073817382
 6  4.63208899509951  3.69670090139014  0.31262344614461
 6  1.40116135753575  4.16945135263526  0.20345046454645
 6 -6.93140427102710 -3.07408478827883  1.09959942604260
 6 -5.72161076357636 -0.46041077097710 -0.14135560996100
 6 -0.05098008700870  4.09221389298930  0.06552517811781
 6 -0.94787574927493  5.22235332833283  0.49882451105110
 6 -2.18045337153715  4.75929205200520  0.33533493639364
 6  3.10459330063006 -4.04978159725973  0.08151955095510
 6 -5.34189885068507  0.50909613821382 -1.16824789178918
 6  6.62923548974898 -0.70496878097810  0.94344746734673
 6 -3.56059181848185  5.32352865106511  0.48932974807481
 6 -2.08842227852785  3.27477966926693 -0.02398147334733
 6 -0.42601673917392  6.55647951595160  0.87267235703570
 6 -4.31232976987699  5.46638504340434 -0.86324710041004
 1 -0.56161372627263  0.24180988658866 -0.08184873817382
 1  2.94297831243124 -1.13188519061906 -1.20306981558156
 1  2.55807705860586 -2.79406411331133 -2.14780721542154
 1  1.37701448074808 -3.98270018761876 -3.02103446994699
 1 -5.46853866006601 -2.32418080718072  2.27636979747975
 1  5.17927823802380 -0.05162044554455 -1.21116426942694
 1  6.00289225482548  1.18490279957996 -0.28399969956996
 1 -2.98587668336834 -0.18202370617062 -0.77382028762876
 1  0.36129246094609  1.75722690569057 -0.73019249134914
 1 -1.69451504270427 -4.65338744294429 -0.94661546724672
 1 -2.45890952065206 -3.67982568456846 -2.45433475367537
 1 -0.72554250535053 -4.48094626902690 -2.55063866686669
 1 -2.57856161396140 -3.58463461186119  0.49493674067407
 1  1.36544235093509 -5.05871835433543 -0.40098381588159
 1  2.80682986878688 -5.37191990049005 -1.41348586248625
 1  4.41225564656466 -0.84825087618762  0.96532711891189
 1  5.39200339993999  0.39720415701570  1.80255472617262
 1  4.99948746904690  4.49894036143614 -0.57870785348535
 1  5.65847247004700  3.15652837203720  0.49621614481448
 1  4.38820823822382  4.21329683778378  1.13496480038004
 1  2.02504833683368  4.88956888648865  0.62443223012301
 1 -7.67773054465447 -2.32239823432343  1.39975466946695
 1 -7.15421106540654 -4.01458922482248  1.55464783268327
 1 -7.27277546154615 -3.32889065256526 -0.12667107790779
 1 -6.86548389008901 -0.51450178147815  0.31834376227623
 1 -4.60813565536554  1.42798699559956 -0.87348119621962
 1 -6.35972780248025  0.84928255655566 -1.48446512501250
 1 -4.93895239073907 -0.09462261606161 -1.99435064776478
 1 -3.41348122742274  6.28739139493949  1.11869957395740
 1 -4.21921959945995  4.50894002620262  0.93166530433043
 1  0.22356692199220  6.26912887278728  1.72538527102710
 1 -1.18142952625263  7.47745444094409  1.20908016441644
 1  0.33961314891489  6.91117961846185  0.00301663586359
 1 -3.86269656545655  6.05317120022002 -1.54490230633063
 1 -5.29508133123312  5.91425416641664 -0.63059820152015
 1 -4.69785430653065  4.42391388368837 -1.22428216661666
 1  3.98148345484549 -4.51237546774678  1.72015065206521
 1  7.88520576527653 -1.94677532983298  1.73530369296930

