%nproc=4
%Mem=4GB
# td=(NStates=1) B3LYP/SVP 

TD

0 1
 8 -4.51242136293629 -4.73377345854585  1.90472583618362
 8  2.84718531663166 -4.80970551975197  1.35732366416642
 8  7.30040042144214 -1.40718825992599  1.72757297779778
 8  3.72497423022302 -3.11255038023802  0.14188704710471
 8  7.59452820482048 -0.61747312661266 -0.42199176847685
 8 -2.95461579037904  2.67211460896090 -0.38885378997900
 7 -0.30421480318032 -0.60020937073707 -0.56829546574657
 7  1.56315399809981  1.86249862866287 -0.30363202530253
 7 -3.49445638863886 -3.17629667646765  0.62461093239324
 7 -0.75309671257126  2.95673609180918 -0.12301732563256
 6  0.56351758415842 -2.44907034533453 -1.30734281738174
 6  0.91312024582458 -1.14768471957196 -0.88657121242124
 6 -0.81870619571957 -2.68224211361136 -1.20473067246725
 6 -1.38361046724672 -1.47420106200620 -0.69779124502450
 6  3.77143508480848  1.46124060936094 -0.22597881428143
 6  2.38120881388139  0.80484181598160 -0.50771232983298
 6  2.10326733103310 -0.55746189198920 -0.75090733573357
 6  3.55571940884088  2.70916892509251  0.05080430753075
 6  1.57425857835784 -3.43466873267327 -1.86752695369537
 6 -5.65564489968997 -2.63943585318532  1.23376331633163
 6 -3.71643370627063 -1.91008607060706  0.08466225122512
 6  2.17001126132613  2.97202363056306  0.09093161616162
 6 -5.11736793309331 -1.64234973817382  0.29678831773177
 6  5.08386686478648  0.71949161916192 -0.38935199159916
 6 -2.65231619381938 -1.14381115271527 -0.44401481588159
 6 -1.51499943764376 -3.87099160146015 -1.67449069276928
 6 -4.54818228502850 -3.70137864356436  1.33935304990499
 6  2.08072854885489 -4.55988820852085 -0.95507836363636
 6  5.50094997129713 -0.15299136303630  0.86517462356236
 6  4.60140592679268  3.67725895719572  0.47902008580858
 6  1.37764900630063  4.09703411091109  0.34327444694469
 6 -7.02038316891689 -3.25004238403840  1.11825129122912
 6 -5.86808541104110 -0.69875460536054 -0.29214068846885
 6 -0.02260724972497  4.05627029862986  0.17890651625162
 6 -0.89537049874987  5.15710680368037  0.49867449604961
 6 -2.18009333553355  4.75776189898990  0.21598300120012
 6  2.93033587488749 -4.07224384348435  0.20173157215722
 6 -5.35126978777878  0.38470369896990 -1.26808787578758
 6  6.92326489268927 -0.66526481058106  0.64882800540054
 6 -3.49889564886489  5.38740503870387  0.52872368746875
 6 -2.07011044734473  3.35867805910591 -0.12277135233523
 6 -0.48082221972197  6.56752062006201  0.75885097489749
 6 -4.25441397829783  5.72047045194519 -0.80942171787179
 1 -0.30728829372937  0.24286999259926 -0.15901645494549
 1  3.06833084768477 -1.04288629072907 -1.05567507610761
 1  2.44793604450445 -2.84182888978898 -1.97814024872487
 1  1.28331511081108 -3.82219413701370 -2.86613898039804
 1 -5.56380818701870 -1.99941833093309  2.09619177967797
 1  4.76439674987499 -0.08355363886389 -1.18176132913291
 1  5.91984394999500  1.53463777307731 -0.62837413701370
 1 -2.87679577527753 -0.04414991879188 -0.57312021762176
 1  0.44779111081108  1.83341452445245 -0.40457993009301
 1 -1.38192378357836 -4.72229433363336 -0.88614942064206
 1 -2.59849347904790 -3.58441614361436 -1.77050637083708
 1 -1.03414336543654 -4.17011518591859 -2.51104470747075
 1 -2.37960171797180 -3.37682383078308  0.94021126812681
 1  1.22423823052305 -5.08409089158916 -0.59424314181418
 1  2.53823300910091 -5.14285699419942 -1.53369788368837
 1  4.62442686368637 -0.94994104520452  1.07945853205321
 1  5.56232043164316  0.47030146674667  1.67089155985599
 1  4.60874839513951  4.66847731513151 -0.03709369206921
 1  5.54675129792979  3.28413113231323  0.14702122532253
 1  4.56588600600060  3.88439394749475  1.56897820172017
 1  1.82695852785278  4.96528645824582  0.63712349924993
 1 -7.79487225882588 -2.35359135363536  1.12353704770477
 1 -7.15813145744574 -4.11832959885989  1.83154552245225
 1 -7.00220840484048 -3.56382414591459  0.01002259145915
 1 -7.04452179387939 -0.83792412371237 -0.39747781988199
 1 -4.63819866166617  1.01647584448445 -0.56562041014101
 1 -6.32365419511951  0.99954758305831 -1.65875255375538
 1 -4.65922441794179 -0.16814996879688 -1.87348856155616
 1 -3.44618449774977  6.24402705850585  1.10095779977998
 1 -3.87416509400940  4.65418455065507  1.14718685648565
 1  0.09703426872687  6.51944390429043  1.70466319881988
 1 -1.48431981528153  7.13051974747475  0.79693895029503
 1  0.22101128872887  7.16651515201520 -0.08293195899590
 1 -3.39799009480948  6.46713259635964 -1.35324314041404
 1 -5.20908273137314  6.29076181718172 -0.60180532223222
 1 -4.27021154225423  4.77123861616162 -1.41543128152815
 1  3.60952625912591 -4.29986421662166  1.93494213121312
 1  8.26940418511851 -1.65275592789279  1.67310747334733

