%nproc=4
%Mem=4GB
# td=(NStates=1) B3LYP/SVP 

TD

0 1
 8 -4.38073819461946 -4.82046212741274  1.62704806840684
 8  2.84341493959396 -4.62797734693469  1.39450738253825
 8  7.07339772117212 -1.40919846094609  1.85624584508451
 8  3.71094282708271 -3.19589871507151 -0.18797593919392
 8  7.74927367936794 -0.42272365166517 -0.08946851615162
 8 -3.03346367516752  2.53422081958196 -0.24503940854085
 7 -0.30665504720472 -0.60135948574857 -0.62571120732073
 7  1.59693737643764  1.83346572537254 -0.34251591369137
 7 -3.45213215621562 -3.05618466526653  0.70819929122912
 7 -0.71896329922992  2.97765818401840 -0.12972799669967
 6  0.60865209760976 -2.57007244554455 -1.36047813091309
 6  0.90917985178518 -1.18571852295230 -0.87359991529153
 6 -0.79392371747175 -2.66503039243924 -1.22757295669567
 6 -1.35888799499950 -1.41157479937994 -0.72778424432443
 6  3.78427636893689  1.35465995129513 -0.29978619501950
 6  2.56643733673367  0.75901723352335 -0.53402496109611
 6  2.14250125442544 -0.54964110991099 -0.88161040604060
 6  3.55853969086909  2.71456946514651  0.04936416351635
 6  1.54587574007401 -3.61244651045105 -1.91819202020202
 6 -5.49940927612761 -2.63668557815782  1.38231817181718
 6 -3.65541760466047 -1.75605066706671  0.24987877287729
 6  2.10476473667367  2.85913234143414  0.14425694869487
 6 -5.04774097039704 -1.54828033123312  0.44460309920992
 6  5.18087656575658  0.66491616161616 -0.38988204460446
 6 -2.69178014021402 -1.01474824642464 -0.42068248264826
 6 -1.55890382808281 -3.87738224052405 -1.69341258495850
 6 -4.45476294309431 -3.64886339203920  1.26042515711571
 6  2.07592806880688 -4.70438265796580 -0.87180003580358
 6  5.40220009630963 -0.26358242214221  0.74299240534053
 6  4.55089087528753  3.70346157745775  0.46679886368637
 6  1.38736997839784  4.09491389888989  0.17934805430543
 6 -6.92096322692269 -3.15826320612061  1.02245171127113
 6 -5.87119572207221 -0.62009673957396 -0.06230770517052
 6  0.01898690969097  4.10340501210121  0.16525515111511
 6 -0.89857081878188  5.19551064406441  0.37581220982098
 6 -2.18199352555256  4.80752687548755  0.37176857975798
 6  2.90263310461046 -4.12129874897490  0.12869426842684
 6 -5.43626828762876  0.48721394999500 -1.10143121012101
 6  6.79940250645065 -0.66448473257326  0.74688781138114
 6 -3.59147490679068  5.35351164936494  0.37756857195720
 6 -2.04704814111411  3.30235242654265 -0.13314238943894
 6 -0.48950308780878  6.49675354335434  0.86453154295430
 6 -4.27593613051305  5.67506591149115 -0.95172594829483
 1 -0.32878044294429  0.20427613321332 -0.01172172547255
 1  2.83974798939894 -1.46782878497850 -1.18312782138214
 1  2.49900115101510 -3.05315002190219 -2.28102053675368
 1  1.06128290759076 -3.85420733833383 -2.82316468296830
 1 -5.62122392859286 -2.29883827292729  2.38034019451945
 1  5.10572088228823  0.44136885338534 -1.46323947694770
 1  6.14120608620862  1.40596490579058 -0.55080638023802
 1 -3.15061315701570  0.04951944814481 -0.54265717131713
 1  0.77244357605761  1.91854303730373 -0.52838231033103
 1 -1.58502409360936 -4.59060116431643 -0.98052885858586
 1 -2.59308293799380 -3.54391209320932 -1.71401072127213
 1 -1.30942089318932 -4.28246642104210 -2.70579418241824
 1 -2.57528128592859 -3.45007115551555  0.69634688168817
 1  1.26038184488449 -5.15579806230623 -0.47747146464647
 1  2.66759594539454 -5.15178788728873 -1.59728424232423
 1  4.57085150615061 -1.05309136023602  0.78034862106211
 1  5.24689888948895  0.35130956755676  1.67384185488549
 1  4.53844136443644  4.51497196459646 -0.39389937263726
 1  5.43774039683968  3.21665438463846  0.61240776397640
 1  4.36482589999000  4.22728823692369  1.36713801770177
 1  1.76537236923692  5.12336226582658  0.66410619751975
 1 -7.69637240884088 -2.41040703520352  1.22442713671367
 1 -7.08148379267927 -4.17529529542954  1.65186755465547
 1 -6.98949713371337 -3.46142390589059 -0.04807321812181
 1 -6.93653099479948 -0.57384771607161  0.09659158705871
 1 -4.94567940974097  1.37604180108011 -0.72294614271427
 1 -6.70123195289529  0.65602323062306 -1.52004868336834
 1 -5.07915641114111 -0.06812996679668 -1.95313652635264
 1 -3.46417629692969  6.41657431323132  1.02400010401040
 1 -4.30607828532853  4.88927806000600  1.05483762156216
 1  0.24025859115912  6.53770573047305  1.80899363186319
 1 -1.41075245854585  7.12032872837284  1.21815107150715
 1 -0.01698251065106  7.06956545704570  0.05198153235324
 1 -3.61044133993399  6.20871675477548 -1.64808262436244
 1 -5.24344616771677  6.25962870387039 -0.76840198189819
 1 -4.36518103920392  4.77014850715072 -1.45318505690569
 1  3.41765707220722 -4.27791202140214  1.98959759675968
 1  8.11337858255826 -1.57172782508251  1.88036819941994

