%nproc=4
%Mem=4GB
# td=(NStates=1) B3LYP/SVP 

TD

0 1
 8 -4.66635675647565 -4.81941202240224  1.82590795439544
 8  3.09429002710271 -4.85965051425142  1.43906183798380
 8  7.19067944934493 -1.13243078417842  1.91756197669767
 8  3.76245797859786 -3.17325645084509  0.09980283868387
 8  7.19565831783178 -1.20516189548955 -0.65013458275828
 8 -3.05335566436644  2.53467086458646 -0.16322122672267
 7 -0.16699108080808 -0.61903125292529 -0.36669530573057
 7  1.54028171087109  1.76734911371137 -0.24524618671867
 7 -3.47531447444744 -3.21787083388339  0.52974144544454
 7 -0.68893029592959  2.98774919311931  0.09675465156516
 6  0.68215944834483 -2.44836027432743 -1.37937002010201
 6  0.97004593839384 -1.17170712181218 -0.76579913521352
 6 -0.74965929102910 -2.57690157955796 -1.22627282668267
 6 -1.22330443664366 -1.46436007790779 -0.66093755965597
 6  3.83984192549255  1.43804829012901 -0.26603281968197
 6  2.54181487448745  0.77493882568257 -0.51613317191719
 6  2.22734973927393 -0.49879602540254 -0.83335558055806
 6  3.54594843174317  2.73440144834483 -0.08520929382938
 6  1.63103425592559 -3.47986325212521 -1.86166636763676
 6 -5.65212454765477 -2.58786069566957  1.24270421042104
 6 -3.66309837273727 -1.87789285128513  0.16450023502350
 6  2.06732099229923  2.96583301150115  0.03041556455646
 6 -5.08569476577658 -1.61741724492449  0.34213285218522
 6  5.03020149824983  0.78863853385339 -0.48608166456646
 6 -2.58413937613761 -1.08456522812281 -0.31664207860786
 6 -1.49018695639564 -3.75554005630563 -1.74545778947895
 6 -4.58896636343634 -3.71437994369437  1.31592070667067
 6  1.98939941594159 -4.48659087878788 -0.81621447724772
 6  5.42821269756976  0.06837077317732  0.79844795089509
 6  4.57302308850885  3.76841807310731  0.22581476527653
 6  1.35762700410041  4.19713412091209  0.24388450795079
 6 -6.95062619321932 -3.22736011581158  0.84566403250325
 6 -5.79364796729673 -0.69380411031103 -0.34393586798680
 6 -0.05132012101210  4.17478214981498  0.34627325292529
 6 -1.03925488718872  5.28666975997600  0.50055468406841
 6 -2.22689801600160  4.78171429422942  0.35053645654565
 6  2.99180202150215 -4.04204082318232  0.24403580258026
 6 -5.26841150195019  0.36430165876588 -1.33672473947395
 6  6.68601116731673 -0.84456274037404  0.59594271687169
 6 -3.50133589288929  5.45009130733073  0.56466728182818
 6 -2.15532896919692  3.27856004730473  0.06676760156016
 6 -0.44257839533953  6.60760462846285  0.80715580538054
 6 -4.11367990489049  5.61288969386939 -0.94088486418642
 1 -0.21618918381838  0.24915062066207  0.01378082478248
 1  3.14594860946095 -1.18968097019702 -1.20342985158516
 1  2.72699395029503 -2.86672137903790 -1.82468490319032
 1  1.24359113841384 -3.91378329592959 -2.69488185468547
 1 -5.63736554275428 -2.31496988608861  2.42386454695470
 1  4.98161847204720  0.28832354885489 -1.37646079907991
 1  5.72521448704870  1.62611692099210 -0.61717301690169
 1 -2.81044914061406 -0.02849835363536 -0.34289719531953
 1  0.51903823552355  1.52696387938794 -0.11991146324632
 1 -1.53108870007001 -4.68634073827383 -1.04858566426643
 1 -2.60938456815682 -3.62984068606861 -2.03079239943994
 1 -1.11392134323432 -4.06632480688069 -2.79759336233623
 1 -2.77037079487949 -3.64639078747875  0.48282552955296
 1  1.27751355805581 -4.98884136663666 -0.20694441194119
 1  2.42609179497950 -5.41297400590059 -1.40822533643364
 1  4.59628404940494 -0.54084013511351  1.21294188038804
 1  5.65640984058406  0.78903333993399  1.67448191889189
 1  4.52478999929993  4.66145661306131 -0.73272325502550
 1  5.52641926472647  3.09628234743474  0.10737726092609
 1  4.41362077947795  4.19230473857386  1.22529383328333
 1  1.89777560956096  5.01872180178018  0.67368715561556
 1 -7.67188996059606 -2.33663965846585  1.10577527152715
 1 -7.01908755305531 -3.98737650355036  1.40503287118712
 1 -6.96738492249225 -3.55827359085909 -0.13419182998300
 1 -6.89458680038004 -0.61463179447945 -0.07852592469247
 1 -4.93938878067807  1.36122031893189 -0.74145799389939
 1 -6.07072890259026  0.73748137643764 -2.05117179567957
 1 -4.46183467896790 -0.05299845364536 -2.06090730343034
 1 -3.50175005430543  6.35385804160416  1.12523022702270
 1 -4.32003968146815  4.84424355655566  0.99330146794679
 1  0.17318188348835  6.86568852875288  1.61731446394639
 1 -1.19355073837384  7.28627532303230  0.98067732413241
 1 -0.20150096249625  7.18646714721472 -0.20878454425443
 1 -3.52060235603560  6.12701858495850 -1.72701051715172
 1 -4.95871769486949  6.24277701870187 -1.07534267596760
 1 -4.32602712381238  4.64700619291929 -1.45881561996200
 1  3.76144145064506 -4.61632586278628  2.02027066406641
 1  8.08512575727573 -1.72215286758676  1.70883104570457

