%nproc=4
%Mem=4GB
# td=(NStates=1) B3LYP/SVP 

TD

0 1
 8 -4.33836395719572 -4.61484156535654  2.20820618421842
 8  2.95484608270827 -4.74829937913791  1.26039397119712
 8  6.83044342574257 -1.68789633073307  1.90004022452245
 8  3.87027876067607 -3.01498062326233 -0.01839898149815
 8  7.58913766576658 -0.53695507480748  0.07820825152515
 8 -2.94211454025403  2.45371276877688 -0.39793469806981
 7 -0.41262564426443 -0.55716506630663 -0.72572120832083
 7  1.54382206490649  1.83192557135714 -0.44949661176118
 7 -3.33368031103110 -3.06458550535054  0.76938540984098
 7 -0.67762916581658  2.91623204140414 -0.09840486438644
 6  0.53333456585659 -2.39821525982598 -1.43505558865887
 6  0.81261019481948 -1.09803975507551 -1.10860341564156
 6 -0.79331365646565 -2.71673556295630 -1.36352655205521
 6 -1.38384049024902 -1.46175981788179 -0.87333879977998
 6  3.77296523782378  1.39082356765677 -0.33815003140314
 6  2.51002169516952  0.81916324812481 -0.74621618021802
 6  2.16891389568957 -0.46639278507851 -1.01426367136714
 6  3.58147198409841  2.74607261546155 -0.07413818671867
 6  1.60984213671367 -3.55446071187119 -1.91039124012401
 6 -5.53663299849985 -2.60001191079108  1.39738967896790
 6 -3.62451451435144 -1.87782284428443  0.07425121012101
 6  2.09584384458446  2.98058448664866 -0.03648112511251
 6 -5.01310750705070 -1.55982148534854  0.39151779067907
 6  5.10304878297830  0.60646031603160 -0.39578263466347
 6 -2.77863882608261 -1.03484025562556 -0.57469788418842
 6 -1.59563750145015 -3.92048655095510 -1.71641488518852
 6 -4.32049951675168 -3.55724423012301  1.49533864846485
 6  2.03892436843684 -4.43947616731673 -0.88171102690269
 6  5.36001587788779 -0.22598866276628  0.88075618171817
 6  4.74617040324032  3.64586581788179  0.33957614141414
 6  1.37001824322432  4.23748815631563  0.33041316081608
 6 -6.83000413101310 -3.28591597139714  1.04014348044805
 6 -5.84689329182918 -0.70938566846685 -0.20649212361236
 6 -0.07533252225223  4.04551922352235  0.26686531213121
 6 -0.96795775747575  5.17420851385138  0.74608923752375
 6 -2.19331465766577  4.73276939973997  0.34856625952595
 6  3.00403324462446 -3.92200881998200  0.13711511051105
 6 -5.48635329612961  0.34820004860486 -1.28748981598160
 6  6.73280584678468 -0.84821310541054  0.87908103070307
 6 -3.59158491779178  5.32615891409141  0.42229304440444
 6 -2.03369680598060  3.26015820712071 -0.13449252445245
 6 -0.48952308980898  6.62177604560456  1.06199128892889
 6 -4.18764730163016  5.77692609750975 -0.94235501120112
 1 -0.55250281518152  0.31546725232523 -0.40641119441944
 1  3.12293630823082 -1.15600760286029 -0.89250875947595
 1  2.39674092499250 -2.96458116501650 -2.06960939563956
 1  1.12759953925393 -3.99597151475147 -2.82980534703470
 1 -5.50662246844684 -2.12938132723272  2.39676183668367
 1  5.12693300350035  0.15174989148915 -1.30838399139914
 1  6.03445541114111  1.38936324562456 -0.54489578917892
 1 -3.12393048874887 -0.07963346714671 -0.95585849144914
 1  0.51893822552255  1.83296447944794 -0.75811528362836
 1 -1.40663625482548 -4.69405150935094 -0.95303610931093
 1 -2.60010364006401 -3.84479218121812 -1.99094841504150
 1 -1.25229518061806 -4.37209538393839 -2.76420002300230
 1 -2.47665142294229 -3.54904105250525  0.85770301730173
 1  1.37380318701870 -4.93540602310231  0.13395967846785
 1  2.51684086988699 -5.35789849834983 -1.23010752465246
 1  4.59540396139614 -1.12518856995700  0.84655524172417
 1  5.19752395199520  0.25983041964196  1.76840131083108
 1  4.50852837313731  4.63949441684168 -0.18832881558156
 1  5.68907553035304  3.41376409560956 -0.14625810261026
 1  4.91687110451045  3.88176368446845  1.52317362126213
 1  1.92228806080608  4.99149907950795  0.81744153105311
 1 -7.80966373797380 -2.46374236873687  1.01500619461946
 1 -7.23862950725073 -4.03362112801280  1.66289865776578
 1 -6.96344452845285 -3.69868763226323  0.10616220542054
 1 -6.88020536223622 -0.87272760406041  0.10039196709671
 1 -4.78094293609361  1.14614881178118 -0.93652750085008
 1 -6.50306213591359  0.80461809010901 -1.50707738623862
 1 -5.17379587508751 -0.08933208700870 -2.45018623132313
 1 -3.51832171147115  6.12766542234223  1.34280198419842
 1 -4.35639331683168  4.44017314951495  0.77159929772977
 1  0.06065063036304  6.49983194309431  1.94600733323332
 1 -1.40952233553355  7.27658435393539  1.21422067846785
 1  0.01922110971097  7.14484298479848  0.29059539373937
 1 -3.74208450425042  6.69698558165816 -1.50508832493249
 1 -5.26524834793479  6.14363710471047 -0.73526866856686
 1 -4.49900442154215  4.88892038433843 -1.62740247864786
 1  3.93180848734874 -4.67101133133313  1.70784942194219
 1  7.84960220492049 -1.86873752605261  2.05214537713771

