%nproc=4
%Mem=4GB
# td=(NStates=1) B3LYP/SVP 

TD

0 1
 8 -4.51317143794379 -4.74789487068707  1.92106747034703
 8  2.69348994709471 -4.79513406260626  1.37515544734473
 8  7.10389077047705 -1.46944448554855  1.75859608010801
 8  3.63820555335534 -3.15054417961796  0.21254411281128
 8  7.73299205120512 -0.47124850415041 -0.14768433773377
 8 -3.12706303510351  2.64703210071007 -0.40928583318332
 7 -0.21837621932193 -0.61981133093309 -0.59793843004300
 7  1.57127481018102  1.82272465126513 -0.39484114621462
 7 -3.39415635863586 -3.09895894269427  0.78776724802480
 7 -0.79283068596860  2.93905432363236 -0.14028905280528
 6  0.65906713911391 -2.49113455175518 -1.36459854295430
 6  0.94348328212821 -1.17831778287829 -1.00543309860986
 6 -0.70072439753975 -2.72417630703070 -1.20245044444444
 6 -1.17067917411741 -1.46533017491749 -0.73023448934893
 6  3.78883682498250  1.43888837413741 -0.51297751415141
 6  2.49479017201720  0.82506383818382 -0.85540709930993
 6  2.15750275457546 -0.54233037883788 -1.05828807380738
 6  3.58040187708771  2.75041304950495 -0.00944171707171
 6  1.56378753125313 -3.49762502830283 -1.84179438043804
 6 -5.60213954915492 -2.60166207580758  1.30105004500450
 6 -3.61782384528453 -1.80673573557356  0.14081786678668
 6  2.16652091229123  2.98935536373637  0.09573209620962
 6 -5.07626382268227 -1.51714721792179  0.40761940084008
 6  5.12587106520652  0.73854352435244 -0.51495455185519
 6 -2.65418638083808 -1.09010578217822 -0.43876429082908
 6 -1.49542748044804 -3.87241174347435 -1.64868811251125
 6 -4.46110357715772 -3.70412891859186  1.37662677727773
 6  2.03632410841084 -4.59566178587859 -0.84865772157216
 6  5.35129500580058 -0.21564762866287  0.70477858395840
 6  4.63796958315832  3.65920715201520  0.48466064986499
 6  1.29098033943394  4.07121152865287  0.36409652915292
 6 -6.96418754935494 -3.27841522132213  0.93337280338034
 6 -5.73961256375638 -0.63350808070807 -0.20048152255226
 6 -0.10122511151115  3.99919459105911  0.30843946954695
 6 -0.96993795549555  5.23913500650065  0.51841647024702
 6 -2.14620994719472  4.84632075487549  0.25419682258226
 6  2.88635147644764 -4.06560317941794  0.23843524252425
 6 -5.31427608840884  0.35435066366637 -1.22357342434243
 6  6.82663522972297 -0.66600488458846  0.72888601120112
 6 -3.51863762306231  5.46036233443344  0.46849766486649
 6 -2.13362679897990  3.30313250455046 -0.16413548874887
 6 -0.48148228572857  6.50735460346035  1.12655774557456
 6 -4.22816135303530  5.66144454935494 -0.84062483818382
 1 -0.54802236713671  0.42257796339634 -0.35199575287529
 1  3.00725474007401 -0.99302130423042 -1.12255176377638
 1  2.43914516541654 -3.01820652755276 -2.25516795149515
 1  0.97639441874187 -4.21332324992499 -2.53340570707071
 1 -6.00191199739974 -2.33330171927193  2.34105626612661
 1  5.24246455665567  0.15326004250425 -1.40380353335334
 1  6.02597456305631  1.43337764706471 -0.35242654225423
 1 -3.01558965466547 -0.06736224002400 -0.50159306490649
 1  0.42361869356936  1.87568875187519 -0.44605407750775
 1 -1.74504009520952 -4.70751285548555 -0.89339014471447
 1 -2.46362999269927 -3.64910261226123 -2.15321464166417
 1 -1.02128207930793 -4.33702187658766 -2.60683428642864
 1 -2.48259201700170 -3.53779992839284  0.76747399439944
 1  1.19932573927393 -5.38506098859886 -0.63756747424742
 1  2.68858804460446 -5.22821553005301 -1.53121763566357
 1  4.58861328232823 -1.23623967506751  0.62815340154015
 1  5.32577677727773  0.26237067366737  1.59143361406141
 1  4.77588510881088  4.50511097849785 -0.19736971967197
 1  5.59625624842484  3.40240295949595  0.47331385458546
 1  4.58030744814481  4.18154366246625  1.39116041994199
 1  1.72540837283728  4.96793672327233  0.84511429832983
 1 -7.86319909150915 -2.71187718221822  0.92350704470447
 1 -7.35878152245224 -3.97297506340634  1.57883025092509
 1 -6.86148433243324 -3.64967273077308  0.04122571177118
 1 -6.74959230093009 -0.26570690199020 -0.02844091619162
 1 -4.62633747554756  1.05772996989699 -0.70157400550055
 1 -6.22700453015301  0.75885351365136 -1.74024070257026
 1 -4.61030952645265 -0.20679383318332 -1.90311152385238
 1 -3.49779965926593  6.40655331113111  1.18952665666567
 1 -4.22283996149615  4.83094222642264  1.01771390919092
 1 -0.30119555425543  6.29777173707371  2.26452918541854
 1 -1.16732811611161  7.36064275977598  0.94493374977498
 1  0.45091427902790  6.98660716121612  0.39038537273727
 1 -3.67597789358936  6.23159904300430 -1.78653646974697
 1 -5.21191301440144  6.17677041804180 -0.79729487118712
 1 -4.35856037713771  4.58190968326833 -1.11018075647565
 1  3.17643294979498 -4.26564079427943  2.02533117011701
 1  7.99345659035904 -1.92324297659766  1.67513767636764

