%nproc=4
%Mem=4GB
# td=(NStates=1) B3LYP/SVP 

TD

0 1
 8 -4.39948006880688 -4.59570965216522  2.07066242984298
 8  2.82813341144114 -4.97391194039404  1.15829376117612
 8  7.04304468586859 -1.46595413651365  2.00219043954395
 8  3.71932366516652 -3.19889901510151  0.06938979737974
 8  7.83037178917892 -0.46688806810681  0.10918134883488
 8 -2.98063839263926  2.40265766326633 -0.11095600020002
 7 -0.34220860256026 -0.50188953875388 -0.69965860206021
 7  1.58914659735974  1.81125350415041 -0.45353701580158
 7 -3.46309325232523 -3.08936798359836  0.68088655995600
 7 -0.72674407730773  2.88144856305631  0.01855683178318
 6  0.64082531493149 -2.38243368166817 -1.43789587268727
 6  0.79280821462146 -1.09531948304831 -0.98036059135914
 6 -0.83420774587459 -2.71807569696970 -1.22845304470447
 6 -1.35054716091609 -1.45781942384238 -0.75149661556156
 6  3.82923086438644  1.38220270557056 -0.31533775017502
 6  2.52165285828583  0.78105943774377 -0.60058161676168
 6  2.14319132343234 -0.52460860666067 -0.89545179017902
 6  3.65736957385739  2.70168817701770 -0.08568934183418
 6  1.72368352085209 -3.34274954075408 -2.01041124212421
 6 -5.64650398559856 -2.62674458405841  1.27747768776878
 6 -3.72070413331333 -1.77928299029903  0.11306509150915
 6  2.23546780698070  2.98115454365437 -0.08630610761076
 6 -5.10019621592159 -1.55232073527353  0.36851549044904
 6  5.18235671377138  0.69491916191619 -0.46950000640064
 6 -2.74977593979398 -1.10884765636564 -0.55754616901690
 6 -1.48648658635864 -4.02408691099110 -1.60538378207821
 6 -4.51555902270227 -3.55004351005101  1.36736585118512
 6  2.04238471447145 -4.45429764946495 -1.08325118091809
 6  5.47744762106211 -0.22604866876688  0.78329643574357
 6  4.59212499869987  3.75153638493849  0.43672585638564
 6  1.40132137353735  4.12992740024002  0.15066518601860
 6 -6.89512064266427 -3.29741712151215  0.97168663476348
 6 -5.86107470997100 -0.64120885078508 -0.08497997239724
 6 -0.09254424342434  4.03310798239824  0.14766339193919
 6 -1.00741170287029  5.18866995999600  0.35668029662966
 6 -2.26098142434243  4.67015313811381  0.31909331223122
 6  2.97923076437644 -4.14060067916792  0.10267166616662
 6 -5.55132979377938  0.50135536413641 -1.04685575257526
 6  6.92632519871987 -0.70424870897090  0.85537866046605
 6 -3.57733349264926  5.36620291849185  0.41775259035904
 6 -2.07301073737374  3.20835302660266  0.06912783758376
 6 -0.57456159365937  6.53271713971397  0.84297938773877
 6 -4.15228376527653  5.74681308620862 -0.94043481918192
 1 -0.73522108700870  0.28466417201720 -0.38012856615662
 1  2.91330534513451 -1.06027802990299 -1.07875738433843
 1  2.60293154405441 -2.92631733863386 -2.43125556025603
 1  1.15973275257526 -3.74620653825383 -2.92901526802680
 1 -5.77848965516552 -2.23253164226423  2.42776493699370
 1  5.23390370057006 -0.04465974947495 -1.43036618961896
 1  6.05301726732673  1.38360266956696 -1.09168046764676
 1 -2.89251734743474  0.05021951815182 -0.68117102270227
 1  0.61095742744274  1.86544772777278 -0.42251172327233
 1 -1.41984757595760 -4.63689579377938 -0.71614241994199
 1 -2.39298292799280 -3.78929663166317 -1.91955127532753
 1 -0.85808575967597 -4.47870604500450 -2.29694329732973
 1 -2.55917967576758 -3.55184133253325  0.56125337233723
 1  0.87188299499950 -4.90735321782178 -0.89996371387139
 1  2.57212639843984 -5.25235794429443 -1.49555406930693
 1  4.75178959996000 -0.98055410651065  0.77748833503350
 1  5.25016921652165  0.43265770237024  1.66365083578358
 1  4.49110663096310  4.75192565996600 -0.04592457515752
 1  5.70621724452445  3.54983770297030  0.43532005520552
 1  4.25627504490449  3.85285079317932  1.40029133303330
 1  1.82430826282628  5.07338726832683  0.56018580548055
 1 -7.80111288288829 -2.59440543504350  1.11262595659566
 1 -7.05082072637264 -4.10614838073807  1.65100746864686
 1 -7.17667585158516 -3.76343410691069  0.03901549074907
 1 -6.96037337903790 -0.61184151545155  0.43016494439444
 1 -5.06204104590459  1.24829902680268 -0.61401524962496
 1 -6.33443527322732  1.04339196749675 -1.48466514501450
 1 -4.93504199969997  0.25939278547855 -1.88684989768977
 1 -3.27180706000600  6.20331298709871  1.29455715971597
 1 -4.30825850335034  4.87718685088509  0.85251738953895
 1 -0.04238967366737  6.57147910781078  1.84647738023802
 1 -1.35571695499550  7.28431512701270  0.91272052845285
 1  0.10412960056006  7.04253275377538 -0.08952261806181
 1 -3.43439373517352  6.59743562666267 -1.60218803490349
 1 -5.10713253635364  6.33311605260526 -0.73954909660966
 1 -4.21901642274227  5.03187467976798 -1.62263200160016
 1  3.47931323782378 -4.56873110331033  1.91113975097510
 1  7.83590083478348 -1.94283493579358  2.04706486908691

