%nproc=4
%Mem=4GB
# td=(NStates=1) B3LYP/SVP 

TD

0 1
 8 -4.42471259205921 -4.80886096729673  1.85073043664366
 8  2.94484508260826 -4.82491704090409  1.25103303510351
 8  7.08593897529753 -1.55576311741174  1.79582980348035
 8  3.84930666346635 -3.11761088628863  0.08763162156216
 8  7.59019777177718 -0.47722910221022 -0.08330790009001
 8 -2.97201753055306  2.43847124462446 -0.33987889248925
 7 -0.44448883058306 -0.54788413821382 -0.46422505870587
 7  1.52862054475448  1.84578695749575 -0.44955661776178
 7 -3.47535447844784 -3.07884693149315  0.58264673597360
 7 -0.64511591449145  2.94375479367937 -0.13189821372137
 6  0.55029626202620 -2.35209064736474 -1.41997408050805
 6  0.81612054585459 -1.09654960606061 -0.96045860116012
 6 -0.85306963206321 -2.58686257565757 -1.20789098849885
 6 -1.42992509870987 -1.41086472837284 -0.71128259415942
 6  3.78779672097210  1.42817730303030 -0.36610282668267
 6  2.56754744774477  0.82361369316932 -0.64348590719072
 6  2.13605060936094 -0.49620576637664 -0.90890313531353
 6  3.62434627152715  2.76123413161316  0.05993522062206
 6  1.57339849234923 -3.48207347314731 -1.92922312331233
 6 -5.62564189938994 -2.62848475807581  1.34684462446245
 6 -3.64160622352235 -1.88882394439444  0.24031781678168
 6  2.17542180238024  2.89921634983498 -0.03753123012301
 6 -5.10003619991999 -1.55949145234523  0.48580721962196
 6  5.11841031913191  0.68555822582258 -0.38376143254325
 6 -2.67831879407941 -1.01454822642264 -0.25604601900190
 6 -1.54346228392839 -3.88708321062106 -1.78675191889189
 6 -4.48058552535254 -3.70444895059506  1.30513962856286
 6  2.06582705870587 -4.50184240394039 -0.91592444824482
 6  5.34679455575557 -0.19085514941494  0.89019712581258
 6  4.60768655485549  3.84818604990499  0.30473265706571
 6  1.37152839423942  4.08977338483848  0.45229534903490
 6 -6.95691682228223 -3.37832521232123  1.00013948004800
 6 -5.81784038653865 -0.48783351325133 -0.07059853425343
 6 -0.00073506250625  4.03105777737774  0.28329695529553
 6 -1.02434339603960  5.16045713871387  0.62216684528453
 6 -2.19151447764776  4.69100522332233  0.34874627752775
 6  2.98747158845885 -4.04513113221322  0.24372577157716
 6 -5.47211187198720  0.54753998259826 -1.12894396139614
 6  6.77561012721272 -0.71818010211021  0.76128925152515
 6 -3.52431819111911  5.37513381158116  0.33215403050305
 6 -2.03431686798680  3.17930012131213 -0.15416449164916
 6 -0.55419955745575  6.50214408240824  0.87605269506951
 6 -4.01960049694969  5.63388179307931 -1.12299307500750
 1 -0.43275083998400  0.36295200080008  0.05458490519052
 1  2.94631864646465 -1.04232623472347 -1.19776928552855
 1  2.36233748464847 -2.83502820972097 -2.25768820352035
 1  1.14305108440844 -3.91110302790279 -2.82976534303430
 1 -5.56379818601860 -2.29775816491649  2.40974313481348
 1  4.94269457965797 -0.08988427192719 -1.27691084408441
 1  5.84729669526953  1.18108241754175 -0.67400870047005
 1 -2.88632672837284 -0.07797330113011 -0.29017192279228
 1  0.44111044274427  1.78701988498850 -0.41070054215422
 1 -1.45111070227023 -4.93751585578558 -1.37927873357336
 1 -2.76935056475648 -3.78808651065107 -1.90497981818182
 1 -1.11367131823182 -4.12137031143114 -2.77276087908791
 1 -2.38999275707571 -3.36944309270927  0.46136338333833
 1  1.32098790549055 -5.30628311081108 -0.36725044254425
 1  2.74268345414542 -5.26340904940494 -1.48295280918092
 1  4.72723714471447 -1.06508255935594  1.14434502070207
 1  5.09872407200720  0.27475191179118  1.78322279297930
 1  4.57803532383238  4.61810227762776 -0.41388137083708
 1  5.64143076587659  3.40577329652965  0.20230675387539
 1  4.84609402680268  4.41879738783878  1.28237954185419
 1  1.99728556055606  4.95504543414341  0.79075886278628
 1 -7.75060783238324 -2.60977697219722  1.09631432543254
 1 -7.27531317561756 -4.09597736363636  1.78017038493849
 1 -7.10459864386439 -3.88018578207821 -0.08341675247525
 1 -6.75650299199920 -0.37839817111711  0.37050897879788
 1 -5.00227506930693  1.41989618651865 -0.55265911401140
 1 -6.36721855155515  0.76351397969797 -1.41900857935794
 1 -4.58366686218622 -0.07742089588959 -1.71761297399740
 1 -3.68413829312931  6.42677533333333  0.67106481048105
 1 -4.20922860036004  4.68698783098310  0.76052819061906
 1 -0.06546198089809  6.52909486938694  1.85737847034704
 1 -1.23683506680668  7.36282297779778  0.97429668606861
 1  0.32305149274928  6.99725822632263  0.11145747994799
 1 -2.97321761756176  6.03526941004100 -1.80184800090009
 1 -5.06474829792979  6.24855759675968 -1.34846998869887
 1 -4.00649517061706  4.80245173747375 -1.74191392979298
 1  3.69696500300030 -4.78111234143414  1.91089972697270
 1  7.99290653535354 -1.85765641794179  1.39909007160716

