%nproc=4
%Mem=4GB
# td=(NStates=1) B3LYP/SVP 

TD

0 1
 8 -4.29498961976198 -4.70537061826183  1.98195355895590
 8  3.20325092319232 -4.87693224242424  1.00361829362936
 8  7.04583496489649 -1.65024256535654  1.93189340984098
 8  3.97549928272827 -3.12579170437044 -0.14525166676668
 8  7.59003775577558 -0.66228760806081  0.04489492019202
 8 -3.05354568336834  2.51170856835684 -0.41681658625863
 7 -0.32105648734874 -0.55849519931993 -0.45507414361436
 7  1.52591027372737  1.79749212801280 -0.39942160426043
 7 -3.36462340534053 -3.02804185098510  0.71913038433843
 7 -0.73177458035804  2.94489490769077 -0.20988601250125
 6  0.51635286768677 -2.41787722602260 -1.41029311241124
 6  0.98670760456046 -1.17046699779978 -0.85408796409641
 6 -0.82452677777778 -2.58586247564756 -1.23142334173417
 6 -1.40529263546355 -1.37327096899690 -0.72076354225423
 6  3.73966190749075  1.42137662296230 -0.29745596199620
 6  2.51098179117912  0.82784411621162 -0.53795535413541
 6  2.17756476077608 -0.51204735053505 -0.78088033303330
 6  3.51375521242124  2.65204321252125  0.06487571467147
 6  1.55410656315632 -3.40991625742574 -1.98008820982098
 6 -5.65285462066207 -2.58830073967397  1.38935887588759
 6 -3.68642070497050 -1.76279134113411  0.14132791779178
 6  2.09688394859486  2.86519294749475 -0.04734221122112
 6 -5.16824302060206 -1.51408691189119  0.35579421832183
 6  5.09447792589259  0.82100177017702 -0.25908896529653
 6 -2.68694965716572 -0.98688546014601 -0.40598101250125
 6 -1.55817375507551 -3.74218872117212 -1.77991123482348
 6 -4.46929439623962 -3.58895740144014  1.37144625922592
 6  2.10364084008401 -4.59128134783478 -0.99118197399740
 6  5.41606148244824 -0.09074513841384  0.93180128622862
 6  4.55828161436144  3.66873810511051  0.55177736153615
 6  1.26939818121812  4.03069747724772  0.22964308380838
 6 -6.98921005160516 -3.26055343514351  1.27132659875988
 6 -5.96931553405341 -0.51301603150315 -0.15008648304830
 6 -0.04254924392439  4.01140581218122  0.17363598919892
 6 -0.99432039373937  5.16803789678968  0.37267189578958
 6 -2.18837416361636  4.68948507130713  0.26165756865687
 6  3.26069891119112 -4.10650726982698 -0.04787338833883
 6 -5.51444610541054  0.57007223582358 -1.15033610061006
 6  6.72562512871287 -0.80728901300130  0.87793091569157
 6 -3.52210797009701  5.40411670987099  0.42174298939894
 6 -2.13562699899990  3.18693088438844 -0.13419249444944
 6 -0.46731086858686  6.60889475747575  0.71650674047405
 6 -4.27184572147215  5.50759916481648 -1.00268104380438
 1 -0.48012557745775  0.26485219081908 -0.02723327662766
 1  2.83600761536154 -1.42302430453045 -0.86805631423142
 1  2.42833408430843 -2.92592729962996 -2.13073550825083
 1  1.18033481278128 -3.96642856045605 -2.80454282078208
 1 -5.61135294149415 -2.09701809090909  2.45169733023302
 1  5.14987529772977  0.18187290379038 -1.25895904890489
 1  5.88528049364936  1.43183749304930 -0.21719301890189
 1 -2.89322741844184  0.17385188138814 -0.65098800440044
 1  0.48571490319032  1.82819400240024 -0.39548902100210
 1 -1.29376496769677 -4.85368747294729 -1.19762056775678
 1 -2.60352398209821 -3.41935963796380 -1.92072139233923
 1 -1.34958490959096 -3.88030620502050 -2.84590819381938
 1 -2.50405416321632 -3.37277342574257  0.82257950495049
 1  1.36145195189519 -5.20555303780378 -0.53776749424942
 1  2.56133531933193 -5.29696240474047 -1.79683419731973
 1  4.68176259725973 -0.89158520962096  1.16478706490649
 1  5.12480668026803  0.56727116371637  1.78993346404640
 1  4.45737325762576  4.50061052845285 -0.00630061276128
 1  5.48956557935794  3.16007872707271  0.22315883908391
 1  4.40002942034203  3.98980448854886  1.62866417031703
 1  1.78711454345435  4.89235916551655  0.58426821372137
 1 -7.81740451205121 -2.65568156265627  1.41824651865187
 1 -6.91241688598860 -4.18649641554155  1.94686705460546
 1 -7.03564174817482 -3.64158192169217  0.25698728792879
 1 -7.05078241994199 -0.59851018231823  0.25568749664967
 1 -4.86867170897090  1.33791798869887 -0.55732958105810
 1 -6.44510634033403  1.05893352165217 -1.57284396289629
 1 -4.77941643714371  0.25778262446245 -2.04382559525953
 1 -3.38124800410041  6.23811646744674  0.83614131813181
 1 -4.02816049354935  4.68193732593259  0.88472060986099
 1  0.22017658295830  6.69421138103810  1.57278001050105
 1 -1.16477786108611  7.39440613611361  0.90588984538454
 1  0.23290247784778  7.13262176267627 -0.06658032383238
 1 -3.52964326012601  6.12828871197120 -1.58181599769977
 1 -5.04069589268927  5.91914465546555 -0.72900804250425
 1 -4.35250977207721  4.48729022132213 -1.40042978137814
 1  3.78350365686569 -4.37541177137714  1.72569120612061
 1  7.79326657135714 -2.00433108540854  1.92666282888289

