%nproc=4
%Mem=4GB
# td=(NStates=1) B3LYP/SVP 

TD

0 1
 8 -4.61445156595660 -4.64824490569057  1.92638800240024
 8  3.11293189128913 -4.84790934013401  1.27993592539254
 8  7.01772215361536 -1.42872041314131  1.97012723322332
 8  3.85526725952595 -3.15913503870387  0.04597745614561
 8  7.61483023502350 -0.47639901920192 -0.01119068836884
 8 -3.03437376617662  2.54895229272927 -0.19614451905191
 7 -0.31051543324332 -0.57056640644064 -0.63127176337634
 7  1.52495017771777  1.79444182298230 -0.35152681478148
 7 -3.45807275027503 -3.07576662346235  0.59835830713071
 7 -0.73498490139014  2.83106352455246 -0.11632665656566
 6  0.64662589498950 -2.49672511081108 -1.32788487158716
 6  0.93070200400040 -1.21627157825783 -0.88047060236024
 6 -0.74937926302630 -2.69045293469347 -1.27451765116512
 6 -1.28657076327633 -1.44653829572957 -0.67481894779478
 6  3.80561850315032  1.39372385768577 -0.39692590899090
 6  2.48524921792179  0.71593292509251 -0.60501205980598
 6  2.20068707300730 -0.59089523532353 -0.75149739473947
 6  3.61538537543754  2.70548855705571 -0.17228800170017
 6  1.59943109560956 -3.50401566736674 -1.93116331733173
 6 -5.56412574777478 -2.54950686028603  1.35344528452845
 6 -3.67233929682968 -1.81261632363236 -0.05069128412841
 6  2.23253751395140  2.92106853505351 -0.09450692769277
 6 -5.16551274757476 -1.52235773897390  0.34246288518852
 6  5.01955043314331  0.63562323232323 -0.49272232863286
 6 -2.70329129132913 -1.12343911551155 -0.62393280768077
 6 -1.59110704840484 -3.78471297359736 -1.72114535823582
 6 -4.49827729452945 -3.66404491019102  1.26618573317332
 6  2.13672414841484 -4.60037225692569 -0.94844770057006
 6  5.44138401470147 -0.08353441734173  0.90467857395740
 6  4.60748653485348  3.76723795509551  0.26677886168617
 6  1.36144738613861  4.02598700620062  0.22425254475448
 6 -6.96601773237324 -3.17794517431743  1.25049451555156
 6 -5.89314791729173 -0.52466719661966 -0.24223569796980
 6 -0.00115510451045  4.00592526412641  0.15339396499650
 6 -0.93938490019002  5.17618871187119  0.51721635023502
 6 -2.24313964016402  4.67184330713071  0.28936033893389
 6  3.06276911821182 -4.03803042214221  0.13932533153315
 6 -5.48985364616462  0.52421765036504 -1.25960702770277
 6  6.84322688888889 -0.68698698279828  0.87142026462646
 6 -3.53646940624062  5.33321962016202  0.47262807790779
 6 -2.07893132943294  3.20809300060006 -0.03628270347035
 6 -0.50708484598460  6.52669653765377  0.92603769356936
 6 -4.38240677757776  5.69756816171617 -0.71137191289129
 1 -0.22350991589159  0.31665737133713  0.04365381208121
 1  2.99920393499350 -1.30981298339834 -0.99219872847285
 1  2.44928617951795 -2.74809951685168 -2.36797923262326
 1  1.20167694699470 -3.95273719131913 -2.91001336783678
 1 -5.56862866906691 -2.19413780288029  2.37444960546055
 1  5.16881719191919 -0.08055333883388 -1.35256840984098
 1  5.89139110471047  1.25738004730473 -0.68745004460446
 1 -3.21668976467647 -0.04698020182018 -1.14698760436044
 1  0.46178250995099  1.93286446944695 -0.37477694979498
 1 -1.78947453865387 -4.56028813301330 -0.96144695039504
 1 -2.43940757045705 -3.36192389438944 -2.25210453065307
 1 -0.96526647774777 -4.34808298269827 -2.57261086408641
 1 -2.55963972177218 -3.47303345174517  0.37409465646565
 1  1.17245305200520 -5.01396387888789 -0.43510722822282
 1  2.80986017181718 -5.24108681718172 -1.53008752265227
 1  4.66825124612461 -0.88968501960196  1.36316690289029
 1  5.25976017561756  0.55910034663466  1.76600107080708
 1  4.65810333063306  4.68945941334133 -0.25588557125713
 1  5.61199782258226  3.32272499169917  0.01210773397340
 1  4.37959737713771  3.90567607570757  1.38868017191719
 1  1.89839567156716  4.94806473607361  0.41859164606461
 1 -7.67635040664066 -2.27534352885288  1.71090578457846
 1 -7.05334097839784 -4.00015778167817  1.96890925882588
 1 -7.42197038103810 -3.16731449494949  0.24518610781078
 1 -6.95049239093909 -0.50545087638764  0.19637156505651
 1 -5.08299314111411  1.48427262416242 -0.62513636173617
 1 -6.45024685438544  1.09614724302430 -1.79292597109711
 1 -4.60672916841684  0.28441528772877 -1.99912112481248
 1 -3.48512839213921  6.25423807960796  1.24660236423642
 1 -3.89814749224923  4.39118825102510  1.21426356415642
 1  0.65594015931593  6.52196415631563  1.51286401890189
 1 -1.34642602590259  7.03848054355436  1.40873012941294
 1 -0.34370518291829  7.11464996549655 -0.23889755555556
 1 -3.69645994179418  6.44926080918092 -1.26853466956696
 1 -5.34064588768877  6.17989073007301 -0.52221736343634
 1 -4.45132965406541  4.91823331563156 -1.39297903630363
 1  3.98246355285529 -4.53235746594660  1.80264890189019
 1  7.96216346104610 -1.70153080538054  1.72019218181818

