%nproc=4
%Mem=4GB
# td=(NStates=1) B3LYP/SVP 

TD

0 1
 8 -4.56964708550855 -4.74570465166517  1.71866723032303
 8  2.99953055115512 -4.77096164536454  1.45480341214121
 8  7.10740112151215 -1.67183472457246  1.64525474597460
 8  3.88036976977698 -3.17673679887989  0.01646450485049
 8  7.67191594359436 -0.59811119041904 -0.24053362266227
 8 -3.03574390319032  2.52020941844184 -0.36485138973897
 7 -0.30265464716472 -0.54496384618462 -0.46826546274627
 7  1.55237291999200  1.83190556935694 -0.44873653575358
 7 -3.48987593059306 -3.10091913871387  0.64301277257726
 7 -0.80460186308631  2.98232865106511 -0.14620964486449
 6  0.64041527392739 -2.47944338263826 -1.16625870897090
 6  0.88851778557856 -1.12802275337534 -0.76994955025503
 6 -0.69958428352835 -2.65313920332033 -1.09858005740574
 6 -1.27948005420542 -1.40270391229123 -0.68364983088309
 6  3.78983692499250  1.38641312661266 -0.35950216661666
 6  2.48527922092209  0.87869920172017 -0.48050960956096
 6  2.14109111341134 -0.46377252305231 -0.88592083708371
 6  3.67756159305931  2.81468947714771 -0.02156292919292
 6  1.61702285478548 -3.45154041984198 -1.74109431043104
 6 -5.69542887808781 -2.63561547114711  1.28278821882188
 6 -3.66669873277328 -1.77241230323032  0.15162894789479
 6  2.21029528972897  3.07958438663866 -0.14198167516752
 6 -5.10175637193719 -1.50261576477648  0.32174081298130
 6  5.09311778987899  0.67398706870687 -0.52700575697570
 6 -2.69623058525853 -1.01424819641964 -0.53692410681068
 6 -1.45570350805080 -3.93104760706071 -1.50021326502650
 6 -4.53778124492449 -3.64587309300930  1.20078919351935
 6  2.07455793179318 -4.50664288398840 -0.79869272507251
 6  5.44350422672267 -0.10705676957696  0.73021112721272
 6  4.60827661386139  3.92082331363136  0.23836602040204
 6  1.34707594899490  4.10001440894089  0.25251537103710
 6 -7.09232036263626 -3.20075745554555  0.91771123722372
 6 -5.81257986048605 -0.58909363926393 -0.22328380278028
 6 -0.05493048204821  4.02950762236224  0.32020064566457
 6 -1.00154111581158  5.21366245924592  0.50155478407841
 6 -2.21647697389739  4.70622674547455  0.34277568046805
 6  3.09939278057806 -4.06820343944394  0.32947434643464
 6 -5.50317497829783  0.39446467506751 -1.31986305330533
 6  6.87514008020802 -0.85593387748775  0.61451457405741
 6 -3.57681344064406  5.27770406860686  0.47675849094910
 6 -2.06669010531053  3.26309850115012 -0.15927500270027
 6 -0.53067720522052  6.40765463346335  1.17369245904590
 6 -4.16074461136114  5.61313971887189 -0.88176895259526
 1 -0.48161572647265  0.27576328192819 -0.17801835513551
 1  2.85810982558256 -1.22548455055506 -0.84815432403240
 1  2.63167441834183 -2.77209191609161 -2.04340677537754
 1  1.13987076637664 -4.09152106970697 -2.51369373587359
 1 -5.61417322352235 -1.97336572567257  2.21984414491449
 1  5.13714402460246 -0.03056834033403 -1.34111726472647
 1  5.93252521812181  1.46004031333133 -0.58220952055206
 1 -2.84640273597360  0.01972646884688 -0.54795770137014
 1  0.52439877157716  1.86230741374137 -0.44840431253125
 1 -1.70972656385639 -4.72850495469547 -0.67472827852785
 1 -2.30291392109211 -3.60470817281728 -2.01559087928793
 1 -1.19019897099710 -4.51387956235624 -2.52187579057906
 1 -2.72643640144014 -3.73003915231523  0.72477972497250
 1  1.20402620932093 -5.00706318881888 -0.11357507500750
 1  2.53618280408041 -5.28865157365737 -1.39090360426043
 1  4.75171959295930 -1.15248129922992  0.87797838403840
 1  5.40051425102510  0.52020645724572  1.62908737943794
 1  4.29448696899690  4.81908237563756 -0.16776675937594
 1  5.64872149494949  3.62698541774177  0.08350487368737
 1  4.36501591899190  4.11598710681068  1.30499180308031
 1  1.71246707870787  5.16362629222922  0.50361014791479
 1 -7.81644441604161 -2.57316331083108  1.40383507750775
 1 -7.27260290459046 -4.20926869276928  1.59273164106411
 1 -7.26242442644264 -3.22837060056006 -0.06339475027503
 1 -6.81607894959496 -0.54044437573757 -0.07641571367137
 1 -5.16175101690169  1.10232442934293 -0.71710555865587
 1 -6.67610944064406  0.83059068736874 -1.77991466996700
 1 -4.66516501200120  0.12730957715772 -2.18251946464646
 1 -3.75594547384738  6.17311996779678  1.27423512751275
 1 -4.31489916741674  4.59166829902990  0.99551168896890
 1 -0.04322975767577  6.12553451335133  2.16758949144914
 1 -1.38737012031203  7.02443913941394  1.11615087148715
 1  0.24725391299130  6.93430193069307  0.52396873107311
 1 -3.21435173097310  6.29520540364036 -1.51080889698970
 1 -5.02422424552455  6.21605434643464 -0.73244838653865
 1 -4.18585310641064  4.70218171047105 -1.34482422082208
 1  3.59821512801280 -4.32672690289029  2.11345998299830
 1  8.00769801450145 -2.11159181148115  1.29490965356536

