%nproc=4
%Mem=4GB
# td=(NStates=1) B3LYP/SVP 

TD

0 1
 8 -4.57734785558556 -4.69712979417942  1.81570693429343
 8  3.04780537863786 -4.88829337853785  1.17900583238324
 8  7.08763914531453 -1.44159170027003  1.77218743924392
 8  3.82811454425443 -3.24191331653165  0.00977383578358
 8  7.70031878387839 -0.21919329862986  0.00961139183918
 8 -2.99033936273627  2.44584198169817 -0.28347325192519
 7 -0.28468284998500 -0.63818316811681 -0.46068470467047
 7  1.55026270897090  1.71772415121512 -0.34022568466847
 7 -3.49662660566057 -3.04929397619762  0.57779625092509
 7 -0.67106850975098  2.89617003520352 -0.25241026492649
 6  0.59209044144414 -2.55177061536154 -1.37805988908891
 6  0.90412934673467 -1.15816576767677 -0.80914346964696
 6 -0.84684901000100 -2.71545543494349 -1.25460565996600
 6 -1.29052115831583 -1.43955759765977 -0.66046751265126
 6  3.62156009730973  1.34710919621962 -0.29880609700970
 6  2.52185287828783  0.74684601640164 -0.43483504210421
 6  2.16920392469247 -0.53411955775578 -0.71696394139414
 6  3.51498533543354  2.70153816201620 -0.07279805270527
 6  1.53477462996300 -3.51365663146315 -1.96227642864286
 6 -5.54410374557456 -2.49963187278728  1.34865480548055
 6 -3.63754581748175 -1.76240130213021  0.10237402240224
 6  2.15575983618362  2.93908033623362 -0.05239271627163
 6 -5.06990318661866 -1.44672017521752  0.40015865476548
 6  5.04666314441444  0.56340601060106 -0.37229028542854
 6 -2.61270223242324 -0.99903667526753 -0.38515893029303
 6 -1.62857079477948 -3.88208271057106 -1.77493073677368
 6 -4.44235170197020 -3.56792529822982  1.33101221582158
 6  2.05850632663266 -4.55349756945695 -0.94109696549655
 6  5.34314419071907 -0.13386945084508  0.82324043014301
 6  4.50898668486849  3.74090532183218  0.37764994879488
 6  1.41834307570757  4.13646805430543  0.26714683418342
 6 -6.94851598219822 -3.06512389218922  1.13231269736974
 6 -5.82238084058406 -0.46224095399540 -0.17321879627963
 6 -0.03940892989299  4.06279095069507  0.17250587618762
 6 -0.95648661036104  5.18430952395240  0.45276990559056
 6 -2.18812413861386  4.61951807460746  0.40768217111711
 6  3.05304814611461 -4.14349096819682  0.08155955495550
 6 -5.40954561536154  0.49046427502750 -1.19811087808781
 6  6.84805737193719 -0.56372465656566  0.78809193179318
 6 -3.54642040134013  5.23642994119412  0.46309712481248
 6 -1.99340277657766  3.16818901020102 -0.13061213641364
 6 -0.56159029652965  6.54385825382538  0.93914900470047
 6 -4.22802133903390  5.57120552545255 -0.96490726642664
 1 -0.34458202310231  0.17929363496350 -0.09310986428643
 1  2.90384439903990 -1.24649665176518 -1.13319282788279
 1  2.51642289318932 -3.08713342024202 -2.18363079777978
 1  1.11528830813081 -3.94233615121512 -2.78057042354235
 1 -5.33989579577958 -2.12431082018202  2.40358251875187
 1  4.85749605980598 -0.33927921142114 -1.18678183118312
 1  5.95621758735874  1.16711102040204 -0.72636393599360
 1 -2.85247334303430  0.03089758595860 -0.57028993459346
 1  0.51891822352235  1.78913009600960 -0.48704817691769
 1 -1.39508509970997 -4.78131023522352 -1.20613141884188
 1 -2.73893752345234 -3.60740844284428 -1.47223654385439
 1 -1.37512746384638 -4.09405758015802 -2.87172077507751
 1 -2.74950870867087 -3.58023417181718  0.31927917491749
 1  1.14414022072207 -4.94951743424342 -0.49992370987099
 1  2.36741592739274 -5.63978668716872 -1.42121663556356
 1  4.81635605660566 -1.11103715481548  0.80459104530453
 1  4.97984218381838  0.41799623622362  1.60347481818182
 1  4.07076459675968  4.75008547594759 -0.07217720042004
 1  5.53078970177018  3.55702842204220 -0.55138861566157
 1  4.99219863726373  3.75572108020802  1.51943324722472
 1  1.90110594259426  5.11977190679068  0.51455124202420
 1 -7.79381215281528 -2.13774976947695  1.22190688468847
 1 -6.94762040634063 -3.66883464936494  2.04590695859586
 1 -7.10322850685069 -3.59840760426043  0.18602019121912
 1 -7.00584792649265 -0.33811414271427  0.30949287718772
 1 -5.13474831663166  1.52392658955896 -0.94856870497050
 1 -6.20888271797180  0.84511213951395 -1.86434311281128
 1 -4.64290278577858 -0.01175432923292 -1.94708592129213
 1 -3.61502138143814  6.19672232803280  0.92204990899090
 1 -4.25335301280128  4.57803693589359  0.85226736453645
 1  0.07323188848885  6.43942590249025  1.79365209770977
 1 -1.47225860916092  7.18335503100310  1.34253350975098
 1  0.03414260186019  7.11391989248925  0.21098743294329
 1 -3.44630492629263  6.29601548464847 -1.41446926302630
 1 -5.18868069116912  5.98019076007601 -0.71426656835684
 1 -4.30278479957996  4.45121661396140 -1.60571030943094
 1  3.63132843934393 -4.49090332053205  1.84821345834583
 1  8.03043028772877 -1.58338899119912  1.83437359996000

