%nproc=4
%Mem=4GB
# td=(NStates=1) B3LYP/SVP 

TD

0 1
 8 -4.49354947574758 -4.76660674187419  1.87084244784478
 8  3.03367396549655 -4.74221877107711  1.33234116591659
 8  7.06717709910991 -1.46190373147315  1.92470269076908
 8  3.75912764556456 -3.02851197639764  0.14534739313931
 8  7.64229298129813 -0.55659703900390 -0.09601917121712
 8 -3.08484881368137  2.49344674217422 -0.24472937753775
 7 -0.29631401310131 -0.66835618541854 -0.63812244844484
 7  1.56338402110211  1.76778915771577 -0.38412007410741
 7 -3.46032297529753 -3.16450549734974  0.56181465276528
 7 -0.83520492339234  2.89506992519252 -0.15975099899990
 6  0.63764499689969 -2.55154059235924 -1.36783886698670
 6  0.89009794359436 -1.19995994709471 -0.89884243954395
 6 -0.73162748784878 -2.80841473087309 -1.32111231063106
 6 -1.32077418361836 -1.60561420332033 -0.82996446234623
 6  3.76024396569657  1.39791427672767 -0.49756597299730
 6  2.46264695769577  0.76762809460946 -0.57990954955496
 6  2.25627263156316 -0.54011015681568 -0.88453069806981
 6  3.54286812371237  2.65159316751675 -0.03156392929293
 6  1.65329648214821 -3.58711397719772 -1.86605680668067
 6 -5.59552888808881 -2.53636554615462  1.26201614161416
 6 -3.69906196909691 -1.79595465746575  0.10108389338934
 6  2.16756101630163  2.88332476067607 -0.05844332133213
 6 -5.00215641194119 -1.48626412961296  0.41668030693069
 6  5.07040551865187  0.80979064906491 -0.48943199959996
 6 -2.62626358855886 -1.05342211381138 -0.45751616601660
 6 -1.56143408110811 -3.94802930523052 -1.81920516421642
 6 -4.49896736353635 -3.65498400410041  1.38298741334133
 6  2.17097757375738 -4.58662088178818 -0.86331918771877
 6  5.38058793509351 -0.04661072497250  0.85002310841084
 6  4.61550733693369  3.71537276857686  0.23032521632163
 6  1.35451669306931  4.03923833133313  0.20453057255726
 6 -7.04911604220422 -2.95462284208421  1.04182364846485
 6 -5.76827543004300 -0.46910164006401 -0.12129360376038
 6 -0.06541153015302  3.99106377797780  0.23726235183518
 6 -0.97982894459446  5.13602469546955  0.44042867146715
 6 -2.25994132033203  4.77111323412341  0.42665406830683
 6  3.04920776207621 -3.98887550665066  0.25726712571257
 6 -5.43456811761176  0.44846007460746 -1.28046911391139
 6  6.78394096029603 -0.75977426152615  0.79975309790979
 6 -3.57451321062106  5.42025832403240  0.66716753185319
 6 -2.13697713401340  3.25438763006301 -0.09553862906291
 6 -0.45931006850685  6.49992386038604  0.93776886668667
 6 -4.20161869876988  5.72780118501850 -0.73100387608761
 1 -0.36281384628463  0.19494520012001 -0.07679823312331
 1  3.10257427202720 -1.06508851095110 -1.07390689928993
 1  2.59241049194919 -3.06319102600260 -2.26875931063106
 1  1.12257903720372 -4.14317623522352 -2.59888225472547
 1 -5.63379518571857 -2.20045843494349  2.41491365186519
 1  5.22105241544154  0.20849556605661 -1.37847100010001
 1  5.86987895349535  1.27351166046605 -0.67297859745975
 1 -2.85134323002300  0.02543703990399 -0.78610151575158
 1  0.51289762146215  1.68004918791879 -0.84081355345535
 1 -1.57560315151515 -4.77624972917292 -1.01972277797780
 1 -2.51606523622362 -3.46230393239324 -2.00043936413641
 1 -1.00702065316532 -4.23080125452545 -2.77938154115411
 1 -2.48065182298230 -3.47274342274227  0.54732197919792
 1  1.22331813851385 -5.10661314381438 -0.47309102660266
 1  2.74975416121612 -5.40642335083508 -1.37814232813281
 1  4.75758017901790 -0.94843089418942  0.87027761396140
 1  5.36510070967097  0.63429786638664  1.70413488418842
 1  4.20437795809581  4.74764523192319 -0.13445342804280
 1  5.76244286708671  3.66826954615462 -0.11187466426643
 1  4.56067548494850  3.82301780988099  1.42177348124812
 1  1.60219605160516  5.23542347194720  0.26417620452045
 1 -7.79005177677768 -2.23398939343934  1.54674936893689
 1 -7.28506415071507 -3.86045381128113  1.51557392529253
 1 -7.30422860686069 -2.95637340084008  0.04903649284928
 1 -6.82981032273227 -0.36251658295830  0.21973390129013
 1 -4.85864070587059  1.43987818471847 -1.09552340044004
 1 -6.51178300800080  0.75725335363536 -1.77553423192319
 1 -4.94623311881188 -0.05098825262526 -2.13458467116712
 1 -3.43274315361536  6.41359401520152  1.00906861086109
 1 -4.36372404990499  4.80787992019202  1.17228936673667
 1  0.13446801210121  6.35378733863386  1.86858959145915
 1 -1.15447683098310  7.17061375687569  1.31051030743074
 1  0.30385957355736  7.15888438893889  0.38615494969497
 1 -3.74698499429943  6.58663454655466 -1.36257407350735
 1 -5.18683050615062  6.25623836483648 -0.51709685138514
 1 -4.29567408850885  4.92663415571557 -1.41165090349035
 1  3.73799910641064 -4.34326855705570  1.98240687768777
 1  8.02605985068507 -1.64812546484648  1.65711587418742

