%nproc=4
%Mem=4GB
# td=(NStates=1) B3LYP/SVP 

TD

0 1
 8 -4.44691481228123 -4.72507258845885  1.92310767436744
 8  2.84242484058406 -4.67312186138614  1.31789972177218
 8  7.02501288268827 -1.33868140924092  2.05413563406341
 8  3.77836956975698 -3.11962108730873  0.03989684808481
 8  7.66634538653865 -0.51725310461046  0.06407683838384
 8 -2.91774210301030  2.43362075957596 -0.41591649624963
 7 -0.31904628632863 -0.57071642144214 -0.73876251245124
 7  1.54024170687069  1.76261864066407 -0.49331099319932
 7 -3.35539248224822 -3.09778882568257  0.64145261656166
 7 -0.66942834573457  2.92888330653065 -0.01554657855786
 6  0.58143937633763 -2.52446788508851 -1.44915699879988
 6  0.91222015581558 -1.25315526662666 -1.07081963726373
 6 -0.85316964206421 -2.68893278267827 -1.34659485888589
 6 -1.32366447264726 -1.47295093699370 -0.84476594249425
 6  3.77192513381338  1.32734722002200 -0.34292050845084
 6  2.43992468546855  0.78364969676968 -0.77575913451345
 6  2.14071107540754 -0.53008915471547 -1.05648789378938
 6  3.53418725562556  2.70529853805381  0.07241646874687
 6  1.61449260176018 -3.40214548034803 -1.93011321232123
 6 -5.57062639783978 -2.49813172277228  1.36442638263826
 6 -3.59065112801280 -1.88333339533953  0.09913369836984
 6  2.13629788998900  2.93017944614461 -0.10786826382638
 6 -5.01710790709071 -1.51756725992599  0.37864650355036
 6  5.10048852695270  0.54177384738474 -0.48692174857486
 6 -2.67440840304030 -1.11829860146015 -0.44160457485749
 6 -1.53367130483048 -3.94047855015502 -1.81611485518552
 6 -4.44492195899590 -3.65960446614661  1.32877199179918
 6  1.99748022402240 -4.41138335803580 -0.86903975977598
 6  5.39551942824282 -0.23644970887089  0.77585569166917
 6  4.58436422262226  3.68429966126613  0.44992717651765
 6  1.33628486988699  4.10687509500950  0.14619473897390
 6 -6.98746987758776 -3.16528390819082  1.27314678077808
 6 -5.81609021152115 -0.57902263216322 -0.22993446784678
 6 -0.03091808080808  4.10120479207921  0.22082070767077
 6 -0.85916687838784  5.20783187618762  0.53037766636664
 6 -2.20673599979998  4.69487561036104  0.39538094099410
 6  2.98375121642164 -4.00334695379538  0.19601100010001
 6 -5.52125678647865  0.50716594519452 -1.17504857185719
 6  6.84491705790579 -0.72966125022502  0.92144526712671
 6 -3.51981774107411  5.39923622182218  0.61498231333133
 6 -1.98636207250725  3.23723591489149 -0.11376045124512
 6 -0.52591672917292  6.54678854685469  0.88202329212921
 6 -4.34734327122712  5.60815922082208 -0.78050882658266
 1 -0.46408397329733  0.23810951655166 -0.14525507880788
 1  2.90707472207221 -1.25959796189619 -1.22348185678568
 1  2.51299255015502 -2.97066177307731 -2.44462689738974
 1  1.18174495379538 -3.99236115371537 -2.83722608910891
 1 -5.56187799399940 -2.27372576167617  2.55113727422742
 1  4.93579388958896  0.00146486298630 -1.45159831283128
 1  5.95983794939494  1.28933324262426 -0.75740704030403
 1 -3.03784187988799 -0.15176067986799 -0.36518942454245
 1  0.54936126782678  1.78338952195220 -0.69716918901890
 1 -1.63750934213421 -4.85849795399540 -1.26930773647365
 1 -2.38840246994699 -3.64851255325533 -2.22641196139614
 1 -0.98020797189719 -4.13426160056006 -2.66787039003900
 1 -2.32858661646165 -3.50737688608861  0.72245949294930
 1  1.07005281198120 -4.90532301480148 -0.27041075857586
 1  2.48998818461846 -5.31238394689469 -1.18801331523152
 1  4.69597401840184 -1.02142819391939  0.73694428062806
 1  5.41305550515052  0.64002843944394  1.67741221192119
 1  4.53620114041404  4.68901936933693 -0.20981096379638
 1  5.64235085788579  3.32508522772277  0.40396691989199
 1  4.55934535193519  3.95230073817382  1.51402270617062
 1  1.95249108110811  4.87887781738174  0.50515030193019
 1 -7.74461723332333 -2.30310630513051  1.56256095009501
 1 -7.28288393269327 -4.05253301920192  2.12772514041404
 1 -7.20844902890289 -3.53284104760476  0.13090467966797
 1 -6.75232257395739 -0.43497382868287  0.20786271417142
 1 -4.93150799259926  1.32122631953195 -0.53703755185519
 1 -6.19991182088209  0.90158778707871 -1.65666234473447
 1 -4.63630212571257  0.25823266946695 -1.98780999369937
 1 -3.43147302660266  6.40678333413341  1.05204290829083
 1 -4.17322500000000  4.86612574477448  1.42581471927193
 1 -0.02369780448045  6.45965792569257  2.03316604910491
 1 -1.31872325562556  7.15426212171217  0.76855611201120
 1  0.22797198479848  6.80227872837284  0.14448078227823
 1 -3.67093738953895  6.11333721682168 -1.47735555165517
 1 -5.27116893999400  6.30514325532553 -0.35012015371537
 1 -4.83235775687569  4.59718121042104 -1.11053079147915
 1  3.64383969046905 -4.48111234143414  1.83407204420442
 1  7.87594483918392 -1.75522617491749  1.96537670027003

