%nproc=4
%Mem=4GB
# td=(NStates=1) B3LYP/SVP 

TD

0 1
 8 -4.61647176797680 -4.73321340254025  1.76091145474547
 8  2.91115171327133 -4.73568811801180  1.30743867566757
 8  7.05441582298230 -1.48435597669767  1.90782100260026
 8  3.95316704950495 -3.04982410761076  0.22930578897890
 8  7.51600035203520 -0.93907528682868 -0.22634220352035
 8 -3.09721004980498  2.55219261676168 -0.31179608420842
 7 -0.28949333103310 -0.56363571337134 -0.53043167936794
 7  1.57269495219522  1.69687206600660 -0.42288395049505
 7 -3.39711665466547 -3.13763281008101  0.54821329262926
 7 -0.77574897779778  2.91417183538354 -0.12168719261926
 6  0.50365159755976 -2.42314775307531 -1.38088017111711
 6  0.90784971877188 -1.15963591469147 -0.95051760706071
 6 -0.79915424052405 -2.64193808320832 -1.25303550295029
 6 -1.33089519571957 -1.41411505340534 -0.71828329422942
 6  3.79507744904490  1.41574605990599 -0.39043525992599
 6  2.56345703870387  0.77180851265127 -0.51503306190619
 6  2.21340834513451 -0.55390153595360 -0.74185643064306
 6  3.57388122502250  2.78409641784178 -0.11743251615162
 6  1.65634678717872 -3.36574183998400 -1.87663786478648
 6 -5.52119145434544 -2.57864977457746  1.27423736373637
 6 -3.63081514441444 -1.85569063106311  0.08619240424042
 6  2.12625688588859  2.91826825502550 -0.10459793679368
 6 -5.02332852915291 -1.57658316151615  0.33672231113111
 6  5.09032751085109  0.67988765876588 -0.43120617701770
 6 -2.68855981818182 -1.00964773637364 -0.41616203060306
 6 -1.49558749644964 -3.86927142944294 -1.69700294399440
 6 -4.49375684248425 -3.62466097179718  1.29062817741774
 6  2.09358983498350 -4.35669788948895 -0.85588844464446
 6  5.44879475577558 -0.00654671857186  0.89434754085409
 6  4.59412519871987  3.86128736003600  0.08370055385539
 6  1.32659390079008  4.06774118161816  0.14232435193519
 6 -7.00968209880988 -3.12273965376538  1.09867933403340
 6 -5.78947755025503 -0.61659638953895 -0.16515799019902
 6  0.02406741774177  4.00712538413841  0.21159978557856
 6 -0.98438940064006  5.08924001700170  0.59331395999600
 6 -2.22449777597760  4.68387451025102  0.28225962886289
 6  3.07009985128513 -3.94158077717772  0.20448184718472
 6 -5.31963662446245  0.40282551115112 -1.16058712571257
 6  6.76838940514051 -0.83606189028903  0.84806792939294
 6 -3.53149890919092  5.34186048424842  0.57387820292029
 6 -2.15406884318432  3.29985217651765 -0.11845092029203
 6 -0.51204534203420  6.47791165916592  0.99561465126513
 6 -4.23577211411141  5.53020142504251 -0.77444822052205
 1 -0.62414997989799  0.44477018261826 -0.16510706400640
 1  3.03832784738474 -1.03453545564556 -0.77107661626163
 1  2.50978222912291 -2.84256896379638 -2.24473690839084
 1  1.15537231653165 -3.86043796139614 -2.57556992349235
 1 -5.48907071327133 -1.98333672277228  2.21700386088609
 1  5.11928223842384 -0.00241552505251 -1.34479763276328
 1  5.72789475507551  1.46655096439644 -0.52526382598260
 1 -3.00123821952195  0.02261675787579 -0.34311721732173
 1  0.61764809650965  1.77857904090409 -0.59144861696170
 1 -1.29348493969397 -4.84079618381838 -0.96141694739474
 1 -2.63206683638364 -3.54064176617662 -1.74263358355836
 1 -1.24069402050205 -4.07430560496050 -2.81665526852685
 1 -2.45869962776278 -3.69333548194819  0.49183643064307
 1  1.27984379107911 -4.89951243374337 -0.39392310981098
 1  2.43539272507251 -5.24064677317732 -1.30583509740974
 1  4.68050247124713 -0.83198925002500  0.81871245744574
 1  5.34972917251725  0.61029546614661  1.86760123082308
 1  4.41449897019702  4.79016948434843 -0.67873785648565
 1  5.60886750955096  3.61541426062606 -0.04513799059906
 1  4.48343776117612  4.35018052615261  1.11838314221422
 1  1.80357618961896  5.10985091469147  0.39857964486449
 1 -7.76874964656466 -2.49256525102510  1.45847054105411
 1 -7.19137478177818 -4.11570933683368  1.64779714761476
 1 -7.25876406040604 -3.24623238673867  0.01762335153515
 1 -6.69914725642564 -0.39645997729773  0.29553148104810
 1 -4.77125196699670  1.21909610651065 -0.64970881898190
 1 -6.34253608330833  0.89149677797780 -1.62739941844184
 1 -4.68808730423042  0.07854470067007 -1.98829004170417
 1 -3.44993487278728  6.33919657545755  0.99854755875588
 1 -4.30433811131113  4.63055218741874  1.15504764256426
 1 -0.11731716641664  6.52601456135614  2.12086481898190
 1 -1.39338072137214  7.18923561906191  1.31680093649365
 1  0.31781096869687  6.84365286578658  0.31586792099210
 1 -3.59865016081608  6.22708859195920 -1.40624844094409
 1 -5.23290511361136  5.85291803280328 -0.58084322602260
 1 -4.31326584768477  4.65457694999500 -1.34939467786779
 1  3.48479378587859 -4.44128835903590  1.86543518051805
 1  7.77803504820482 -2.09931058335834  1.61342150475047

