%nproc=4
%Mem=4GB
# td=(NStates=1) B3LYP/SVP 

TD

0 1
 8 -4.49375949674968 -4.70101018221822  1.96957232083208
 8  3.03423402150215 -4.73584813401340  1.27238517031703
 8  7.09180956235624 -1.55375291639164  1.85743596409641
 8  3.81953368616862 -3.22855198039804 -0.01241838343834
 8  7.60765951795180 -0.80649202850285 -0.20897046634663
 8 -2.99886021482148  2.49779717721772 -0.06813171777178
 7 -0.24817919961996 -0.52187153695370 -0.69649828602860
 7  1.57782546524652  1.89643202200220 -0.54547620972097
 7 -3.47735467846785 -3.11029007580758  0.71188966026603
 7 -0.69268067096710  2.93924434263426 -0.13727875177518
 6  0.74527575997600 -2.46209164746475 -1.38034011711171
 6  1.00760969476948 -1.17117706880688 -1.03962651795180
 6 -0.75097942304230 -2.67242113151315 -1.25618581798180
 6 -1.31920402660266 -1.48269191109111 -0.75116658255826
 6  3.76762470377038  1.37824230953095 -0.31393761016102
 6  2.39899059205921  0.77591892369237 -0.52930448904890
 6  2.09404640894089 -0.45230137593759 -0.85448769376938
 6  3.60504434133413  2.81579958815882 -0.00863163606361
 6  1.63185433793379 -3.48930419621962 -1.89307950895089
 6 -5.62505184038404 -2.57961987158716  1.30872081208121
 6 -3.67143920682068 -1.73945900790079  0.19258304330433
 6  2.12611687188719  3.00696712491249 -0.09110658765877
 6 -5.08958515481548 -1.48000350355036  0.32642128102810
 6  5.10678915701570  0.71988165816582 -0.33742679907991
 6 -2.66547750995099 -1.03251002260226 -0.39042945734573
 6 -1.44102203990399 -3.81697619991999 -1.63365660936094
 6 -4.54404187098710 -3.66594510021002  1.41187030163016
 6  2.01067154315432 -4.54433665336534 -0.79483233903390
 6  5.44545442174217 -0.25120118401840  0.89131723782378
 6  4.52702848904890  3.85405663696370  0.45363754755476
 6  1.33933517491749  4.18293270077008  0.17248736823682
 6 -6.99782091269127 -3.16268364816482  0.90003947004700
 6 -5.88653725622562 -0.54467919781978 -0.22699417381738
 6 -0.11101609060906  4.07450212181218  0.05388401400140
 6 -1.03627458915892  5.22890398339834  0.43411804040404
 6 -2.21632695889589  4.64253037583758  0.37896929982998
 6  3.01356419771977 -4.08540515961596  0.16030742974297
 6 -5.29018367916792  0.47727295589559 -1.28358942594259
 6  6.78357092329233 -0.78641692579258  0.72395551815181
 6 -3.65546130543054  5.25534183238324  0.59144996009601
 6 -2.06372980928093  3.26567875917592  0.04932585738574
 6 -0.54292843034303  6.54773864186419  0.78432352215222
 6 -4.22310084698470  5.58966737163716 -0.79680045574557
 1 -0.53684124902490  0.33272897849785 -0.05117567086709
 1  3.16895090969097 -1.03733573567357 -0.96031554015402
 1  2.61749300020002 -3.09966467336734 -2.28756119081908
 1  1.04721150045004 -4.20226214381438 -2.67018938543854
 1 -5.72903470967097 -2.25213360246025  2.22485464596460
 1  5.04314462466247  0.10717543404340 -1.19970312331233
 1  5.87173913951395  1.49992430173017 -0.42203350295030
 1 -2.87590568626863  0.00204470067007 -0.83229613521352
 1  0.45622195389539  1.95942712571257 -0.80183965606561
 1 -1.31092668386839 -4.72539464366437 -0.92467327302730
 1 -2.38799242894289 -3.66475417741774 -1.77129644984499
 1 -1.22171212231223 -4.12069024342434 -2.62435603860386
 1 -2.60413417121712 -3.58230437883788  0.80322756975698
 1  1.17034284098410 -5.06517900040004 -0.39652336983698
 1  2.52837202300230 -5.19567227572757 -1.35641015491549
 1  4.72266668766877 -1.22291834293429  0.88503909010901
 1  5.40354455405541  0.27710214681468  1.84372884358436
 1  4.62895041534153  4.57107757515752 -0.44957494019402
 1  5.51396801960196  3.40355307450745  0.91710823402340
 1  4.05038445584558  4.20428593669367  1.55866717061706
 1  2.03112894489449  5.05738566816682  0.26920670757076
 1 -7.81462423402340 -2.48284427892789  1.06783147714771
 1 -7.30358600290029 -4.16078384428443  1.28178054595460
 1 -6.92501068506851 -3.52241000450045 -0.18019643044304
 1 -6.84932227392739 -0.77966829812981  0.01380330823082
 1 -4.84782962476248  1.18147234413441 -0.67602145024503
 1 -6.05261709140914  0.79675730403040 -1.76611328982898
 1 -4.43823231873187 -0.06990014381438 -1.69642085478548
 1 -3.51109098839884  6.27352000780078  1.13472117611761
 1 -4.25396307380738  4.56633576577658  1.21148328612861
 1  0.11650621592159  6.61629358925893  1.59564229672967
 1 -1.38932031533153  7.27285398089809  0.81959121552155
 1  0.14358354595460  6.98767726822682 -0.04550821662166
 1 -3.62705300110011  6.41421730483048 -1.19766758285829
 1 -5.29790161326133  5.70350309130913 -0.59250439213921
 1 -4.18251277237724  4.72739423172317 -1.58876861526153
 1  3.76228153465347 -4.35096932713271  1.79394803180318
 1  8.06529377407741 -1.71537218951895  1.64828499109911

