%nproc=4
%Mem=4GB
# td=(NStates=1) B3LYP/SVP 

TD

0 1
 8 -4.54079420022002 -4.70227030823082  2.04022938653865
 8  2.89422002010201 -4.92211676087609  1.25657358915892
 8  7.02736311771177 -1.44132167326733  1.88907912841284
 8  3.66829856265627 -3.20486961216122  0.09337219561956
 8  7.49074782678268 -0.64216559585959 -0.14807437673767
 8 -2.94883521232123  2.41931932943294 -0.14270917551755
 7 -0.32997737943794 -0.56363571337134 -0.63121175737574
 7  1.57890557325733  1.86034841364136 -0.49900156225623
 7 -3.37415435843584 -3.17299634643464  0.79605807710771
 7 -0.73885528842884  2.94337475567557 -0.11860688458846
 6  0.73510474287429 -2.38692413071307 -1.40064214731473
 6  0.93181211501150 -1.12766271737174 -0.97353990929093
 6 -0.69629395449545 -2.64223811321132 -1.32611281068107
 6 -1.27782988918892 -1.56472011391139 -0.73071453735374
 6  3.75251319261926  1.48270275557556 -0.30720693709371
 6  2.43753444644464  0.87586891869187 -0.70990254885489
 6  2.21112811711171 -0.53767991379138 -0.90795304030403
 6  3.56175001190119  2.78203621182118 -0.01352212511251
 6  1.71372252475247 -3.41093635943594 -2.01766196719672
 6 -5.64952428762876 -2.51291320092009  1.40327026702670
 6 -3.67521958485849 -1.90056511851185  0.10701448644864
 6  2.15100936113611  3.00662709090909 -0.08303578057806
 6 -5.06531272757276 -1.54463996719672  0.40588922782278
 6  5.06137461556156  0.76140581058106 -0.36878993539354
 6 -2.68909987218722 -1.10607737933793 -0.62779319371937
 6 -1.32211014871487 -3.90273477577758 -1.82644588828883
 6 -4.52146961376138 -3.67154566026603  1.49641875647565
 6  2.09072954895490 -4.56459867956796 -1.02951580738074
 6  5.37580745704570 -0.13028909280928  0.92584069016902
 6  4.55163094929493  3.81710294159416  0.55911809560956
 6  1.31568280968097  4.14565897339734  0.19519963946395
 6 -6.96433756435644 -3.06251363116312  1.16341580768077
 6 -5.79308791129113 -0.62944767466747 -0.21207268166817
 6 -0.07661265026503  4.05387005860586  0.17638626422642
 6 -0.95732669436944  5.12829392239224  0.59222385098510
 6 -2.24082940914091  4.83318944174417  0.41378278117812
 6  2.97335017631763 -4.18675529462946  0.16496789578958
 6 -5.41799646044604  0.32971820042004 -1.29813088008801
 6  6.71615418161816 -0.84802308640864  0.72218534113411
 6 -3.54703046234623  5.44257055525553  0.42732354745475
 6 -2.08786222252225  3.29098128942894  0.03121404620462
 6 -0.41124526202620  6.62043591159116  0.82176726652665
 6 -4.18603714061406  5.64665307020702 -0.91104187988799
 1 -0.24834239913991  0.25830153575358 -0.10195074837484
 1  2.92790680528053 -1.30650265236524 -1.00170967956796
 1  2.61818306920692 -2.96757146404640 -2.47578001270127
 1  1.26216299559956 -3.85030694829483 -2.87916028252825
 1 -5.57143895009501 -2.01416980608061  2.43947610811081
 1  4.96630694089409 -0.00729601310131 -1.22621577457746
 1  5.87355932153215  1.47973228252825 -0.50921222082208
 1 -2.94210230593059 -0.04900040384038 -1.13874678027803
 1  0.53973030473047  1.84338552155215 -0.64452392449245
 1 -1.12051764296430 -4.64353645784578 -1.05983678937894
 1 -2.46087971767177 -3.89613731573157 -2.12200152035203
 1 -0.97323727482748 -4.28074624902490 -2.72589619261926
 1 -2.56897065486549 -3.52241839023902  1.01492873987399
 1  1.23782958965897 -5.13132561506151 -0.62314603210321
 1  2.66028521432143 -5.33653636213621 -1.55396991089109
 1  4.69537395839584 -1.02981903300330  0.92850343654365
 1  5.18165236483648  0.31171560816082  1.87687215791579
 1  4.35533305360536  4.65513598099810 -0.11081106380638
 1  5.51960858365837  3.17152987218722  0.57955447864786
 1  4.22409182658266  4.08329383748375  1.65207651155116
 1  1.89258509050905  5.05155508510851  0.74160394729473
 1 -7.77453022462246 -2.32560855535554  1.29995468946895
 1 -7.02400804510451 -4.02562032793279  1.98012037993799
 1 -7.12669085308531 -3.37178494199420  0.14729631883188
 1 -6.82994033573357 -0.65965629692969 -0.15746381848185
 1 -4.99006384818482  1.32810700760076 -1.06964081218122
 1 -6.15177700740074  0.45232286058606 -2.29747642614261
 1 -4.53138163366337 -0.22445559935994 -1.87421863456346
 1 -3.48768864816482  6.40324298009801  0.98477618161816
 1 -3.98294597209721  4.78423755595560  1.11123326112611
 1  0.59348391369137  6.60465242514251  1.71277400990099
 1 -1.18753013631363  7.33990068556856  1.35660491689169
 1 -0.08385919831983  7.19196769726973 -0.06349001480148
 1 -3.77653794959496  6.35023090619062 -1.61815963206321
 1 -5.11401322442244  6.26116885788579 -0.70075521722172
 1 -4.21455597669767  4.76127762006201 -1.53171290969097
 1  3.58921422792279 -4.70353458365837  1.86857549454945
 1  7.80652789748975 -1.78527918021802  1.79161932453245

