%nproc=4
%Mem=4GB
# td=(NStates=1) B3LYP/SVP 

TD

0 1
 8 -4.54111423222322 -4.86141622282228  1.70571593519352
 8  2.81483208130813 -4.50635518471847  1.46690462226223
 8  7.01144152555256 -1.61026856795680  1.74748496899690
 8  3.83339507230723 -3.09629875507551 -0.05403254485449
 8  7.74708346034603 -0.33754513381338  0.09079951065107
 8 -3.04972530133013  2.51678907640764 -0.12581748634863
 7 -0.30021440314031 -0.70874022382238 -0.47131576777678
 7  1.52310999369937  1.71079345814581 -0.37080874297430
 7 -3.41792873587359 -3.16724577137714  0.67274574587459
 7 -0.76511791469147  2.99068948714871 -0.13172819671967
 6  0.64269550195020 -2.50440587888789 -1.44348643174317
 6  0.92130106390639 -1.19652960406041 -0.87280983628363
 6 -0.82255658075808 -2.70320420982098 -1.39851005040504
 6 -1.30746285248525 -1.51500514241424 -0.70860232613261
 6  3.80889883118312  1.33973845914591 -0.36327254365437
 6  2.49016970997100  0.75375670747075 -0.47807936653665
 6  2.18900590489049 -0.54968111391139 -0.82484472947295
 6  3.63410724762476  2.65530353855386 -0.08903967686769
 6  1.58143929642964 -3.49816508230823 -1.94053425442544
 6 -5.57456679187919 -2.61764367396740  1.36365630563056
 6 -3.59825188808881 -1.87589265126513  0.12775656065607
 6  2.15781004120412  2.87561398959896 -0.03713119011901
 6 -5.03230942724272 -1.56601210441044  0.53237187608761
 6  5.01831030913091  0.58334800480048 -0.44071712811281
 6 -2.61398236043604 -1.10390716231623 -0.41900231463146
 6 -1.71181911961196 -3.76002050435044 -1.99194243794379
 6 -4.44182164896490 -3.69367787348735  1.30725984058406
 6  2.07058753475348 -4.46419863956396 -0.76240909670967
 6  5.32183205950595 -0.17610367426743  0.81217932403240
 6  4.58229401560156  3.75451668296830  0.32964514831483
 6  1.36110735213521  4.12084649214921  0.12074219371937
 6 -6.98654978557856 -3.16343372317232  1.00372983908391
 6 -5.79062766526653 -0.51408613851385 -0.03960543494349
 6 -0.03890887988799  3.97173184478448  0.16729535513551
 6 -0.91255221692169  5.24246533953395  0.49452408100810
 6 -2.20344567076708  4.82882900570057  0.29241064396440
 6  2.93645648694869 -3.93719033813381  0.19462086108611
 6 -5.32235689648965  0.43561879047905 -1.11127219421942
 6  6.82644521072107 -0.68625690979098  0.79836295889589
 6 -3.55771153045304  5.37095339353935  0.48195901100110
 6 -2.09012244854485  3.37327951925193 -0.04482355755576
 6 -0.33723786128613  6.57245111311131  0.83091818161816
 6 -4.36163470037004  5.60557896279628 -0.90278105380538
 1 -0.33736130103010  0.21485719131913  0.18239768646865
 1  3.13785780038004 -1.04840684278428 -1.23059256785678
 1  2.56853810471047 -2.90273498039804 -2.31155359005901
 1  1.11767854715472 -3.92356427402740 -2.85160752725273
 1 -5.48502030823082 -2.33687207630763  2.37623978447845
 1  5.04698500870087 -0.00464574807481 -1.33475662866287
 1  5.82780474607461  1.31686599589959 -0.61388268786879
 1 -3.07995609130913  0.00361485768577 -0.56644955055506
 1  0.60431676337634  1.73610479347935 -0.82175164726473
 1 -1.80914650585058 -4.71423352755276 -1.28011881758176
 1 -2.74915854555456 -3.30099780178018 -2.30484980518052
 1 -1.18616856795680 -4.29978815321532 -2.82079568256826
 1 -2.28825258305831 -3.60227637603760  0.52760000700070
 1  1.21814762146215 -4.99124160666067 -0.30072378987899
 1  2.71053023882388 -5.30197290579058 -1.21656617051705
 1  4.55851027202720 -1.05878192929293  0.84377496369637
 1  5.21567576717672  0.54110854745475  1.70446491719172
 1  4.60918843914391  4.58784925232523 -0.26242622532253
 1  5.64856147894789  3.29708242744275  0.09103562676268
 1  4.65193461086109  4.04623013111311  1.29749105300530
 1  1.93137896989699  5.00157008660866  0.37916770367037
 1 -7.94606737833783 -2.49123511801180  1.35207990199020
 1 -6.99764540884088 -4.24199196509651  1.51406377427743
 1 -6.80895907990799 -3.38544630813081 -0.17495590639064
 1 -6.84255159685969 -0.45956628792879  0.41857378527853
 1 -4.84083892569257  1.34533873077308 -0.50159400750075
 1 -6.04366619631963  0.98931655995600 -1.67889456795680
 1 -4.72194068956896 -0.08795194899490 -2.07919913261326
 1 -3.46499637893789  6.50678333413341  1.01040874487449
 1 -4.12153983148315  4.72818195039504  1.27450958875888
 1  0.26708127342734  6.64698665856586  1.81257398989899
 1 -1.07667905120512  7.49500619611961  0.66321557795780
 1  0.59346853445345  6.81727022752275  0.12745908010801
 1 -3.98218851465147  6.36610249334934 -1.77171498759876
 1 -5.28381020412041  6.27554029502950 -0.62423756545655
 1 -4.68158267936794  4.64399589188919 -1.42872261066107
 1  3.45642094859486 -4.06699092929293  1.90758939593959
 1  7.86525377007701 -1.99212986528653  1.80712087468747

