%nproc=4
%Mem=4GB
# td=(NStates=1) B3LYP/SVP 

TD

0 1
 8 -4.54409453025303 -4.79708979017902  1.80796616021602
 8  2.74303490159016 -4.79522407160716  1.34812274407441
 8  7.21214159555956 -1.33949149024902  1.90481070157016
 8  3.79269100190019 -3.12426155135514  0.19593245164516
 8  7.63699245124512 -0.65569694899490 -0.16584615391539
 8 -3.02469279807981  2.66739413691369 -0.24651955655566
 7 -0.19332371407141 -0.62743209300930 -0.53617225342534
 7  1.48258594129413  1.79453183198320 -0.33739540164016
 7 -3.40631757475748 -3.12816186298630  0.60825929722972
 7 -0.76978838173817  2.99699011721172  0.04924990109011
 6  0.57308854125413 -2.54336977527753 -1.31702378547855
 6  1.00467940174017 -1.23316326742674 -0.98233078837884
 6 -0.78028235333533 -2.68496238563856 -1.22485268466847
 6 -1.27438954515452 -1.47185082698270 -0.59094055995600
 6  3.77545548684868  1.34415890119012 -0.38315453185319
 6  2.45593628662866  0.82556388818882 -0.65659721832183
 6  2.27042404670467 -0.57772391819182 -0.84414665966597
 6  3.58255209210921  2.71434944314431 -0.04810558345835
 6  1.61640279277928 -3.55025029082908 -1.99001920292029
 6 -5.57107644284428 -2.72254416401640  1.31871181118112
 6 -3.60245230813081 -1.92506756875688  0.06687047204720
 6  2.09226348654866  2.96027245544554  0.14315683868387
 6 -5.10391658795880 -1.57977348054805  0.30232887178718
 6  5.14631310941094  0.60003967396740 -0.53674673107311
 6 -2.62677363956396 -1.04664143574357 -0.29903031743174
 6 -1.56501443914391 -3.87579208150815 -1.71503474717472
 6 -4.47420488728873 -3.68458696439644  1.33815292989299
 6  2.02571304730473 -4.57746996669667 -0.95364822062206
 6  5.52730260656066 -0.09504556845685  0.67709581568157
 6  4.64188997519752  3.88637986928693  0.25864804860486
 6  1.37317855925593  4.15591999949995  0.29623974347435
 6 -6.99244037463746 -3.22019939973997  0.94326379247925
 6 -5.90911951445145 -0.62066679657966 -0.24215568996900
 6 -0.04487947694769  4.05752042364236  0.22268089368937
 6 -0.98449941164116  5.26046713971397  0.55029965856586
 6 -2.23743907010701  4.83421954475448  0.37068847174717
 6  2.85694853615362 -4.01661828092809  0.24793619261926
 6 -5.43745840664066  0.40611584018402 -1.16457752475248
 6  6.83025559175918 -0.75044332843284  0.69430255285529
 6 -3.55906166546655  5.58434473267327  0.36263707880788
 6 -2.06585002130213  3.35091728302830 -0.03033210841084
 6 -0.39830396789679  6.58047191519152  0.95816090589059
 6 -4.29830836773677  5.54065247014702 -0.93628440414041
 1 -0.49932749764976  0.26782248784878 -0.19689024232423
 1  3.23657767236724 -1.23126512861286 -1.22843235183518
 1  2.64408565946595 -3.17714242114211 -2.37266970167017
 1  0.99113589288929 -3.88007992559256 -2.88431079757976
 1 -5.49998180438044 -2.43637202630263  2.37656981748175
 1  5.25330564076408 -0.37058234173417 -1.19744289728973
 1  5.88578054365437  1.38233254255426 -0.81893319291929
 1 -2.79674777047705 -0.05597110091009 -0.29324222982298
 1  0.47214354605461  1.76419760276028 -0.43394286638664
 1 -1.40358594979498 -4.78089019321932 -1.05299610531053
 1 -2.75906953665367 -3.81552925492549 -1.83957327752775
 1 -1.06807675877588 -4.19897807220722 -2.60214381738174
 1 -2.58155191299130 -3.70923707210721  0.50823807080708
 1  1.01649745644564 -4.99722220472047 -0.63823754125413
 1  2.55186437223722 -5.34939764826483 -1.32076659055906
 1  4.76150057105711 -0.96502255335534  0.72218280448045
 1  5.38163236283628  0.47150158675868  1.72199667036704
 1  4.25108262856286  4.91221168856886 -0.32775275797580
 1  5.71601822462246  3.72200491969197 -0.20055353215322
 1  4.65805522292229  4.27917342544254  1.37342864676468
 1  1.80335616761676  4.91836176577658  0.68538832573257
 1 -7.62704547614761 -2.49804579907991  1.27968266226623
 1 -7.20994663896390 -4.05454322022202  1.48200056795680
 1 -7.27739592359236 -3.55210297379738 -0.08602701350135
 1 -6.89249659135914 -0.56541687298730 -0.00510858295830
 1 -4.87333217501750  1.30117431433143 -0.80369421752175
 1 -6.42224405410541  0.84402203050305 -1.68880555905591
 1 -4.95504399989999  0.10079692589259 -2.12672388508851
 1 -3.39832971227123  6.56786944274427  0.86312401640164
 1 -4.27376505400540  5.04927405960596  1.15233737153715
 1 -0.11852728742874  6.52900486038604  2.02388512101210
 1 -1.21412279557956  7.62245894139414  0.80439969636964
 1  0.62711189878988  6.90492899339934  0.04695102930293
 1 -3.85411570737074  6.04030991409141 -1.79604742084208
 1 -5.22504432753275  6.24612735373537 -0.61517665936594
 1 -4.73166768786879  4.61751324362436 -1.47589732813281
 1  3.33093840034003 -4.25334956515652  2.09222785978598
 1  8.11541878657866 -2.01671232353235  1.73166332893289

