%nproc=4
%Mem=4GB
# td=(NStates=1) B3LYP/SVP 

TD

0 1
 8 -4.32772289308931 -4.69972005320532  2.06851221482148
 8  2.94892549064907 -4.84224877407741  1.12519045084508
 8  6.91222160356036 -1.46368390949095  2.04238445894589
 8  3.65384711751175 -3.11939106430643  0.00541339973997
 8  7.74220297229723 -0.44654603390339  0.14659509020902
 8 -2.94334466326633  2.40325772327233 -0.43613851845185
 7 -0.29746412811281 -0.61255060486049 -0.69943858005801
 7  1.62037972067207  1.80630300910091 -0.44874653675368
 7 -3.43197014001400 -3.09777882468247  0.69082755405541
 7 -0.70620202310231  2.80030044824482 -0.13331835573557
 6  0.60603183558356 -2.43582902120212 -1.45729781288129
 6  0.89882881668167 -1.15310526162616 -0.98832138743874
 6 -0.77876220132013 -2.71500538993899 -1.28738893829383
 6 -1.30098220442044 -1.49379302120212 -0.77735920182018
 6  3.82536047734773  1.41892637793779 -0.30729694609461
 6  2.53505419841984  0.79868119991999 -0.64473603220322
 6  2.15503250755076 -0.52882902870287 -0.95031727672767
 6  3.52384622152215  2.68646665486549 -0.02679345224522
 6  1.58199935243524 -3.41695696149615 -2.06960716171617
 6 -5.50943027822782 -2.56181809140914  1.45988592859286
 6 -3.69379144204420 -1.83501856385639 -0.02635885088509
 6  2.15393965416542  2.89674610281028 -0.01107858485849
 6 -5.05030122642264 -1.52316781998200  0.33972261116112
 6  5.08321679977998  0.61796146614661 -0.39740279667967
 6 -2.72671363356336 -1.07906467806781 -0.53756417081708
 6 -1.51416935463546 -3.93242774507451 -1.86444968866887
 6 -4.46747421422142 -3.66944545024502  1.49512862746275
 6  1.90951142714271 -4.52836505620562 -1.07338019381938
 6  5.38857873417342 -0.04795085898590  0.86234434053405
 6  4.51356714291429  3.85792702400240  0.47326951075108
 6  1.31674291569157  4.00955536303630  0.28637875737574
 6 -6.90594172477248 -3.21131851165117  1.20631009710971
 6 -5.90326892939294 -0.62513724362436 -0.04248572297230
 6  0.01137614861486  3.93756842844284  0.20520914651465
 6 -0.98814977667767  5.11948304130413  0.49856448504851
 6 -2.20175550175018  4.65781190399040  0.30901230413041
 6  2.90658349964996 -4.10168678777878  0.05352675167517
 6 -5.53548820962096  0.48637386598660 -1.02461352835284
 6  6.79964253045305 -0.68480676477648  0.93966708930893
 6 -3.45441120042004  5.44867116531653  0.54883569866987
 6 -2.07455089138914  3.14763695499550 -0.14598367356736
 6 -0.48401253875388  6.53242711071107  0.77991308110811
 6 -4.11552008890889  5.88411681658166 -0.88464924062406
 1 -0.41562912781278  0.25949165476548 -0.28523907720772
 1  3.02713672827283 -1.21219322142214 -1.03890339893989
 1  2.52918416931693 -3.06186089298930 -2.27433986868687
 1  0.94311109040904 -3.90700261786179 -2.86911927842784
 1 -5.18687049324932 -2.07768615771577  2.49525168566857
 1  5.07921823202320 -0.18896417991799 -1.25445859885989
 1  5.92551451705171  1.29389369866987 -0.82233353295330
 1 -3.06613470917092 -0.04085958975898 -0.70971387698770
 1  0.60749708140814  1.95574675767577 -0.36063553565357
 1 -1.55041063226323 -4.74178628282828 -1.16721752745274
 1 -2.58881251095109 -3.62789049104910 -1.80177949814982
 1 -1.12362231333133 -4.14014218861886 -2.81860546354635
 1 -2.50186394419442 -3.31728787718772  0.43583083008301
 1  0.94121992869287 -4.89202168466847 -0.50776449394940
 1  2.60880006580658 -5.27561026952695 -1.41754626852685
 1  4.61916633763376 -0.69191524262426  1.12078266446645
 1  5.23877807740774  0.74223866046605  1.65610008070807
 1  4.69890741104110  4.70736120352035 -0.21975195789579
 1  5.39975659845985  3.38279099829983  0.70276679987999
 1  3.95176459385939  4.06974248234823  1.59923122702270
 1  1.96511234323432  4.95988591819182  0.52957274417442
 1 -7.54554732633263 -2.16557255175518  1.08748344234423
 1 -7.05109075337534 -3.81165893179318  2.11238360626063
 1 -6.71667985198520 -3.77702546604660  0.26751834103410
 1 -7.00101744344434 -0.43072340364036  0.32317424532453
 1 -5.06925176697670  1.27627182408241 -0.46614046214621
 1 -6.49493132283228  0.95037266556656 -1.47374405290529
 1 -4.70525902140214  0.40584743094309 -1.72587380008001
 1 -3.33631351065107  6.28550120592059  1.06919462346235
 1 -4.10509818731873  4.81300043224322  1.11376351415142
 1  0.22514708000800  6.39897185708571  1.60266299879988
 1 -1.45998738203820  7.19268596409641  0.88293755015502
 1  0.11060024762476  6.83116161666167 -0.20082374817482
 1 -3.23565386118612  6.47148303140314 -1.49453726982698
 1 -5.18753057615762  6.24726746774678 -0.85566070777078
 1 -4.50226474757476  4.94431592389239 -1.43462320072007
 1  3.58149345584559 -4.50835506570657  1.68728736573657
 1  7.86682392709271 -1.68776942924292  2.26221638423842

