%nproc=4
%Mem=4GB
# td=(NStates=1) B3LYP/SVP 

TD

0 1
 8 -4.46859698049805 -4.67782786398640  1.95978134173417
 8  3.18202880098010 -5.09487403660366  1.03677160896090
 8  7.02415279667967 -1.59528706980698  1.80562078257826
 8  3.89686141894189 -3.21657078227823  0.01974483288329
 8  7.65761451345134 -0.42995437473747  0.02573300400040
 8 -3.04250457925793  2.45469286678668 -0.44453935853585
 7 -0.31473585528553 -0.50159950975098 -0.58714735093509
 7  1.61566924962496  1.75084746354635 -0.32991465356536
 7 -3.36790373337334 -3.04875392219222  0.63168163946395
 7 -0.76130753365337  2.87943836203620 -0.16934195809581
 6  0.59054028642864 -2.42245768406841 -1.30595267836784
 6  0.95906484028403 -1.14195414651465 -0.91789434473447
 6 -0.76898122322232 -2.61716560596060 -1.31621182058206
 6 -1.34819692589259 -1.42427606950695 -0.72300376627663
 6  3.80376831813181  1.46537102240224 -0.24353056945695
 6  2.48776946994699  0.75905723752375 -0.40423198179818
 6  2.23761076537654 -0.52579872567257 -0.75445769076908
 6  3.68517235413541  2.70327833603360 -0.01605237813781
 6  1.65397655015502 -3.44681994779478 -1.87251745274527
 6 -5.58122745794579 -2.53796570617062  1.48527846784678
 6 -3.58481054395440 -1.81441650365036  0.16239002400240
 6  2.07794205440544  2.93847027522752 -0.04964244124412
 6 -5.07355355165517 -1.57996349954995  0.35247388628863
 6  5.07209568766877  0.68627829782978 -0.33072612901290
 6 -2.69138010021002 -1.01581835343534 -0.42328274267427
 6 -1.60081801950195 -3.76845134743474 -1.79345258895890
 6 -4.46095356215622 -3.52906141184118  1.48972808740874
 6  2.09046952295230 -4.58755097479748 -1.00975383118312
 6  5.28658853515351 -0.32295835973597  0.78452655875588
 6  4.50423620982098  3.77453868516852  0.47504968876888
 6  1.32318355975598  4.12046645414541  0.35116523602360
 6 -7.02006313691369 -2.97458483828383  1.28694816091609
 6 -5.77905650815082 -0.56322105200520 -0.12070354475448
 6 -0.07803279227923  4.05818048964897  0.20526915251525
 6 -0.98665962766277  5.18418951195120  0.51573620222022
 6 -2.25690101630163  4.71535765856586  0.32147355025503
 6  3.14805764706471 -4.20671729082908  0.01665306430643
 6 -5.53971863266327  0.39462469106911 -1.34213528052805
 6  6.70404297049705 -0.68633691779178  0.76538966156616
 6 -3.61210696999700  5.38573487168717  0.37421823692369
 6 -2.06517995429543  3.28178036933693 -0.12870194539454
 6 -0.65395953345335  6.57666153415342  0.91173626342634
 6 -4.16626516341634  5.66485489038904 -1.09392016771677
 1 -0.45965353025302  0.27543324892489  0.00201964866487
 1  2.97110112471247 -1.50268227032703 -0.69779928852885
 1  2.43388463936394 -3.03332803970397 -2.46735917061706
 1  0.98304508380838 -3.92851476907691 -2.75669803630363
 1 -5.49908171437144 -1.98022641174117  2.48458061856186
 1  5.05918622882288  0.24101881838184 -1.17854100710071
 1  5.99445141074107  1.33686799609961 -0.28275957555756
 1 -2.99716781248125 -0.10007551135113 -0.79555246084609
 1  0.62813914561456  1.71953313631363 -0.36536600870087
 1 -1.66535212641264 -4.74220632483248 -1.13291409710971
 1 -2.76881051075107 -3.44334203620362 -2.03753307350735
 1 -1.35450540164016 -4.34268244264427 -2.71801540454045
 1 -2.54404816261626 -3.46342249064907  0.63125037203720
 1  1.16890269696970 -4.97520000250025 -0.45262898039804
 1  2.59303848964897 -5.31620432893289 -1.90890540444044
 1  4.57666208720872 -0.99255530663066  0.63439402560256
 1  5.32353655325533  0.20815525212521  1.91093556425643
 1  4.67341486178618  4.63111357875788 -0.28431841454145
 1  5.54033065586559  3.22067478667867  0.27830435363536
 1  4.39042846024602  4.22272778087809  1.44981628552855
 1  1.82070790279028  5.01691162076208  0.47324711161116
 1 -7.84845761736174 -2.25855184968497  1.36473116711671
 1 -7.25756140044004 -3.70502826872687  2.09719208710871
 1 -7.07938612261226 -3.63937170067007  0.32809439863986
 1 -6.85560290199020 -0.47718805010501  0.08928085598560
 1 -5.14970981278128  1.30822501940194 -0.91674552265227
 1 -6.41644347404740  0.81477910621062 -1.71985866436644
 1 -4.88510700620062  0.03406025222522 -2.17807902060206
 1 -3.41307118641864  6.23465612141214  1.16674437843784
 1 -4.35844352185219  4.67345647784779  0.67664980278028
 1 -0.20026546124612  6.64094605450545  1.86800953345335
 1 -1.63455483878388  7.19340603610361  1.19208846524652
 1 -0.17364817721772  7.12150065056506  0.13464979917992
 1 -3.81863215901590  6.64552043514351 -1.87357517361736
 1 -5.29113093619362  5.85924866586659 -0.87037217891789
 1 -4.25357987908791  4.68948044034403 -1.58719845824582
 1  4.05013031953195 -4.83683791399140  1.67236587358736
 1  8.16251349604960 -1.64511516381638  1.87956811941194

