%nproc=4
%Mem=4GB
# td=(NStates=1) B3LYP/SVP 

TD

0 1
 8 -4.48426854765477 -4.81996207740774  1.66590195379538
 8  2.85570616871687 -4.74656920612061  1.29602753455346
 8  7.00434081548155 -1.58571611271127  1.78925914641464
 8  3.81511324412441 -3.18730785598560  0.01188404680468
 8  7.63976272827283 -0.56745812511251 -0.07811738103810
 8 -3.01108143694369  2.49311670917092 -0.40282518711871
 7 -0.21520590229023 -0.54622397219722 -0.40890952715272
 7  1.59726740944094  1.80304268306831 -0.52509417151715
 7 -3.38909585258526 -3.06130517731773  0.72846131743174
 7 -0.73048445134513  2.91958237643764 -0.22884790869087
 6  0.60840207260726 -2.38838427672767 -1.34430651375138
 6  0.90805973977398 -1.16332628372837 -0.85430798609861
 6 -0.80137446254625 -2.57705159455946 -1.19038923832383
 6 -1.28773087928793 -1.39204284618462 -0.70817228312831
 6  3.88590653195320  1.42006649194919 -0.39144536093609
 6  2.52222291529153  0.87150848264826 -0.66111767036704
 6  2.20419742404240 -0.42733887968797 -0.95353759875988
 6  3.66463029992999  2.72257026522652  0.00991021812181
 6  1.52777392989299 -3.45371063686369 -1.90488068906891
 6 -5.64189352455246 -2.66607851745175  1.35673561356136
 6 -3.54468653155316 -1.82504756675668  0.25655944094409
 6  2.18701296149615  2.85588201640164 -0.00030750775077
 6 -5.04009020532053 -1.55842134533453  0.45259389828983
 6  5.20939941804180  0.69997966796680 -0.54328738513851
 6 -2.65502646484648 -0.99627639923992 -0.41075148954896
 6 -1.55010294799480 -3.75211971427143 -1.69640288398840
 6 -4.51874934173417 -3.61916042174217  1.26559567416742
 6  2.03645412141214 -4.47376959665967 -0.81209406520652
 6  5.45148502480248 -0.18001406530653  0.73503160926093
 6  4.68790457665767  3.78970020132013  0.50525270907091
 6  1.33234447584758  4.10840524802480  0.27026714621462
 6 -7.06097722832283 -3.20720810061006  1.18405787188719
 6 -5.80478908140814 -0.73284801470147 -0.17809928432843
 6  0.00363537453745  4.02841751335133  0.18122674827483
 6 -0.96421738343834  5.16863795679568  0.48973360196020
 6 -2.18079340554055  4.70216633943394  0.33127453035304
 6  2.92953579487949 -3.91981860096010  0.26280767976798
 6 -5.59687434823482  0.32467769636964 -1.29778084508451
 6  6.79787235343534 -0.80647893199320  0.81854497709771
 6 -3.72151791109111  5.36375267346735  0.42729354445445
 6 -2.08137157345735  3.21862405370537 -0.13316239143914
 6 -0.55494963246325  6.59437330533053  1.00161525132513
 6 -4.22458099499950  5.65114351925193 -0.90059083478348
 1 -0.38017558245824  0.29179488508851  0.16534598129813
 1  3.03905792039204 -1.28465046714671 -1.14602411101110
 1  2.54418566946695 -3.08941364826483 -2.11842427712771
 1  1.24475125442544 -3.91781369896990 -2.77512987948795
 1 -5.51844365056506 -2.19932832193219  2.45411757225723
 1  5.18535884608461 -0.18391367486749 -1.15790894389439
 1  6.08017998359836  1.35225953525353 -0.70581188078808
 1 -2.98596669236924  0.07944244044404 -0.87383028862886
 1  0.60048638033803  1.96242742574257 -0.61889136123612
 1 -1.68008359955996 -4.62011411561156 -1.13454426012601
 1 -2.71401503120312 -3.28094579657966 -1.67459677987799
 1 -1.25110506160616 -4.16050422482248 -2.83470707370737
 1 -2.43619737753775 -3.44869101750175  0.67382462946295
 1  1.35350115681568 -5.02491497399740 -0.35986970447045
 1  2.58348753455346 -5.41447415591559 -1.30059457335734
 1  4.65468988998900 -1.02366841794179  0.55618620482048
 1  5.14179837943794  0.43176761336134  1.56838130883088
 1  4.58635615591559  4.64369483688369  0.02486250355036
 1  5.70358698149815  3.41012373157316  0.28319484268427
 1  4.71237065446545  3.72337784588459  1.59336063996400
 1  1.86463229522952  5.06611654125413  0.65243503040304
 1 -7.70528329992999 -2.58232422692269  1.69116381038104
 1 -7.00328597289729 -4.06187395329533  1.97795016291629
 1 -7.49399758375838 -3.32904066756676  0.02851444064406
 1 -6.78760610231023 -0.80735106640664  0.20300222812281
 1 -4.99570441224122  1.11029522642264 -0.84938878697870
 1 -6.54393622332233  0.55233286158616 -1.95025170367037
 1 -4.83352184768477  0.11381822802280 -2.16256746944695
 1 -3.44624450375038  6.32259491529153  1.02289999399940
 1 -4.27559523702370  4.67643677587759  1.19307144494449
 1  0.30639520482048  6.33026498639864  1.78962169466947
 1 -1.61020240354035  6.96845354085409  1.50058931533153
 1 -0.07972878527853  7.33706220672067  0.14149048324832
 1 -3.55987628342834  6.53630951405141 -1.31624944104410
 1 -5.46660848394840  6.07272001300130 -0.97277241894190
 1 -4.18821334243424  4.78933042534253 -1.67570730913091
 1  3.55356066256626 -4.35667989818982  1.89266790379038
 1  7.86011325602560 -2.03378403070307  1.63378354095410

