%nproc=4
%Mem=4GB
# td=(NStates=1) B3LYP/SVP 

TD

0 1
 8 -4.61511163196320 -4.74996507770777  1.91066643024302
 8  2.88553915201520 -4.71715626482648  1.36465439723972
 8  7.06524690609061 -1.48341588268827  1.85366558705871
 8  3.86940867366737 -3.13823294849485  0.06585944434443
 8  7.54940369236924 -0.88154953425343 -0.20438000730073
 8 -3.04948527732773  2.53416081358136 -0.21954685928593
 7 -0.31252563426343 -0.52862221202120 -0.55503413961396
 7  1.62771045374537  1.73872625142514 -0.44235589768977
 7 -3.49048599159916 -3.22980202700270  0.62144061536154
 7 -0.72999440234023  2.93727414561456 -0.12452747664766
 6  0.65824705710571 -2.39881531983198 -1.37161924502450
 6  0.93478241204120 -1.11331128222822 -0.88139069436944
 6 -0.76953127822782 -2.60370425982598 -1.33192339173917
 6 -1.31412351855185 -1.48156179807981 -0.72566403230323
 6  3.84999294059406  1.48659314461446 -0.33842005840584
 6  2.57067776077608  0.79688101990199 -0.55690724932493
 6  2.22554955925593 -0.45050119591959 -0.86539878487849
 6  3.54715855275528  2.85371337953795 -0.11998277117712
 6  1.66336748924892 -3.40274554035404 -1.90065026602660
 6 -5.62114144934494 -2.61049295889589  1.27626756675668
 6 -3.61591365426543 -1.96782184418442  0.10558434343434
 6  2.12262652285229  2.94509093729373 -0.08439591659166
 6 -5.07690388668867 -1.60883638683868  0.31139977887789
 6  5.14707318541854  0.85278494849485 -0.43609666606661
 6 -2.65483644584458 -1.11070784238424 -0.33912432683268
 6 -1.51099903760376 -3.92688719101910 -1.68483172687269
 6 -4.52547001380138 -3.74637314301430  1.32610172477248
 6  1.99802027802780 -4.58493071277128 -0.76597945374537
 6  5.45890576687669 -0.04998106200620  0.84398250435043
 6  4.52905869206921  3.90534176547655  0.22958514231423
 6  1.40198143954395  4.05874028152815  0.10220033953395
 6 -6.97441857245725 -3.17588496829683  0.94126359245925
 6 -5.79647825032503 -0.60302503240324 -0.23564503890389
 6 -0.05830081908191  3.99779445104510  0.10827945354535
 6 -1.01412237393739  5.19254034703470  0.58339296789679
 6 -2.25535086128613  4.71514763756376  0.38534993789379
 6  3.03172601390139 -3.93243986308631  0.31330272927293
 6 -5.43408806960696  0.55480070867087 -1.15098616561656
 6  6.73625619181918 -0.89002728682868  0.72721584418442
 6 -3.50906666596660  5.46258255645565  0.51727254235424
 6 -2.04073751005101  3.22635482678268 -0.13513258845885
 6 -0.51235537303730  6.45945981398140  1.12906799659966
 6 -4.19538807570757  5.63561196609661 -0.81968274397440
 1 -0.28638620352035  0.40682638823882  0.00298974567457
 1  3.06784079867987 -1.08297029912991 -1.01043055165517
 1  2.46541779267927 -3.00276498339834 -2.15084751945195
 1  1.26937371667167 -4.25169708730873 -2.68582094859486
 1 -5.50278208440844 -1.97247563666367  2.30143230373037
 1  5.00133044324432  0.09491420792079 -1.32827598059806
 1  6.14051601720172  1.31153546284628 -0.58217951755176
 1 -2.87719581528153 -0.07828333213321 -0.68362126772677
 1  0.60467679937994  1.75346652965296 -0.51078055015502
 1 -1.66407199839984 -4.75599770397040 -0.93064387008701
 1 -2.30119374907491 -3.62288999099910 -2.20526984718472
 1 -0.92012196329633 -4.29180735513551 -2.46708031103110
 1 -2.64581833963396 -3.72512866126613  0.63232047904790
 1  1.15085089178918 -5.17208969146915 -0.27880159765977
 1  2.49637882368237 -5.33084579307931 -1.30943545744574
 1  4.58373279427943 -0.74310036113611  1.03842442864286
 1  5.59539373897390  0.50228466506651  1.71650612131213
 1  4.44227174747475  4.65743621102110 -0.68833881658166
 1  5.53096971977198  3.58943166236624  0.32642916611661
 1  4.37805722312231  4.56081158925893  1.09280058395840
 1  1.89875570757076  5.00169009860986  0.40011979887989
 1 -7.76711948354835 -2.44364035853585  1.10437513151315
 1 -7.26942258655866 -3.94776254215422  1.40821318921892
 1 -6.95968415241524 -3.43480124362436 -0.02383079387939
 1 -6.78425576727673 -0.29158949024902  0.27639956785678
 1 -4.84984982678268  1.28724292119212 -0.79900374847485
 1 -6.49275110481048  0.74628225652565 -1.71937861636164
 1 -4.67794629012901  0.21399824602460 -1.89833104580458
 1 -3.31488136743674  6.34990764656466  1.00600830483048
 1 -4.19755743324332  4.77451658385839  1.06221835963596
 1 -0.05305073977398  6.34769672957296  2.30405313781378
 1 -1.41411279457946  7.27115381088109  1.12731198759876
 1  0.34053324092409  6.86947544804480  0.28174450865087
 1 -3.70692098789879  6.16677256035604 -1.65896371247125
 1 -5.11459328242824  6.12449519051905 -0.74868000970097
 1 -4.36398091919192  4.42460395269527 -1.18707844624462
 1  3.67724303080308 -4.33778800900090  2.04191282828283
 1  7.91092833753375 -1.91342199449945  1.75099526212621

