%nproc=4
%Mem=4GB
# td=(NStates=1) B3LYP/SVP 

TD

0 1
 8 -4.41136125692569 -4.63074315551555  1.95729109270927
 8  2.92891348944895 -4.69700424962496  1.46331426322632
 8  7.13195357675768 -1.52674021512151  1.80694091459146
 8  3.58844057685769 -3.03173229842984  0.08766162456246
 8  7.52402115411541 -0.69377075637564 -0.24192376167617
 8 -3.07840816961696  2.49293669116912 -0.06674157875788
 7 -0.32272665436544 -0.57181653145315 -0.54977361356136
 7  1.55098278097810  1.77198957775778 -0.46409807190719
 7 -3.37516445944594 -3.08414746154615  0.65060353165317
 7 -0.78471987488749  2.92660307850785 -0.15292031593159
 6  0.64839607200720 -2.56080151845185 -1.23848593169317
 6  0.84115304910491 -1.20946089718972 -0.90955351065107
 6 -0.77174149924993 -2.66109999939994 -1.18139833923392
 6 -1.29555166136614 -1.45582922482248 -0.74857632353235
 6  3.78016595789579  1.42684717001700 -0.39730594699470
 6  2.45408610161016  0.78941027282728 -0.67532909150915
 6  2.20134713901390 -0.59957610341034 -0.94988723372337
 6  3.53238707560756  2.77279528772877 -0.04262503540354
 6  1.64546569906991 -3.55779104490449 -1.81543174417442
 6 -5.60539987518752 -2.57592950255026  1.29335927592759
 6 -3.69191125402540 -1.84213927592759  0.04816860186019
 6  2.15547980818082  3.03991041924192 -0.09827730473047
 6 -5.04840103640364 -1.48028353155316  0.30933957285729
 6  5.08497697579758  0.69151882188219 -0.38761181758176
 6 -2.68311927412741 -1.13261003260326 -0.63080349474947
 6 -1.49488742644264 -3.88879338163816 -1.90394363806381
 6 -4.42742020882088 -3.54710321602160  1.37717683228323
 6  2.07520799679968 -4.60785300500050 -0.82678553435344
 6  5.52954283058306 -0.12229829372937  0.82874098019802
 6  4.56988277447745  3.82275350665067  0.38517070087009
 6  1.32477371877188  4.11246565406541  0.20800091959196
 6 -6.92220335093509 -3.19167654745475  1.06768623472347
 6 -5.82969157165717 -0.61287601750175 -0.40092156655666
 6 -0.09811480048005  4.02677734933493  0.18118674427443
 6 -0.88683964566457  5.20601169416942  0.42556718531853
 6 -2.26063138933893  4.68136425922592  0.40635203810381
 6  2.90658349964997 -4.06986360546055  0.25589698869887
 6 -5.31112577337734  0.15269049764977 -1.55766683368337
 6  6.80734330053005 -0.79895817991799  0.71763488608861
 6 -3.48128388768877  5.40158645684568  0.69420023512351
 6 -2.14900833713371  3.28439063036304  0.08463938873887
 6 -0.58196233373337  6.57550141814181  0.98826391619162
 6 -4.10259879677968  5.80647905280528 -0.68019879557956
 1 -0.44754231913191  0.47517322292229 -0.02543309660966
 1  3.14365838043804 -1.15345734783478 -1.16273578217822
 1  2.48920017091709 -2.94448915581558 -1.93599603430343
 1  1.24122090139014 -3.98377029462946 -2.67422978947895
 1 -5.65003680988099 -2.12599098819882  2.39816197669767
 1  5.12879318951895  0.11969668616862 -1.30665381838184
 1  5.95970793639364  1.34762907220722 -0.81832313191319
 1 -2.98915701140114 -0.04472997679768 -0.57054996059606
 1  0.54434076577658  1.89342052505251 -0.44345381748175
 1 -1.49591518271827 -4.81471357555756 -1.18857966366637
 1 -2.58647227692769 -3.86544424642464 -2.23657297749775
 1 -0.87568751985199 -4.05666384078408 -2.84424802780278
 1 -2.47435119291929 -3.58455460386039  0.68549579657966
 1  1.30497630433043 -5.06906938943894 -0.16050976847685
 1  2.38799798559856 -5.47912062056206 -1.45211972587259
 1  4.70788520952095 -0.98346439753975  1.10228081428143
 1  5.69467366696670  0.52991742834283  1.69625409610961
 1  4.65695321562156  4.71070153755376 -0.37554753745374
 1  5.66637326012601  3.36995971517152  0.38046456965697
 1  4.38178759615962  4.09034454255425  1.35966727062706
 1  1.79698553055306  5.03702363196320  0.29451923882388
 1 -7.73594636623662 -2.50297629212921  1.52651734573457
 1 -6.81856750105010 -4.25220298619862  1.58408077597760
 1 -7.08329651365136 -3.50298806230623 -0.01052946374637
 1 -6.92474981668167 -0.55544587588759 -0.29569764186419
 1 -4.66198103990399  0.94992918981898 -1.10523437153715
 1 -6.08111994169417  0.65698332663266 -2.00226690519052
 1 -4.60266876237624 -0.37939109290929 -2.32348356105611
 1 -3.37157703700370  6.31912456825683  1.30679838383838
 1 -4.02713039053905  4.84033316551655  1.15329746754675
 1 -0.03533896859686  6.75070703060306  1.96990972347235
 1 -1.53347473077308  7.18378507400740  1.00147940434043
 1  0.08857804540454  7.03441194169417  0.16005233943394
 1 -3.33035333113311  6.39978586168617 -1.21416923302330
 1 -4.81189301240124  6.66977971897190 -0.56649179087909
 1 -4.63190771187119  4.84819631193119 -1.05790552895289
 1  3.63426873337334 -4.06914114431443  2.09246788378838
 1  8.09319656435644 -1.86835748804881  1.70200036263626

