%nproc=4
%Mem=4GB
# td=(NStates=1) B3LYP/SVP 

TD

0 1
 8 -4.43353347414742 -4.70650073127313  2.01633699729973
 8  2.73226382448245 -4.94927947714771  1.31134906670667
 8  7.22478285968597 -1.28192573367337  1.91388160866087
 8  3.46761849464947 -3.06458558375838  0.30365322372237
 8  7.77719647164716 -0.53296467576758 -0.08180775007501
 8 -2.98441877067707  2.44788218571857 -0.18274317891789
 7 -0.29425380708071 -0.53984333413341 -0.54852348854885
 7  1.52575025772577  1.80480285908591 -0.29444110621062
 7 -3.44361130413041 -3.15522456925693  0.58932740404040
 7 -0.70230163306331  2.88474889308931 -0.03994901880188
 6  0.58221945434543 -2.40983642194219 -1.33221530463046
 6  0.95841477527753 -1.12940289138914 -0.96954951025103
 6 -0.76405073017302 -2.58167205660566 -1.31520171957196
 6 -1.31497360356036 -1.39695333723372 -0.80602206810681
 6  3.75977391869187  1.38669315461546 -0.43069928632863
 6  2.47076776977698  0.82249358115812 -0.63460501910191
 6  2.21208821312131 -0.46559270507051 -0.96548879387939
 6  3.59739357625763  2.68421642984298 -0.00931170407041
 6  1.59925107760776 -3.45152041784178 -1.94375457645765
 6 -5.56746608180818 -2.67634954455446  1.34871481148115
 6 -3.67902996589659 -1.84891995399540  0.10878466346635
 6  2.11662592279228  2.94572100030003  0.03777630063006
 6 -5.11368756505651 -1.59358486168617  0.35558419731973
 6  5.19823830193019  0.65735540554055 -0.50934399079908
 6 -2.70470143234323 -1.05374214581458 -0.52288270267027
 6 -1.52648058575858 -3.82364686698670 -1.83547679137914
 6 -4.43323078987899 -3.61659016471647  1.37564667926793
 6  1.89906038203820 -4.46143836353635 -0.84942779857986
 6  5.51550142644264 -0.10212627652765  0.73655176127613
 6  4.68679446564656  3.76331756305631  0.09411159495950
 6  1.38759000040004  4.05127953545355  0.29247936743674
 6 -6.97755888648865 -3.38852623242324  0.87459692579258
 6 -5.87810641314131 -0.62380711061106 -0.23366484088409
 6 -0.03209819881988  3.98234290589059  0.24055268086809
 6 -0.91593255495550  5.16697779077908  0.47391201980198
 6 -2.25346067226723  4.70290641344134  0.36459786268627
 6  2.79592243354335 -4.09926654575457  0.25312671167117
 6 -5.42013667446745  0.40496572517252 -1.15597666466647
 6  6.90724329052905 -0.71082936703670  0.76787991059106
 6 -3.47790354965497  5.45817211541154  0.51035185028503
 6 -2.08249168546855  3.23947613891389  0.09551047584758
 6 -0.43905804330433  6.50841470947095  0.85446053585359
 6 -4.20037857475748  5.69940834573457 -0.89612038773877
 1 -0.38559612451245  0.31756746234623 -0.07001755505551
 1  3.08124213881388 -1.24377637973797 -1.18726823542354
 1  2.46213746464646 -3.15794050095010 -2.37050948564857
 1  1.04577135643564 -3.93446536413641 -2.72337470397040
 1 -5.67930973717372 -2.22252064116412  2.18273043354335
 1  5.07928823902390 -0.17689297279728 -1.40446359935994
 1  5.82552451805180  1.46255056435644 -0.70145144474447
 1 -2.95548364406441  0.03157765396540 -0.64245715131513
 1  0.31378771047105  1.85074625762576 -0.26150562266227
 1 -1.59584517571757 -4.71955405960596 -1.27748855455546
 1 -2.69252288198820 -3.51758946094609 -1.69469879007901
 1 -1.06831678277828 -4.04695286968697 -2.77771137413741
 1 -2.59322308010801 -3.63227937633763  0.41899914691469
 1  0.94974078077808 -4.95634811731173 -0.48300201770177
 1  2.60860004580458 -5.10730343884388 -1.35507002090209
 1  4.87309173017302 -0.90849690079008  0.63886447264726
 1  5.37287148674868  0.38011244784478  1.64274874557456
 1  4.41052857315732  4.66081654905491 -0.50831081378138
 1  5.59570619341934  3.44301702090209 -0.20752422922292
 1  4.82478189558956  4.08180368846885  1.10276158005801
 1  1.84683051505150  5.00561049064906  0.68519830673067
 1 -7.61464423602360 -2.61008700320032  1.06172086608661
 1 -7.28287393169317 -4.29700746664666  1.41727409530953
 1 -6.82814099809981 -3.76463422692269 -0.27995640644064
 1 -6.90157749944995 -0.52497282858286  0.03511543944394
 1 -4.72499734153415  1.15249944684468 -0.57071091919192
 1 -6.25281711141114  1.06330395869587 -1.64635131363136
 1 -5.05829432493249 -0.08242139593959 -2.08447966066607
 1 -3.34266414571457  6.29313196899690  1.19850755475548
 1 -4.23881155865587  4.82870200240024  0.99867200500050
 1  0.29343390869087  6.43768572847285  1.64188692119212
 1 -1.47760914421442  7.01089778527853  1.29064832123212
 1  0.10667985558556  7.07841634213421  0.10966730093009
 1 -3.57034733053305  6.24828071117112 -1.72656047214721
 1 -5.19043086618662  6.22837557855786 -0.82199734143414
 1 -4.53690821192119  4.81632312461246 -1.31057079547955
 1  3.40897620412041 -4.43502773297330  1.93901253825383
 1  8.13563080778078 -1.78852950525053  2.03763392599260

