%nproc=4
%Mem=4GB
# td=(NStates=1) B3LYP/SVP 

TD

0 1
 8 -4.47716783758376 -4.75570565176518  1.92694805840584
 8  3.01132173027303 -5.02139668886889  1.15086301810181
 8  6.89848022942294 -1.60306784788479  2.04062428292829
 8  3.82227396019602 -3.23361248644865  0.03893675207521
 8  7.72337108910891 -0.50796217551755  0.14490492119212
 8 -3.05967629642964  2.63175057255726 -0.25967087168717
 7 -0.28120250195020 -0.62345169496950 -0.51600023622362
 7  1.62566024872487  1.81238361716172 -0.35450711281128
 7 -3.46061300430043 -3.16611565836584  0.66020449174918
 7 -0.71399280218022  3.00681109930993 -0.15577060096010
 6  0.62469370177018 -2.52546798509851 -1.36674875797580
 6  0.91636056985699 -1.12188213931393 -1.00460301560156
 6 -0.69442376747675 -2.75375926532653 -1.23001320072007
 6 -1.26655876207621 -1.53018666056606 -0.74292575847585
 6  3.75551349264926  1.41351583688369 -0.44512072847285
 6  2.44978567156716  0.82085341714171 -0.65232679127913
 6  2.15489249354935 -0.44051019681968 -1.08710095509551
 6  3.57866170307031  2.73637164536454 -0.10256102900290
 6  1.63619477197720 -3.44472973877388 -1.99975017601760
 6 -5.62298163336334 -2.60038194779478  1.44747468746875
 6 -3.69227129002900 -1.88326338833883  0.15433921892189
 6  2.13870813101310  3.00179660786079 -0.14167164416442
 6 -5.01593779007901 -1.47814331753175  0.43371201010101
 6  5.10853933203320  0.65649531953195 -0.46751980838084
 6 -2.71629259145915 -1.19536630823082 -0.44330474487449
 6 -1.48951688938894 -3.96648115041504 -1.82495573927393
 6 -4.49456692349235 -3.62914141984198  1.45002411701170
 6  2.12039251525153 -4.55585780548055 -1.05446830263026
 6  5.39678955525553 -0.02273833773377  0.99055716181618
 6  4.62621840804080  3.74562579387939  0.35826801060106
 6  1.33837507890789  4.17225163266327  0.10262038153815
 6 -7.02957408800880 -3.20226760656066  1.18245771187119
 6 -5.86344494699470 -0.59615434533453 -0.20230170457046
 6 -0.04726971597160  4.15058973057306  0.10734936053605
 6 -0.97912887458746  5.30102119511951  0.37101172977298
 6 -2.22551787798780  4.80165628842884  0.39355075797580
 6  3.00397323862386 -4.14615123422342  0.08928032703270
 6 -5.38461312211221  0.38433366196620 -1.24390545754575
 6  6.75826839303930 -0.71459974407441  0.90546366896690
 6 -3.55196095539554  5.47634393259326  0.57875869096910
 6 -2.09435287158716  3.29904209550955 -0.00040911611161
 6 -0.44903904140414  6.58284215221522  0.81789687948795
 6 -4.29725826272627  5.76842524742474 -0.72872364806481
 1 -0.59669723462346  0.31228693429343 -0.21859241254125
 1  2.99757377197720 -0.92440444254425 -1.35707521612161
 1  2.50187143804380 -2.76396110301030 -2.25643807850785
 1  1.41714849414942 -3.86456837443744 -3.02392475897590
 1 -5.56120792699270 -2.15145353445345  2.38911107160716
 1  5.03704401460146  0.05523023952395 -1.27123027602760
 1  5.97111907750775  1.32873718301830 -0.72584388398840
 1 -2.97758585428543 -0.28154365816582 -0.63393629922992
 1  0.49396572827283  2.01224240724072 -0.50660013211321
 1 -1.70595618681868 -4.77192929712971 -0.97103790949095
 1 -2.51739536923692 -3.76971467346735 -2.18425774597460
 1 -1.09770972207221 -4.31432960736074 -2.85643924692469
 1 -2.69917367516752 -3.91988813721372  0.61402864986499
 1  1.33023883058306 -5.32295477797780 -0.80204392189219
 1  2.87817700350035 -5.36306901540154 -1.49164367826783
 1  4.69872429342934 -0.85976202730273  1.20501108730873
 1  5.53431763136314  0.86408084468447  1.66041051175117
 1  4.83271079137914  4.60864133153315 -0.33302328502850
 1  5.60496711951195  3.15105782498250  0.59086560976098
 1  4.29945936333633  4.14568007610761  1.34372567646765
 1  1.94788062006201  5.12996292589259  0.03924371127113
 1 -7.83038581018102 -2.49401539603960  1.55730042404240
 1 -7.16063170747075 -4.20313807970797  1.63819618751875
 1 -7.22209039303930 -3.42634039753975  0.21175276447645
 1 -6.87353469516952 -0.74022435373537  0.02274420232023
 1 -5.06157099889989  1.29417361426143 -0.87871171927193
 1 -6.25117694739474  0.79332696099610 -1.80546722522252
 1 -4.65889438493849 -0.24921807560756 -1.98575978867887
 1 -3.41074095339534  6.38503115891589  1.12340004400440
 1 -4.39403708120812  4.81703083528353  1.24594673247325
 1  0.09263382868287  6.32350431033103  1.69475220772077
 1 -1.30903228652865  7.38727542304230  0.87702695909591
 1  0.37114630223022  7.07794629512951  0.10293662786279
 1 -3.83593388918892  6.31737762086209 -1.39622743884388
 1 -5.10086190929093  6.41159390039004 -0.41523666536654
 1 -4.59539406050605  5.02119361166117 -1.55836557495750
 1  3.48428373487349 -4.61587581778178  1.79495813281328
 1  7.68054529922992 -1.90813146544655  1.95345550815082

