%nproc=4
%Mem=4GB
# td=(NStates=1) B3LYP/SVP 

TD

0 1
 8 -4.72980310111011 -4.77178725992599  1.80643600720072
 8  3.04560515861586 -4.87651220042004  1.33832176397640
 8  6.93631401280128 -1.34648218931893  1.94528474897490
 8  3.71791352415242 -3.02178130333033  0.13037589598960
 8  7.64395314731473 -0.57599897919792 -0.10901047034703
 8 -2.96505683448345  2.43625102260226 -0.09339424402440
 7 -0.32759714141414 -0.55092444224422 -0.62117075327533
 7  1.53378106080608  1.74817719651965 -0.37982964506451
 7 -3.44409135213521 -3.10659970677068  0.73035150645065
 7 -0.71517292019202  3.00432085028503 -0.10716574047405
 6  0.61669290169017 -2.57987342564256 -1.27425950905091
 6  0.91434036783678 -1.16975692679268 -0.83544609990999
 6 -0.66660098519852 -2.79370325972597 -1.16091629102910
 6 -1.30223232943294 -1.55483912581258 -0.72049351525153
 6  3.77878581988199  1.46238072337234 -0.57022323872387
 6  2.48830952395239  0.75630696249625 -0.61841339993999
 6  2.22246925122512 -0.55424156995700 -0.87750999599960
 6  3.52719655655566  2.74918292649265 -0.18358913181318
 6  1.70787193969397 -3.50041530733073 -1.85152535353535
 6 -5.68081741694169 -2.52854476407641  1.18979891989199
 6 -3.62728479137914 -1.79253431543154  0.06076986198620
 6  2.14334859505951  2.98822525072507 -0.10000747774777
 6 -5.08649484578458 -1.42025752895290  0.33194183308331
 6  5.05360383848385  0.61904157415742 -0.55375843224322
 6 -2.64707566976698 -1.19528630023002 -0.44812522692269
 6 -1.40957889558956 -4.02187668996900 -1.71640488418842
 6 -4.64517198399840 -3.67251575727573  1.28071718631863
 6  2.10956143214321 -4.58104032373237 -0.80889374517452
 6  5.38326820312031 -0.13800986488649  0.73103120922092
 6  4.62379816601660  3.82168339963996 -0.01667948414841
 6  1.33639488088809  4.11183559105911  0.12891301080108
 6 -7.00796192679268 -3.09293667346735  0.80059952605260
 6 -5.80644924742474 -0.46049077897790 -0.21328280268027
 6 -0.03698868786879  4.12592726432643  0.25521414701470
 6 -0.93428439013901  5.24286537953795  0.43262789138914
 6 -2.22464779097910  4.74426054885488  0.40700210311031
 6  3.04165700700070 -4.07341396049605  0.32355375437544
 6 -5.37388204900490  0.45408063666367 -1.32572363936394
 6  6.83019558575858 -0.67718600270027  0.72007513011301
 6 -3.56013177247725  5.36513281148115  0.69270008510851
 6 -2.08026146244624  3.17848003930393  0.13927485228523
 6 -0.45343948144814  6.60946481448145  0.97225231503150
 6 -4.30890942784278  5.55299370427043 -0.58142891859186
 1 -0.39083664856486  0.35738144374437 -0.03257381068107
 1  3.09551356595660 -1.30364236633663 -1.17379688828883
 1  2.73642489338934 -3.00652535943594 -2.11569400410041
 1  1.33341012031203 -3.85724764236424 -2.81786415291529
 1 -5.66981878807881 -2.12417080618062  2.19630179067907
 1  5.17835814601460  0.09064378087809 -1.32724587758776
 1  5.86861882748275  1.27507181648165 -0.79108040764076
 1 -2.88526662236224 -0.15441094489449 -0.79822272787279
 1  0.44108043974397  1.85162634563456 -0.36206567866787
 1 -1.44810040124012 -4.71977408160816 -0.92734354005400
 1 -2.44286791649165 -3.69079678167817 -1.96773609380938
 1 -0.74044399549955 -4.63746192059206 -2.59948355135514
 1 -2.35230898869887 -3.45840198859886  0.67132437943794
 1  1.25729153585358 -5.08243072557256 -0.42889660716072
 1  2.69453863966397 -5.35767847634764 -1.22272678657866
 1  4.78654307530753 -1.16721277237724  0.71963254945495
 1  5.28818301790179  0.32729716631663  1.75317978867887
 1  4.24304182448245  5.00433090049005 -0.42423240594059
 1  5.77442406520652  3.70654337353735 -0.40423390019002
 1  4.75492490989099  3.91944745284528  1.11165246914691
 1  2.14859069106911  4.91926185578558  0.55988577547755
 1 -7.87742051365137 -2.47263325782578  0.90172486648665
 1 -7.43216886118612 -3.98526629252925  1.52577494539454
 1 -7.04523270727073 -3.33053081658166 -0.26866527732773
 1 -6.93754109580958 -0.23350368166817  0.22510443834383
 1 -4.71394623642364  1.34652884978498 -0.96755060316032
 1 -6.32087391709171  0.96947457575758 -1.82081876037604
 1 -4.71362985848585  0.04205105130513 -2.16771798449845
 1 -3.39892977227723  6.39899255505551  1.29836754075408
 1 -4.06277395489549  4.79886901910191  1.52429456725673
 1  0.05250981628163  6.47082904280428  1.87906063856386
 1 -1.20959234253425  7.42978967446745  1.02206146254625
 1  0.36376556415642  6.79463796429643  0.13168950315032
 1 -3.71704200000000  6.06651253435344 -1.33283109920992
 1 -5.30100192329233  6.03689643064306 -0.27351249294929
 1 -4.42733725482548  4.64164565686569 -1.15925566396640
 1  3.49651495799580 -4.58675290549055  2.10137877487749
 1  7.86448369306931 -1.83506415871587  1.94068423102310

