%nproc=4
%Mem=4GB
# td=(NStates=1) B3LYP/SVP 

TD

0 1
 8 -4.67699782058206 -4.89292937413741  1.79335469906991
 8  2.91813241134113 -4.83202775197520  1.26995492729273
 8  7.21776215761576 -1.45734327542754  1.86568678917892
 8  3.71282301510151 -3.18323744894489  0.05866872527253
 8  7.64026277827783 -0.36711809110911 -0.10520008930893
 8 -3.05201553035304  2.59199659715972 -0.16149105370537
 7 -0.25543992569257 -0.67453680348035 -0.47954659085909
 7  1.49762744544454  1.76680905970597 -0.34239590169017
 7 -3.51504844784478 -3.19881892869287  0.68188665996600
 7 -0.68657005990599  3.02246266446645 -0.06870189408941
 6  0.71061229362936 -2.57341277957796 -1.42832491559156
 6  0.93695262906291 -1.23158310941094 -0.84761731703170
 6 -0.79367369246925 -2.78462235163516 -1.21714191359136
 6 -1.27438954515452 -1.58320196209621 -0.73090455635564
 6  3.79470741204120  1.36271075637564 -0.24077029342934
 6  2.46453714671467  0.81907323912391 -0.52165372397240
 6  2.27033403770377 -0.52390853665367 -0.67160940594059
 6  3.55200903780378  2.70189819801980  0.00556978407841
 6  1.63408456095610 -3.57772303810381 -1.96952715371537
 6 -5.62891222642264 -2.65801771137114  1.34360430043004
 6 -3.63877594049405 -1.88182324432443  0.18958274327433
 6  2.10383464366437  3.02237866606661 -0.03201067806781
 6 -5.04850104640464 -1.61748725192519  0.46853549244925
 6  5.02772125022502  0.59885955595560 -0.45099815621562
 6 -2.63537449964997 -1.17957472907291 -0.41901231563156
 6 -1.38068600630063 -3.92055655795580 -1.91538478217822
 6 -4.56519398619862 -3.70204871057106  1.38555767036704
 6  2.04121459745975 -4.63736595629563 -0.96256911271127
 6  5.35845572187219 -0.19463552745275  0.78875698179818
 6  4.62028781498150  3.85240647194719  0.24347653145315
 6  1.38215945734573  4.17582198969897  0.11878199769977
 6 -7.03089422002200 -3.19181656145615  0.97133659975998
 6 -5.83220182268227 -0.53415814571457 -0.05330680508051
 6 -0.04370935993599  4.17199187078708  0.20383900950095
 6 -0.96240720242024  5.32497359035904  0.44214884348435
 6 -2.22259758595860  4.79631575437544  0.20556195909591
 6  2.90217305860586 -4.06645326442644  0.20343174217422
 6 -5.37929259005901  0.48183341194119 -1.10002106910691
 6  6.83290585678568 -0.73053133723372  0.72545566816682
 6 -3.50697645694569  5.47318361656166  0.43148396349635
 6 -2.05130856715672  3.35998819011901 -0.06633570877088
 6 -0.53634777227723  6.63400726872687  0.87425251505151
 6 -4.23206174307431  5.95073347824782 -0.91425220092009
 1 -0.20556812171217  0.20996670227023 -0.04531508480848
 1  3.13307732233223 -1.09379138123812 -0.58341785038504
 1  2.47432868376838 -3.20337504440444 -2.39328176287629
 1  1.22756953625363 -4.00042195979598 -2.88891125762576
 1 -5.66779858605861 -2.45718410751075  2.40966312681268
 1  4.83304361456146 -0.15892117561756 -1.21340449344935
 1  5.83171513711371  1.13256756605661 -0.64736603620362
 1 -2.99285738143814 -0.08954445824582 -0.72685559115912
 1  0.51836816851685  1.87352853585359 -0.65545501760176
 1 -1.18647423862386 -4.94871697589759 -1.60020082578258
 1 -2.48291192089209 -3.88298600060006 -2.03115243544354
 1 -0.98222817391739 -4.07339551395139 -3.03677728072807
 1 -2.56925068286829 -3.87958410681068  0.32057930493049
 1  1.28450425712571 -5.09274175667567 -0.33716743424342
 1  2.77742692849285 -5.35350805930593 -1.52448696259626
 1  4.80032445344534 -1.29420547164716  1.01193177937794
 1  5.10948514811481  0.44341877847785  1.75633010371037
 1  4.52588010831083  4.62477294469447 -0.49756973967397
 1  5.71598822162216  3.41169388858886  0.07889441264126
 1  4.50292971037104  4.25264077217722  1.22638394229423
 1  1.85661149314932  5.18325825542554  0.18889867676768
 1 -7.66448922052205 -2.41403739823982  1.29013370737074
 1 -7.22004764906491 -3.97048481438144  1.69711207910791
 1 -7.22236042004200 -3.64945270877088 -0.09572798359836
 1 -6.87711505320532 -0.56832716401640  0.35131705960596
 1 -4.62483732553255  1.31436563346335 -0.74483833193319
 1 -6.47882971267127  1.14671229952995 -1.42938961746175
 1 -4.85455395089509  0.00843768996900 -2.01023223592359
 1 -3.42506238553855  6.23586624242424  1.13731143514351
 1 -4.15070274777478  4.90284941714171  1.16645878367837
 1 -0.13124855955596  6.82325428532853  1.91824455695570
 1 -1.34950633393339  7.54137083258326  0.95944520092009
 1  0.22143133073307  7.04473297379738  0.23767010121012
 1 -3.63655395119512  6.73101898499850 -1.35682349844985
 1 -5.26354817791779  6.33635637663766 -0.89174431613161
 1 -3.96725124622462  5.23583507580758 -1.78958869726973
 1  3.75977128362836 -4.30736496669667  1.81708034503450
 1  8.11431867656766 -1.64832548484849  1.63775393799380

