%nproc=4
%Mem=4GB
# td=(NStates=1) B3LYP/SVP 

TD

0 1
 8 -4.52872299309931 -4.74357443864386  1.80421578517852
 8  2.68815941404140 -4.78368291749175  1.43076100790079
 8  7.21935231663166 -1.28582612371237  1.75416563706371
 8  3.72044377717772 -3.16378550375038  0.22797565596560
 8  7.53333208520852 -0.48412979227923 -0.33328289758976
 8 -3.02852318111811  2.34812220972097 -0.19400430503050
 7 -0.27650203190319 -0.55719506930693 -0.84772340854085
 7  1.58686636933693  1.74739711851185 -0.39991165326533
 7 -3.44446138913891 -3.15926497329733  0.54074254555456
 7 -0.72175357825783  2.94012443064306 -0.18256328022802
 6  0.66652788518852 -2.56246168446845 -1.40481256435644
 6  0.98285721952195 -1.16309626072607 -0.95927848314831
 6 -0.79407373247325 -2.64596848624862 -1.23198339773977
 6 -1.36062816901690 -1.46984062596260 -0.76365783168317
 6  3.80113805510551  1.43586807210721 -0.38883509990999
 6  2.51683237623762  0.86062739453945 -0.61147270587059
 6  2.24616162046205 -0.57165331113111 -0.87935018001800
 6  3.63032686958696  2.69136714491449  0.06863609070907
 6  1.65906705920592 -3.56062132793279 -1.79243944494449
 6 -5.56291562676268 -2.49510141974197  1.29226916691669
 6 -3.72032409530953 -1.92634769676968  0.13203698869887
 6  2.13753801400140  2.92915934413441 -0.03554103110311
 6 -5.00683687998800 -1.43248875207521  0.37099573847385
 6  5.13754223232323  0.72383205320532 -0.52345540194019
 6 -2.66198716091609 -1.08498527012701 -0.55749616401640
 6 -1.50912885058506 -3.82876737903790 -1.66208945264526
 6 -4.53050051685168 -3.64856336203620  1.25721483608361
 6  2.02937341334133 -4.60350256995700 -0.80759361516152
 6  5.52881275757576 -0.02140820472047  0.71992009810981
 6  4.65812159835984  3.73923515481548  0.62839502330233
 6  1.34675591699170  4.02662707020702  0.24885500500050
 6 -7.03530466106611 -3.02317969776978  1.10882034813481
 6 -5.75962456495650 -0.50808553845385 -0.20246172057206
 6 -0.07146213521352  4.00214488608861  0.22918154375438
 6 -0.98005896759676  5.16427752075208  0.52559718831883
 6 -2.25403072927293  4.69549567236724  0.46431783468347
 6  2.87464030533053 -4.10779739883988  0.32014341334133
 6 -5.41370603140314  0.29834506310631 -1.28782984998500
 6  6.87737030323032 -0.66229451355135  0.68387150975098
 6 -3.61098685798580  5.28699499769977  0.63790460556056
 6 -2.07037047334733  3.17546973827383 -0.01706078127813
 6 -0.51983612111211  6.57724159215922  0.71059614941494
 6 -4.17803634053405  5.72070047494750 -0.71995277097710
 1 -0.26826439133913  0.35851155675568 -0.27322787608761
 1  3.12061607620762 -0.96988899099910 -1.07396690529053
 1  2.56904815571557 -3.35042974987499 -2.21747418211821
 1  1.23336011531153 -4.19479139673967 -2.58967133363336
 1 -5.63145495169517 -1.99407779687969  2.28196035653565
 1  4.96549685988599 -0.03457874137414 -1.34580773377338
 1  5.85722768836884  1.45987029632963 -0.98871017061706
 1 -2.86014411011101 -0.12986849064906 -0.83141604720472
 1  0.53728005970597  1.63594477747775 -0.31574104620462
 1 -1.69749534073407 -4.49950205440544 -0.80222102780278
 1 -2.45212884258426 -3.32855055705571 -2.22238155835583
 1 -0.92232218331833 -4.40684885928593 -2.49669327232723
 1 -2.56975073287329 -3.54821096949695  0.61977922492249
 1  1.09374518121812 -5.02660514301430 -0.25402912041204
 1  2.30719990579058 -5.63658636713671 -1.26443095699570
 1  4.86061048204821 -0.87193324442444  1.23422400860086
 1  5.47537173677368  0.65406984358436  1.46640111081108
 1  4.23233075337534  4.87847831523152  0.38607862516252
 1  5.54600122292229  3.30729344854485  0.20280680388039
 1  4.77293671107111  3.62122763086309  1.86049735363536
 1  1.80332616461646  4.98587851745174  0.51088087498750
 1 -7.79555232683268 -2.11086708120812  1.28876357035704
 1 -7.35344098839884 -4.00859862576258  1.71265363326333
 1 -7.29054723872387 -3.30258802230223  0.08092968216822
 1 -6.70027736943694 -0.72362269356936  0.10552248014801
 1 -4.64850969276928  1.28806300320032 -1.07223107120712
 1 -6.25786761646165  0.69615724402440 -2.01576825532553
 1 -4.73388188368837 -0.16621977577758 -2.06285749844984
 1 -3.61740161946195  6.22149480528053  1.28525622962296
 1 -4.15563324082408  4.40636976917692  1.18228036583658
 1  0.05316988228823  6.59607156705671  1.68543127562756
 1 -1.31884326762676  7.30441713721372  0.91066032243224
 1  0.14008319591959  6.99405790629063 -0.07945161096110
 1 -3.44292458825883  6.57348323142314 -1.08386620272027
 1 -5.25936775987599  6.01876461746175 -0.51469661136114
 1 -4.19880440154015  5.00865235753575 -1.58485822422242
 1  3.37451275777578 -4.49819404960496  1.90865950295030
 1  8.31082832753275 -1.64064471677168  1.78120828342834

