%nproc=4
%Mem=4GB
# td=(NStates=1) B3LYP/SVP 

TD

0 1
 8 -4.45884600540054 -4.78388847004700  1.82370773437344
 8  2.89368996709671 -4.85446999619962  1.29286721852185
 8  6.84327470887089 -1.54077161826183  2.01786200670067
 8  3.80228196099610 -3.18134725992599  0.01280413881388
 8  7.68193694569457 -0.55824720402040  0.16693712441244
 8 -2.94587491629163  2.42823022052205 -0.16471137573757
 7 -0.27686206790679 -0.49082843264326 -0.67065570177018
 7  1.54011169386939  1.89584196299630 -0.50204186628663
 7 -3.50582752575257 -3.19409845664566  0.51683015431543
 7 -0.60350175307531  2.92022244044404 -0.19220424432443
 6  0.64134536693669 -2.50495593389339 -1.45375745884588
 6  0.90346928072807 -1.14217416851685 -0.99419197449745
 6 -0.77731205630563 -2.59225311471147 -1.33958415781578
 6 -1.24705681188119 -1.36876051795179 -0.68146961286129
 6  3.82433037433743  1.47656214151415 -0.48742495889589
 6  2.49393008600860  0.84232556435644 -0.70965252385239
 6  2.17984498879888 -0.56348249404940 -1.04754699969997
 6  3.58139197609761  2.79107711591159 -0.23967474037404
 6  1.66404755725573 -3.49353461926193 -1.94531473247325
 6 -5.63657299249925 -2.54411632123212  1.43315325532553
 6 -3.61791385428543 -1.89287434943494  0.07836162116212
 6  2.09408366856686  2.96255268346835 -0.06364384138414
 6 -5.06188238453845 -1.51898740194019  0.42761140004000
 6  5.15606408450845  0.70778044804480 -0.39723277967797
 6 -2.62871383358336 -0.94324109570957 -0.37056747114711
 6 -1.49084702240224 -3.78145264756476 -1.76562980668067
 6 -4.53604107090709 -3.64145265096510  1.32063117771777
 6  2.03464394039404 -4.53229544924492 -0.83546640244024
 6  5.35559543584358 -0.20881694559456  0.86961506760676
 6  4.55265105130513  3.80548177947795  0.22521470527053
 6  1.44614585598560  4.13491789928993  0.23106322582258
 6 -7.00061119171917 -3.11971935173517  1.22167163326333
 6 -5.84458306080608 -0.55708043794379 -0.12813428782878
 6  0.04684969596960  4.08418308990899  0.12127075267527
 6 -0.87978894059406  5.16543763676368  0.43021765036504
 6 -2.15798112431243  4.66075219801980  0.32346374927493
 6  2.98161100240024 -4.06077269636964  0.21345274427443
 6 -5.44126878767877  0.37249247784778 -1.20285135213521
 6  6.72129469566957 -0.79053733783378  0.92942606520652
 6 -3.50811657095710  5.32404870307031  0.64309512461246
 6 -2.03907734403440  3.24695688698870 -0.05168424362436
 6 -0.46140027752775  6.59136300430043  0.89246433623362
 6 -4.51198973587359  5.50435884078408 -0.70002077777778
 1 -0.52278984388439  0.39606531213121 -0.20220077337734
 1  2.79950396499650 -1.07545954805481 -1.38407791639164
 1  2.67054830573057 -2.91161586848685 -2.27002943764376
 1  1.17402418171817 -4.00866278387839 -2.74090645714571
 1 -5.49496130233023 -2.21142953205321  2.51055321582158
 1  5.18297860806081 -0.11354663816382 -1.08936208920892
 1  6.08852081768177  1.36097040634063 -0.49664096369637
 1 -2.97334543024302 -0.03670917471747 -0.55526843244324
 1  0.52874920662066  1.94030521352135 -0.72573204530453
 1 -1.49644523572357 -4.55530763496350 -1.09046985268527
 1 -2.44137776747675 -3.58706640864086 -2.17072639283928
 1 -0.90799075017502 -4.05652382678268 -2.76243984698470
 1 -2.45899965776578 -3.48931507990799  0.58526577357736
 1  1.11637744444444 -4.94301678417842 -0.36820053755376
 1  2.56779596539654 -5.52035474397440 -1.26531104500450
 1  4.59298371937194 -0.81681773287329  1.03373395959596
 1  5.29734393399340  0.62579701630163  1.65062953365337
 1  4.58582610291029  4.77975844324432 -0.38484846754675
 1  5.63115973877388  3.41766448564856  0.12099862306231
 1  4.55937535493549  4.13097860596060  1.29417072097210
 1  1.94265009700970  5.08424835443544  0.48080786768677
 1 -7.81355412701270 -2.46031202570257  1.36617131113111
 1 -7.22303794809481 -4.02322008790879  1.95057742564256
 1 -7.15983416741674 -3.71606937043704  0.14533612281228
 1 -6.87083442514251 -0.41951228252825  0.16130805870587
 1 -4.84119896169617  1.21097529442944 -0.83664751285129
 1 -6.36137796749675  0.69569719801980 -1.68941562006201
 1 -4.83531202670267 -0.12492564636464 -1.94531574427443
 1 -3.32582246154615  6.24646730253025  1.21083878787879
 1 -4.17023470097010  4.71908104030403  1.42036417421742
 1  0.13230779607961  6.69091105100510  1.78834156665667
 1 -1.41624300760076  7.24783147864787  0.59343860026003
 1  0.46979616721672  6.69507800830083  0.09210554475448
 1 -4.16285658145815  6.33956984008401 -1.44595241134113
 1 -5.53781560466047  5.65162790379038 -0.14144928662866
 1 -4.64378889999000  4.41782327462746 -1.16961670007001
 1  3.61064637113711 -4.56070030023002  1.80249888688869
 1  7.77125437013701 -1.81492214451445  2.07054721732173

