%nproc=4
%Mem=4GB
# td=(NStates=1) B3LYP/SVP 

TD

0 1
 8 -4.35196531733173 -4.71699178037804  1.98043340694069
 8  2.81903250135014 -4.77991254045404  1.25468340014001
 8  7.05920630203020 -1.55739328042804  1.76705692619262
 8  3.69235096789679 -3.17642676787679  0.05728858725873
 8  7.67850660266027 -0.49850122942294 -0.08872844214421
 8 -2.97417774657466  2.46924432193219 -0.19642454705471
 7 -0.35423980568057 -0.53409275907591 -0.68930756695670
 7  1.54944262696270  1.80483286208621 -0.25138680078008
 7 -3.40807775077508 -3.14817386418642  0.63505197649765
 7 -0.77367877077708  2.89253967216722 -0.04836986088609
 6  0.59376060846085 -2.40960639893989 -1.47743982708271
 6  0.85572450625063 -1.15736568766877 -1.07045960126013
 6 -0.86417074217422 -2.57586147554755 -1.26012621202120
 6 -1.31507361356136 -1.38226186808681 -0.89056052195219
 6  3.87410535183518  1.36829131443144 -0.30341655805581
 6  2.50970166316632  0.77697902970297 -0.58315987458746
 6  2.19245624992499 -0.50819696549655 -0.89555180018002
 6  3.55317915481548  2.71078908710871  0.04915414251425
 6  1.64157531003100 -3.44175944174417 -1.88960916191619
 6 -5.53644297949795 -2.67755966556656  1.31675161516152
 6 -3.65108717161716 -1.89683474547455  0.16797058205821
 6  2.12771703190319  2.93477990619062  0.02642516551655
 6 -5.10557675397540 -1.57366286948695  0.39430806970697
 6  5.07641611971197  0.60981065106511 -0.40182323872387
 6 -2.72482344454445 -1.06534330593059 -0.51040145454545
 6 -1.48005594329433 -3.86934143644364 -1.70802404610461
 6 -4.35368283508351 -3.68202670837084  1.49632874747475
 6  1.91648212421242 -4.52549476917692 -0.89263211901190
 6  5.46310618691869 -0.19203526742674  0.85172327842784
 6  4.55077086328633  3.77383861516152  0.47043922772277
 6  1.36206744814481  4.14586899439944  0.26584670417042
 6 -6.88616974757476 -3.30874825462546  1.03995346144614
 6 -5.87816641914191 -0.53468819871987 -0.03865533993399
 6 -0.06348133713371  4.03540821242124  0.32083070867087
 6 -0.97254821652165  5.23641473447345  0.50710533913391
 6 -2.22142746894689  4.80558668146815  0.28691009390939
 6  2.87090993229323 -4.09331595069507  0.11426282528253
 6 -5.40768542934293  0.46047127572757 -1.14693576057606
 6  6.90753331953195 -0.68187647174717  0.80303342594259
 6 -3.59409516881688  5.51422772097210  0.31600241534153
 6 -2.07057049334934  3.26294848614861 -0.04166324152415
 6 -0.44765890339034  6.51630549854986  0.85538062786279
 6 -4.10664920182018  5.60870927582758 -1.09233000870087
 1 -0.42233979887989  0.30445615121512 -0.36665721902190
 1  3.12133614821482 -1.15941794389439 -1.06501601020102
 1  2.59645089598960 -2.76702140904090 -2.06978941364136
 1  1.27084386368637 -3.78073999159916 -2.84219658615862
 1 -5.68646045224522 -2.22780116921692  2.38644080458046
 1  5.01725203540354 -0.04433971747175 -1.17799095209521
 1  6.12318428402840  1.22498680798080 -0.62638393799380
 1 -2.96129422512251 -0.03481898569857 -0.55142804840484
 1  0.47532386408641  1.90066124912491 -0.40838031013101
 1 -1.47439303050305 -4.90502260646065 -1.13138394409441
 1 -2.59109273897390 -3.79701740374037 -1.95717503770377
 1 -1.14356430753075 -4.09818799319932 -2.82290589358936
 1 -2.36327008480848 -3.41417756615662  0.60173742074207
 1  0.88546435313531 -4.81871435393539 -0.46705042254225
 1  2.25747493329333 -5.52288499699970 -1.43819833373337
 1  4.72017643864386 -0.85388143924392  1.13637422362236
 1  5.28516271587159  0.62037647424742  1.63884835553555
 1  4.90327784808481  4.64095456285629 -0.18130811351135
 1  5.45335195799580  3.45225794499450  0.59046556975698
 1  4.22310172757276  4.17533304140414  1.37406871077108
 1  1.89332516451645  5.04503443304330  0.67301708860886
 1 -7.79435220682068 -2.59031502600260  1.09753444744474
 1 -6.97001264556456 -4.47617538343834  1.58001036893689
 1 -6.79747793179318 -3.67928569206921 -0.00662907370737
 1 -6.96292363406341 -0.41875220652065  0.43040496839684
 1 -4.89636447824782  1.25414961186119 -0.77659150725072
 1 -6.25212704240424  0.74730235853585 -1.74421109960996
 1 -4.89893838933893 -0.15104825862586 -1.93362457515752
 1 -3.54646452575258  6.56078873467347  0.62793049704971
 1 -4.31900957845785  4.86323545574557  0.75639777757776
 1  0.00086465176518  6.69354131403140  1.92493522602260
 1 -1.17116850015001  7.31905860136014  0.87355661206121
 1  0.36967615521552  6.62717121762176  0.01551788598860
 1 -3.27271756755676  6.07946382948295 -1.67872568866887
 1 -4.86770859395940  6.19971271227123 -0.99515465716572
 1 -4.41501602270227  4.46256774907491 -1.57222696109611
 1  3.46794210071007 -4.25227945814581  1.84609324632463
 1  7.90726797149715 -1.89310996329633  1.64479464206421

