%nproc=4
%Mem=4GB
# td=(NStates=1) B3LYP/SVP 

TD

0 1
 8 -4.52871299209921 -4.68142822402240  1.89886525012501
 8  3.00613121122112 -4.79901445064506  1.40435836763676
 8  7.27533791519152 -1.15687322842284  2.00132035253525
 8  3.97026875967597 -3.27982710791079  0.13025588398840
 8  7.61192994499450 -0.61278265756576 -0.26238580788079
 8 -2.98302863166317  2.37162455995600 -0.07462236683668
 7 -0.38747312901290 -0.57852720252025 -0.74888352455246
 7  1.48713639633963  1.76536891569157 -0.47590925302530
 7 -3.52714965796580 -3.12325137193719  0.64814328562856
 7 -0.81969337223722  2.81437185538554 -0.02141716561656
 6  0.60199143154315 -2.40632607090709 -1.38952103520352
 6  0.88140707450745 -1.16516646774677 -0.98049060436044
 6 -0.82490681578158 -2.70956484588459 -1.15744594399440
 6 -1.39377148334833 -1.43767740964096 -0.75382684858486
 6  3.75261320262026  1.31707619291929 -0.43517973437344
 6  2.47387808080808  0.77184851665167 -0.73741530013001
 6  2.13625062936294 -0.54553069886989 -0.94520676567657
 6  3.47532136903690  2.65294330253025 -0.17248802170217
 6  1.71886303880388 -3.42530779657966 -1.82258245924592
 6 -5.65451478667867 -2.48896080568057  1.27584752475248
 6 -3.69523158605861 -1.87932299429943 -0.02084829982998
 6  2.06406066626663  2.89542597079708 -0.14373185018502
 6 -5.09088528482848 -1.46061156435644  0.28265690459046
 6  5.13197167526753  0.67497716771677 -0.45102815921592
 6 -2.67961892409241 -0.97550432203220 -0.50071048544854
 6 -1.47334527222722 -4.00009451175117 -1.76511975567557
 6 -4.54234170097010 -3.62613111881188  1.28845796039604
 6  1.98452892889289 -4.50455267496750 -0.79472232803280
 6  5.45938581488149 -0.06333239713971  0.76776488258826
 6  4.37471325752575  3.70358158945895  0.55625780958096
 6  1.36782802420242  3.97934234173417  0.37907802730273
 6 -7.05512664326433 -3.09506688648865  1.02415188128813
 6 -5.86065466796680 -0.49862459235924 -0.26792826722672
 6  0.00254526552655  3.93406807840784  0.28388701430143
 6 -0.89469043074307  5.18477957095710  0.49166379497950
 6 -2.14807013321332  4.70601672447245  0.38657005990599
 6  3.07743058435844 -4.03240986008601  0.29028042704270
 6 -5.49802446324632  0.60236546514651 -1.23191425842584
 6  6.97493005920592 -0.53279156325633  0.71927505010501
 6 -3.47437319661966  5.32177847604761  0.51913272837284
 6 -2.08811224752475  3.21212340364036 -0.01094016921692
 6 -0.32908704620462  6.45392926092609  0.85267035683568
 6 -4.16924546144614  5.66056446134614 -0.78564934063406
 1 -0.25331289618962  0.30466617221722 -0.33841439473947
 1  3.09513352795280 -1.11338334043404 -1.07568707730773
 1  2.77117836873687 -3.06329103600360 -2.25909834453445
 1  1.07353413271327 -4.00657257485749 -2.65402776927693
 1 -5.59633143934393 -2.13169155825583  2.33037519801980
 1  4.98639895009501  0.00318503500350 -1.42642579557956
 1  6.08390035563556  1.41503581288129 -0.94301560116012
 1 -3.01924001970197  0.09952444864486 -0.59967287288729
 1  0.47164349604961  1.63933511651165 -0.36875634773477
 1 -1.01382697389739 -5.11015311951195 -1.43453425912591
 1 -2.48689231893189 -3.88880658265827 -1.58372769296930
 1 -1.26325627672767 -3.94042221662166 -3.04848845184518
 1 -2.73381713951395 -3.77752390079008  0.51047829482948
 1  1.11328713541354 -4.82881536403640 -0.33275699319932
 1  2.34323350915092 -5.37994070257026 -1.23275778967897
 1  4.74605902690269 -0.87009306040604  0.92753333953395
 1  5.29689388898890  0.43278771537154  1.69179365006501
 1  4.04329184948495  4.72501296869687  0.48068808610861
 1  5.42991961476148  3.50863358255826 -0.24998847564756
 1  4.65443486088609  3.35140064816482  1.84008531243124
 1  1.88664449644965  4.96625655525553  0.53701348824882
 1 -7.80473324492449 -2.42145814031403  1.22013670767077
 1 -7.15284092839284 -3.83045081098110  1.65641800970097
 1 -7.25175335933593 -3.49994775827583  0.04387597679768
 1 -6.98343568526853 -0.60951128242824  0.14688661656166
 1 -5.13420826262626  1.41083528042804 -0.75547939603960
 1 -6.34867669736974  0.87632526082608 -1.96236291479148
 1 -4.65282377787779  0.13863070927093 -1.79473068576858
 1 -3.16558643794379  6.22631528732873  1.07747545154515
 1 -4.11783946144614  4.73000213241324  1.22555469326933
 1  0.43531809710971  6.61071303120312  1.61669440194019
 1 -1.07034841814181  7.22345904140414  1.15879513591359
 1 -0.04481529392939  6.88841734223422 -0.27555122092209
 1 -3.61727202300230  6.19220510361036 -1.21406922302230
 1 -5.09993181628163  6.40463320432043 -0.38848399009901
 1 -4.42608712981298  4.78399989228923 -1.35266500490049
 1  3.80129543604361 -4.48298252845284  1.94681331833183
 1  8.28207545224523 -1.52788344064406  1.92300246284628

