%nproc=4
%Mem=4GB
# td=(NStates=1) B3LYP/SVP 

TD

0 1
 8 -4.21123124392439 -4.75115519671967  1.92395775937594
 8  2.84587518561856 -4.67228177737774  1.24308224002400
 8  7.00017039843984 -1.71031857295730  1.88336855735574
 8  3.78689042184218 -3.19683880908091 -0.11083822542254
 8  7.73992274427443 -0.58722010131013  0.06469690039004
 8 -2.93282361116112  2.40242764026403 -0.34449935453545
 7 -0.34937931963196 -0.49380873067307 -0.62691132733273
 7  1.55331301400140  1.72837521632163 -0.21738340044004
 7 -3.28330527352735 -3.01981102790279  0.77189566086609
 7 -0.72786418931893  2.90080049824982 -0.11249627352735
 6  0.52780401280128 -2.45242068036804 -1.39474155725573
 6  0.83661259505951 -1.10805075617562 -1.00327288258826
 6 -0.89655398049805 -2.56611050045005 -1.22740293969397
 6 -1.32383448964896 -1.38092173407341 -0.82289375527553
 6  3.79102704400440  1.49021350665066 -0.30378659505951
 6  2.50914160716072  0.85328666046605 -0.56269782838284
 6  2.16668367266727 -0.43486963276328 -0.86958920392039
 6  3.59018285518552  2.75761376957696  0.08757798489849
 6  1.50903205570557 -3.46415168096810 -1.92825302630263
 6 -5.51882121732173 -2.66690860046005  1.40743068306831
 6 -3.67303936683668 -1.73512857485749  0.16069985498550
 6  2.15258951915192  2.95465189338934  0.02544506750675
 6 -5.04880107640764 -1.51145664886489  0.43338197709771
 6  5.05887436553655  0.62755242524252 -0.44302735913591
 6 -2.72231319351935 -0.93836060766077 -0.54389480388039
 6 -1.64700263796380 -3.79821432373237 -1.72927617131713
 6 -4.34636210301030 -3.64652315801580  1.39932904750475
 6  1.96451692769277 -4.56478869856986 -0.85890874667467
 6  5.41575145144514 -0.17955401930193  0.79393749984998
 6  4.65291107730773  3.82617384868487  0.44469665346535
 6  1.37424866626663  4.11987639513951  0.16864698419842
 6 -6.94860599119912 -3.39551693149315  0.94251371747175
 6 -5.81031963446345 -0.60509523942394 -0.03652512691269
 6  0.02919793079308  3.95969064066407  0.20320894649465
 6 -0.93996495819582  5.22878397139714  0.36219084768477
 6 -2.22198752495250  4.72886900970097  0.27218862176218
 6  2.97248008930893 -4.01950856995700  0.14916631563156
 6 -5.49665432623262  0.39215444404440 -1.23185425242524
 6  6.75291785798580 -0.81077936203620  0.81007413001300
 6 -3.49623538283828  5.36654295249525  0.42664347944794
 6 -2.11686512281228  3.29532172347235 -0.10680975617562
 6 -0.54761889938994  6.51001486948695  0.83080817061706
 6 -4.26574511141114  5.66792519741974 -0.91881265696570
 1 -0.73643120802080  0.37186289188919 -0.25935648894890
 1  2.92536655125513 -1.32693469556956 -1.09906941554155
 1  2.37393864476448 -3.13657836473647 -2.50304273897390
 1  0.83905068436844 -3.99271118871887 -2.67490985748575
 1 -5.75253705990599 -2.49467785688569  2.49920208070807
 1  4.93454376457646 -0.20767605110511 -1.23304645764576
 1  6.03158512411241  1.30781509080908 -0.72336363596360
 1 -2.95677377307731  0.15134963116312 -0.53323622922292
 1  0.53906023772377  1.95956713971397 -0.21622109420942
 1 -1.57639323052305 -4.45542764696470 -0.94803560926093
 1 -2.62140577027703 -3.64512221422142 -2.03725304550455
 1 -0.97187713881388 -4.20434860926093 -2.46249985298530
 1 -2.10384414221422 -3.26752290069007  0.66244349134913
 1  1.09453526022602 -4.99533201570157 -0.39408312581258
 1  2.59874906070607 -5.34273698219822 -1.52422693659366
 1  4.71181560256026 -0.94429048014801  0.78505909210921
 1  5.18129232883288  0.54494893149315  1.67368183888389
 1  4.40938845914591  4.83567403480348 -0.08561854455446
 1  5.61135775857586  3.56004872407241  0.08867539073907
 1  4.62929234663466  3.99977548564856  1.50185148904890
 1  1.83244907690769  5.03950387998800  0.57384717161716
 1 -7.94408718031803 -2.94431042554255  1.19035372937294
 1 -6.82228787308731 -4.44803256915691  1.35680804870487
 1 -6.74492267626763 -3.52189995349535 -0.20050846164616
 1 -6.91625896759676 -0.58379871117112  0.22019394729473
 1 -5.12639748154815  1.30307450435043 -0.83034688278828
 1 -6.34873670337034  0.49434706300630 -1.98729540804080
 1 -4.79761825732573 -0.10711386518652 -1.72048326102610
 1 -3.28989886918692  6.45147780358036  0.91722942694269
 1 -4.18444612211221  4.69242837503750  1.16305844364436
 1 -0.05649108380838  6.55378733863386  1.82990572307231
 1 -1.35537692099210  7.18997569306931  0.95962521892189
 1  0.13107229482948  6.77294579507951  0.02590892509251
 1 -3.25353564936494  6.23131901500150 -1.57904572067207
 1 -5.23663548664867  6.19642238323832 -0.84259940164016
 1 -4.53512803390339  4.76976846914691 -1.30670040844084
 1  3.49020432693269 -4.51728595879588  1.94344298129813
 1  7.98200544524452 -2.00165081738174  1.73288345094509

