%nproc=4
%Mem=4GB
# td=(NStates=1) B3LYP/SVP 

TD

0 1
 8 -4.55769589038904 -4.73579366056606  1.76157152075208
 8  2.68836943504350 -4.56435098429843  1.28838677047705
 8  7.06890727212721 -1.42390993209321  1.88633885438544
 8  3.95055678847885 -3.22340146534653 -0.06489363096310
 8  7.74235298729873 -0.40850222952295  0.04070450115012
 8 -3.05744607340734  2.50280767826783 -0.19429433403340
 7 -0.32314669636964 -0.57879722952295 -0.60207884408441
 7  1.57926560926093  1.74854723352335 -0.30321198329833
 7 -3.45208215121512 -3.06011505830583  0.63087155845585
 7 -0.76760816371637  2.83658407660766 -0.09201422532253
 6  0.59515074747475 -2.46470190849085 -1.44580666376638
 6  0.87986692049205 -1.16306625772577 -0.95206776207621
 6 -0.82792711781178 -2.67628151755176 -1.30291049044904
 6 -1.32890499669967 -1.48774241614161 -0.70717218311831
 6  3.75029297059706  1.37218170347035 -0.35120133653365
 6  2.55070576357636  0.73623495529553 -0.55875743434343
 6  2.20000700500050 -0.55041118691869 -0.83694593959396
 6  3.55400923782378  2.75242325052505  0.04489371647165
 6  1.59262041454145 -3.53826909270927 -1.91252145314531
 6 -5.55198453365337 -2.53613552315232  1.37608754875488
 6 -3.66369843274327 -1.78754381638164  0.23689747474747
 6  2.19111337153715  2.88509493769377 -0.02897037403740
 6 -5.06391258755876 -1.42244774797480  0.42265090399040
 6  5.06186466456646  0.81030070007001 -0.40427348374837
 6 -2.67966892909291 -1.01824859645965 -0.45995641004100
 6 -1.53981191889189 -3.86414091639164 -1.79489273297330
 6 -4.54369183598360 -3.67414592029203  1.31922103670367
 6  2.01466194219422 -4.59549176887689 -0.86630948674867
 6  5.39904978127813 -0.10995705960596  0.74299240534053
 6  4.55507129332933  3.85118634993499  0.17113929772977
 6  1.33443468486849  4.00254466196620  0.31818193769377
 6 -6.90891202180218 -3.14104148394840  1.14216368246825
 6 -5.85244384688469 -0.58325305520552 -0.16353782818282
 6  0.01544655565557  3.93549822142214  0.13395202080208
 6 -0.95931689338934  5.11469256225623  0.57629225782578
 6 -2.18230355655566  4.64931105390539  0.36520792369237
 6  2.99254209550955 -4.00077669676968  0.09870126912691
 6 -5.45485014581458  0.51019624822482 -1.13516458345835
 6  6.85735830203020 -0.66679496359636  0.82073519611961
 6 -3.61703746304630  5.20187648584858  0.39915073017302
 6 -2.04688812511251  3.20098228952895 -0.01398047324732
 6 -0.34695883338334  6.40380424842484  0.93854894469447
 6 -4.11298983588359  5.58877728262826 -0.99358013371337
 1 -0.32557012191219  0.38289399499950 -0.15743629692969
 1  3.03531754635463 -1.20816281838184 -1.31168067666767
 1  2.65401665256526 -3.08122282918292 -2.28324075877588
 1  1.15427220652065 -4.20677259485949 -2.75257762426243
 1 -5.56501830803080 -1.96312470157016  2.18908106860686
 1  5.06240655085509  0.05694041054105 -1.24153730673067
 1  5.74907687328733  1.46805111441144 -0.38080938053805
 1 -2.78098619431943  0.09010350655066 -0.59889279487949
 1  0.69486581828183  1.62868405140514 -0.26912638473847
 1 -1.78509410061006 -4.50208231243124 -1.09290009570957
 1 -2.64097772747275 -3.64833253525353 -2.15323464366437
 1 -1.24510446154615 -4.38104627902790 -2.72570617361736
 1 -2.68155191299130 -3.74852100050005  0.44752199919992
 1  1.19915572227223 -4.94778726122612 -0.37394111161116
 1  2.38949813561356 -5.44760746924692 -1.69527404130413
 1  4.70272469346935 -1.06780283138314  0.87200778697870
 1  5.45768996859686  0.46586102270227  1.75372984368437
 1  4.56179369966997  4.70244071147115 -0.61828181088109
 1  5.50084670747075  3.33917663686369  0.27331385458546
 1  4.51520093749375  4.46938244634463  1.11709301320132
 1  1.92290812281228  4.86239616921692  0.58774856175618
 1 -7.62580535213521 -2.20461645614562  1.09860455445545
 1 -7.12615826012601 -3.77734550045005  2.04737710561056
 1 -6.88525670967097 -3.65704346784679  0.23605519471947
 1 -6.95054239593959 -0.47471780308031  0.05583751165117
 1 -5.14468931073107  1.36387058395840 -0.51787563566357
 1 -6.24679650935093  0.95823345164516 -1.86306298479848
 1 -4.58262675817582  0.09867671387139 -1.73126433913391
 1 -3.76401628092809  6.07587024282428  1.13044074807481
 1 -4.44474215171517  4.51747087928793  0.88961109890989
 1  0.20333489878988  6.25520748064806  1.85008774127413
 1 -1.05156653995400  7.14445114061406  1.12375163156316
 1  0.41472065966597  6.78845734623462  0.21843817801780
 1 -3.41645194099410  6.29039492259226 -1.65374319041904
 1 -5.12140396349635  5.89848258925893 -1.00283542524252
 1 -4.24530905200520  4.65993748604861 -1.63382312071207
 1  3.23653896039604 -4.13198742894290  2.05866450345034
 1  8.03147039173917 -1.40900155245525  1.88341850445045

