%nproc=4
%Mem=4GB
# td=(NStates=1) B3LYP/SVP 

TD

0 1
 8 -4.45720584138414 -4.79211929312931  1.73825918951895
 8  2.94769536763676 -4.76347089628963  1.41451938373837
 8  6.91833221462146 -1.70986852795280  1.71643186368637
 8  3.59613134593459 -3.01818094329433  0.26517937633763
 8  7.54432318431843 -0.60562194149415 -0.10919048834883
 8 -2.96428675747575  2.53797119461946 -0.04592949754976
 7 -0.28056243794379 -0.51393074287429 -0.60831946814681
 7  1.57172485518552  1.81821420022002 -0.46681834393439
 7 -3.28449539253925 -3.10531957875788  0.58369684098410
 7 -0.84590599349935  2.94452487068707 -0.15669069296930
 6  0.67554878727873 -2.49142458075808 -1.29752183528353
 6  0.89146808060806 -1.24819477057706 -0.88997155245525
 6 -0.72820714581458 -2.65908979837984 -1.32858305770577
 6 -1.26599870607061 -1.44750839273927 -0.78651011691169
 6  3.77572551385138  1.38134261956196 -0.31964818121812
 6  2.41844253725373  0.82811414321432 -0.63211477007701
 6  2.21610861516152 -0.57773391919192 -0.75620786578658
 6  3.55047888478848  2.73371137933793 -0.00890166306631
 6  1.71730288278828 -3.48753401920192 -1.76391659265927
 6 -5.61712104730473 -2.61265317491749  1.37316725672567
 6 -3.64087615051505 -1.90584564656466  0.04603838883888
 6  2.09356361656166  3.00539696789679  0.00108263126313
 6 -5.07478367466747 -1.61565706890689  0.35693433233323
 6  5.15226370447045  0.73629329932993 -0.43699675607561
 6 -2.64578554075408 -1.15252202380238 -0.58233864826483
 6 -1.37373531123112 -3.92670717301730 -1.80717396109611
 6 -4.39268673547355 -3.65124363006301  1.22928204280428
 6  1.97652812881288 -4.48237045674567 -0.75523837963796
 6  5.43417329362936 -0.12767883178318  0.73802190829083
 6  4.50085587178718  3.72422365366537  0.28199038283828
 6  1.27045828722872  4.13211761926193  0.11824194369437
 6 -6.96385751635164 -3.20842822262226  0.99891935803580
 6 -5.79829843234323 -0.62700743064306 -0.20809228362836
 6 -0.05374036303630  3.99955462706271  0.11737036263626
 6 -0.85144610631063  5.19714080708071  0.39352398099810
 6 -2.18541386758676  4.76044216701670  0.48853025592559
 6  3.01648448974897 -4.06944356345635  0.29455085408541
 6 -5.44679934073407  0.44812004060406 -1.08421948894889
 6  6.71710427662766 -0.77156544064406  0.67524064666467
 6 -3.53750951025103  5.44587088528853  0.63731454655466
 6 -2.11555499179918  3.34099629092909  0.04537546234623
 6 -0.41807594509451  6.65127899589959  0.68080317011701
 6 -4.21505004190419  5.78804720962096 -0.71068184388439
 1 -0.41243880878088  0.30417612321232 -0.25904645794579
 1  2.93109712431243 -1.17950995309531 -0.89365887448745
 1  2.62412366326633 -2.98330303720372 -2.06541897659766
 1  1.22625940524052 -3.91170308790879 -2.72945531203120
 1 -5.52176398259826 -2.27484587368737  2.38851101160116
 1  5.39437974817482 -0.08934421792179 -1.21931508450845
 1  5.99712167776778  1.49313362266227 -0.36171747134713
 1 -2.94095219091909 -0.00119562336234 -0.90011291689169
 1  0.51758809050905  1.84747593059306 -0.44590406250625
 1 -1.51073666486649 -4.68415051925193 -1.01292209790979
 1 -2.48135176487649 -3.79139684168417 -2.21891121132113
 1 -0.97998794989499 -4.33289146354635 -2.72860646364636
 1 -2.43940769856986 -3.78489463786379  0.55589283628363
 1  1.05742154885489 -4.80563304580458 -0.22065578307831
 1  2.43764295009501 -5.35975868436844 -1.31059557345735
 1  4.85783020402040 -1.00049610071007  0.86623720992099
 1  5.41479567916792  0.48788322492249  1.52321679237924
 1  4.41565908620862  4.68327879527953 -0.29295927862786
 1  5.76160278307831  3.53581630083008  0.32646917011701
 1  4.38912833023302  4.17473298139814  1.21331263516352
 1  1.61562739473947  5.24239416901690  0.21418120502050
 1 -7.74829760136014 -2.49478547304730  1.21967666166617
 1 -7.12273791809181 -4.26742450835084  1.47823019091909
 1 -7.18034621862186 -3.55406316981698 -0.04340275107511
 1 -6.77289463116312 -0.63236356765677 -0.03203127522752
 1 -4.84079892169217  1.33737793469347 -0.53587743584358
 1 -6.29552138183818  1.03717134543454 -1.63256993549355
 1 -4.93254174967497  0.02688953515352 -1.96720793349335
 1 -3.40930080938094  6.29338199399940  1.25448315231523
 1 -4.27022469997000  4.77570670287029  1.10542268006801
 1  0.19695426072607  6.83365532543254  1.57698043054305
 1 -1.24030541384138  7.36300299579958  0.73944320072007
 1  0.06493568116812  7.22119061956196 -0.29382304810481
 1 -3.61339163496350  6.41632751585159 -1.38670648674867
 1 -5.27808963206321  6.27452019301930 -0.62796793849385
 1 -4.35071959305931  4.95577707000700 -1.25438517691769
 1  3.34288959545955 -4.23247747794779  2.01903054005401
 1  7.77808505320532 -2.14768542084208  1.26038620122012

