%nproc=4
%Mem=4GB
# td=(NStates=1) B3LYP/SVP 

TD

0 1
 8 -4.58034815561556 -4.80842092329233  1.77559292289229
 8  2.93060365846585 -4.92760730993099  1.29355728752875
 8  7.22781316271627 -1.48930647174717  1.71714193469347
 8  3.91107284008401 -3.17049617481748  0.17662052045205
 8  7.54374312631263 -0.56981836113611 -0.38595816511651
 8 -2.97455778457846  2.54813221072107 -0.27215211981198
 7 -0.22861724342434 -0.61990133993399 -0.46198483468347
 7  1.54971265396540  1.84479685848585 -0.23095475757576
 7 -3.54389133213321 -3.17853690049005  0.51269974127413
 7 -0.74531593449345  2.85967638583858 -0.05055007890789
 6  0.59198043044304 -2.51038647694769 -1.38519060216022
 6  0.88446738053805 -1.16603655475548 -0.91070362566257
 6 -0.78519284438444 -2.65939982938294 -1.29662986238624
 6 -1.33675578177818 -1.42507614951495 -0.66096756265627
 6  3.79124706600660  1.36284076937694 -0.30313653005301
 6  2.45187588058806  0.79592092389239 -0.54154571317132
 6  2.15818282258226 -0.60535668146815 -0.74895714071407
 6  3.56678051495150  2.70278828702870  0.06846607370737
 6  1.71477262976298 -3.44785005080508 -1.85365556655666
 6 -5.65499483468347 -2.56676858645865  1.35404534453445
 6 -3.68819088198820 -1.85064012601260  0.13405719071907
 6  2.11050531073107  2.98641506970697  0.13469599259926
 6 -5.13778997529753 -1.50521602480248  0.37369600850085
 6  5.05961443954395  0.75325499549955 -0.41763481988199
 6 -2.70133109530953 -1.10334710631063 -0.34986540094009
 6 -1.49684762246225 -3.95204970727073 -1.65164840854085
 6 -4.60381784858486 -3.76259476517652  1.23323243784378
 6  2.09347982398240 -4.61765398509851 -0.84193704950495
 6  5.48666854315432 -0.18852491639164  0.76003410951095
 6  4.59260504670467  3.85961719301930  0.37028921272127
 6  1.38965020642064  4.15461986948695  0.34392451195120
 6 -7.04971610221022 -3.04835221502150  1.09348881498150
 6 -5.79206780928093 -0.54341907180718 -0.24180565496550
 6 -0.05689067806781  4.05688035963596  0.27071569716972
 6 -0.92235319701970  5.22958405140514  0.48177280588059
 6 -2.23942926912691  4.71659778257826  0.32316371927193
 6  3.03688652995300 -4.02144876397640  0.20739213821382
 6 -5.32454711551155  0.37576280488049 -1.18638970597060
 6  6.84757732393239 -0.73210149424942  0.59665278787879
 6 -3.55545130443044  5.52437873607361  0.34360517561756
 6 -2.07199063536354  3.21981417271727 -0.08265734093409
 6 -0.51325546304630  6.58063193119312  0.81905699549955
 6 -4.35675421232123  5.75461386628663 -0.95389616531653
 1 -0.37229479437944  0.38469417501750 -0.05878643194319
 1  3.02127614221422 -1.23697569966997 -0.87710721932193
 1  2.66648789968997 -2.93039774667467 -2.08508094279428
 1  1.31808858815882 -3.86526844444444 -2.81316368286829
 1 -5.51904371057106 -2.10017840694069  2.40182234273427
 1  5.07657796799680  0.17774249074907 -1.23072622562256
 1  5.75869783538354  1.61885619491949 -0.67491879147915
 1 -2.76893498919892 -0.00601610541054 -0.78364126972697
 1  0.50286661836184  1.97627881088109 -0.48025749784979
 1 -1.62380797199720 -4.70170227442744 -0.89737054275428
 1 -2.44417804750475 -3.70652835483548 -1.91851117131713
 1 -0.94202415351535 -4.40108828322832 -2.59543314631463
 1 -2.61458521632163 -3.71199734813481  0.59742698969897
 1  1.29023483018302 -5.24143662616262 -0.25795951345135
 1  2.85864505030503 -5.31275398389839 -1.32727724162416
 1  4.89281370237024 -1.26476252735274  1.06604719091909
 1  5.27280147974797  0.38194263086309  1.75105957665767
 1  4.51485900620062  4.96870733813381 -0.07132711541154
 1  5.64768139093909  3.63610632983298  0.07562408560856
 1  4.54507392479248  4.23930943904390  1.54841614551455
 1  1.82441827382738  4.99425935553555  0.74521430833083
 1 -7.72832560416042 -2.17172316681668  1.20391508550855
 1 -7.49624526882688 -3.87198496439644  1.77394976287629
 1 -6.99594777877788 -3.40492825632563  0.06201779097910
 1 -6.79576691839184 -0.45611594289429  0.26798872677268
 1 -5.30639548134813  1.41842603950395 -0.59803365146515
 1 -6.02062389208921  0.53266089438944 -2.14622130063006
 1 -4.18924742024202  0.01078792499250 -1.71061227392739
 1 -3.46218609790979  6.43816647244724  0.68204590859086
 1 -4.34061173867387  5.01310044224422  1.06235837363736
 1 -0.03975941064106  6.68086004590459  1.73145587808781
 1 -1.30516189948995  7.38049474497450  0.76317557395740
 1  0.16175536313631  7.04196269676968  0.16806314051405
 1 -3.81595189098910  6.35305118821882 -1.68205602170217
 1 -5.37598942204220  6.28319106010601 -0.84332947464746
 1 -4.55828034913491  4.76816830913091 -1.57328706710671
 1  3.65877118361836 -4.76826105630563  1.93110174717472
 1  8.21821906660666 -1.78449910221022  1.48820898349835

