%nproc=4
%Mem=4GB
# td=(NStates=1) B3LYP/SVP 

TD

0 1
 8 -4.53203332413241 -4.75673575477548  1.95655101870187
 8  2.80713131123112 -4.84888943814381  1.35007293909391
 8  7.07860824222422 -1.68647618871887  1.65244546504651
 8  3.80665239803980 -3.19612873807381  0.09054191259126
 8  7.81590034203420 -0.33133451275128  0.04629506020602
 8 -2.98477880668067  2.49998739623962 -0.37663256785679
 7 -0.38306268796880 -0.63260261006101 -0.60893953015302
 7  1.54855253795380  1.73339571837184 -0.43478514061406
 7 -3.46405334833483 -3.13660270707071  0.33976244754475
 7 -0.74817622052205  2.90701111931193 -0.17202222612261
 6  0.65451668406841 -2.43063850215021 -1.28332041514151
 6  0.88567750155015 -1.08051800290029 -0.89476203150315
 6 -0.72738706380638 -2.73010690009001 -1.20075027442744
 6 -1.34283638983898 -1.61035467736774 -0.73124459035904
 6  3.81516945824582  1.41572605790579 -0.28030424682468
 6  2.51592228522852  0.77438877067707 -0.59520107870787
 6  2.20921792609261 -0.50113625942594 -0.90717296229623
 6  3.52560639753975  2.69898790699070  0.04126335343534
 6  1.61926307880788 -3.45109037483748 -1.83998419941994
 6 -5.52716205140514 -2.50478238783878  1.41104104410441
 6 -3.65047711061106 -1.90294535653565 -0.05852206720672
 6  2.18034229442944  2.96493292149215 -0.02742021902190
 6 -5.07360355665566 -1.37481298449845  0.38562720162016
 6  5.21756023412341  0.75039470947095 -0.46006906330633
 6 -2.73522448464846 -1.04949172077208 -0.49205962036204
 6 -1.49667760546055 -3.96521102340234 -1.73148639233923
 6 -4.52484995179518 -3.61960046574657  1.27131624622462
 6  2.08312878887889 -4.63894611431143 -0.88464131993199
 6  5.51532140844084 -0.12252831673167  0.85872397849785
 6  4.55614140034003  3.78575980728073  0.33629581338134
 6  1.34085532693269  4.04959936743674  0.33065318481848
 6 -6.91041217181718 -3.05269264906491  1.24650411651165
 6 -5.82216081858186 -0.50886561646165 -0.18724019841984
 6 -0.06914190319032  4.02453712531253  0.22572119771977
 6 -0.92433339503950  5.18117921092109  0.39918454705471
 6 -2.24287961416142  4.67209333213321  0.29527092999300
 6  3.02681552285229 -4.11925854495450  0.25190658965897
 6 -5.53817847864786  0.51832706130613 -1.21768283528353
 6  6.86209877607761 -0.67623590769077  0.77990111271127
 6 -3.57359311861186  5.31608790699070  0.56890770587059
 6 -2.07184062036204  3.24683687498750 -0.11816089128913
 6 -0.55179931743174  6.51842571057106  0.86809189898990
 6 -4.33619215611561  5.73906231113111 -0.73466424212421
 1 -0.61565913081308  0.41432713831383 -0.38729928322832
 1  2.87128114271427 -1.34060606270627 -1.01227073567357
 1  2.40599185008501 -2.95985069196920 -2.45554798949895
 1  1.09377615691569 -4.10497241484148 -2.71331369786979
 1 -5.36293810001000 -1.86042443154315  2.28003016351635
 1  5.28508881908191  0.26411112761276 -1.42931608460846
 1  6.07797976357636  1.48806311561156 -0.43779507910791
 1 -2.95160325602560  0.08574307050705 -0.82397530313031
 1  0.54749108080808  1.98979016201620 -0.42135160726073
 1 -1.68322391359136 -4.78131023522352 -0.98476928262826
 1 -2.42650628032803 -3.56607430943094 -2.06989630983098
 1 -1.07963791489149 -4.69587776217622 -2.56359996299630
 1 -2.49654341214121 -3.68259440784078  0.41632887988799
 1  1.30575638233823 -4.92594507700770 -0.14742846034603
 1  2.67676686248625 -5.21290399889989 -1.63238775267527
 1  5.02311673267327 -0.97837388848885  0.94618520472047
 1  5.35326952655266  0.52204664126413  1.80418488918892
 1  4.31554907520752  4.66032650005001 -0.22888287098710
 1  5.43758038083808  3.65266798599860  0.04802132533253
 1  4.39772919031903  4.10223573167317  1.33492479637964
 1  1.82627845984598  4.94086401600160  0.63846363326333
 1 -7.68478124972497 -2.39311530603060  1.46426112011201
 1 -7.14834047834784 -3.87887565346535  1.79930229812981
 1 -7.15518370237024 -3.20353811731173  0.44016560576058
 1 -6.86318366006601 -0.57494782608261  0.26456838473847
 1 -5.27461230303030  1.50097429432943 -0.82948679677968
 1 -6.27564939463946  0.67667529582958 -2.06024270277028
 1 -4.66589508500850  0.08996584278428 -1.96641785448545
 1 -3.41593147244724  6.23054571037104  1.23748145214521
 1 -4.18373605110511  4.37672680488049  1.20243238103810
 1 -0.00477591229123  6.45606756665667  1.79679241174117
 1 -1.47919930323032  7.13021971747175  0.76357561396140
 1  0.37335652325233  6.83252175267527  0.20222655685569
 1 -3.96704700050005  6.62548843194319 -1.25038285438544
 1 -5.36233805690569  6.08520126112611 -0.33022816451645
 1 -4.62080660176018  4.83378487078708 -1.17435717411741
 1  3.32431773827383 -4.27374160436044  1.92637127412741
 1  7.97844508920892 -1.86382703500350  1.44712487508751

