%nproc=4
%Mem=4GB
# td=(NStates=1) B3LYP/SVP 

TD

0 1
 8 -4.42926304710471 -4.76263634483448  1.88532389598960
 8  2.85585618371837 -4.76925147434743  1.31859979177918
 8  7.07996837823782 -1.48773631473147  1.95154537503750
 8  3.68717044984498 -3.07791691689169  0.12591544994499
 8  7.49644839683968 -0.92939431873187 -0.19073864316432
 8 -3.05574590339034  2.51215861336134 -0.43849875447545
 7 -0.35009939163916 -0.58740809060906 -0.68905754195420
 7  1.61267895059506  1.80412279107911 -0.26056771887189
 7 -3.33884082708271 -3.17417646444644  0.56278474977498
 7 -0.71490289318932  2.89592001020102 -0.07896292019202
 6  0.73629486188619 -2.37855329362936 -1.38221030413041
 6  0.87815674947495 -1.06945689678968 -0.96019857515752
 6 -0.73862818791879 -2.65258914831483 -1.29616981638164
 6 -1.29507161336134 -1.44385802770277 -0.84279574547455
 6  3.79638758005801  1.50469495479548 -0.24667088348835
 6  2.50433112611261  0.79921125292529 -0.55596715531553
 6  2.22898990329033 -0.46428257405741 -0.84298654365437
 6  3.60402423932393  2.78984699289929  0.05564479157916
 6  1.61455260776078 -3.41939720552055 -1.90954115511551
 6 -5.53397273247325 -2.58812072167217  1.40003994399440
 6 -3.55220728362836 -1.83740880288029  0.17035082008201
 6  2.13046730693069  2.93960038823882  0.02541506450645
 6 -5.00310650695069 -1.52918842204220  0.42145078397840
 6  5.11128960706071  0.78959862986299 -0.42871592799280
 6 -2.75173613581358 -1.07697446904690 -0.42103251765177
 6 -1.50486842454245 -3.79867436973697 -1.76981022472247
 6 -4.39834730153015 -3.74093259895990  1.31353046764676
 6  2.00368084408441 -4.58367058675868 -0.91793464926493
 6  5.50525040134013 -0.09135519941994  0.83873197929793
 6  4.52915870207021  3.85509674097410  0.31389357315732
 6  1.36304754615462  4.04779918741874  0.43284340384038
 6 -6.91202233283328 -3.20750813061306  1.20281974807481
 6 -5.83970257275728 -0.61425615551555 -0.17595907030703
 6  0.00017502850285  3.98826349794979  0.20522914851485
 6 -0.97285824752475  5.24306539953995  0.45161979057906
 6 -2.18977430363036  4.69923604640464  0.32073347624762
 6  2.85763860516052 -4.04062068116812  0.16047744674467
 6 -5.60355501630163  0.49793502210221 -1.09867093409341
 6  6.73869643584358 -0.87178546264626  0.71532465506551
 6 -3.52294805410541  5.42691899009901  0.36118693379338
 6 -2.10045348164817  3.21572376367637 -0.17532660786079
 6 -0.50189432693269  6.59871373937394  0.93103819361936
 6 -4.24389292619262  5.53086149104911 -0.96604738043804
 1 -0.44889245414541  0.27281298689869 -0.23178373167317
 1  3.16770078467847 -0.92386438853885 -1.17493700230023
 1  2.71772302320232 -3.06653136003600 -1.98791122582258
 1  1.31371815111511 -3.89935185278528 -2.96459882638264
 1 -5.52472427862786 -2.26679506860686  2.47787994849485
 1  5.19014932513251  0.02630734723472 -1.28634178717872
 1  5.91908387398740  1.52321663096310 -0.70061136073607
 1 -2.85075317101710  0.06068056425643 -0.62756566216622
 1  0.48148448014802  1.90976215921592 -0.58478795089509
 1 -1.42336792799280 -4.69406151035103 -1.11232203790379
 1 -2.62492612231223 -3.58261596359636 -1.98283760396040
 1 -1.43593354445445 -4.26686486088609 -2.83267687068707
 1 -2.49814357215722 -3.66779292769277  0.30532777977798
 1  1.08777458415842 -5.12983546604660 -0.45552927042704
 1  2.69265845164516 -5.26558926742674 -1.56973148704871
 1  4.65968038903890 -0.90546659775978  0.81411199739974
 1  5.61125532513251  0.46649108570857  1.83959843054305
 1  4.52846036633663  4.47804827222722 -0.60545052775277
 1  5.66816343914391  3.27998071727173  0.49679620282028
 1  4.38615803320332  4.39661516961696  1.32475377927793
 1  1.68490432243224  4.94566449604960  0.78229801670167
 1 -7.72165493709371 -2.49692568706871  1.28338303230323
 1 -7.12640828512851 -3.95507327322732  1.91915428332833
 1 -6.92558074207421 -3.41331909540954  0.29431102030203
 1 -6.73632097379738 -0.57847817911791  0.40902283018302
 1 -5.21657649944995  1.53943814071407 -0.69938378647865
 1 -6.61959378907891  0.86483411171117 -1.49688636713671
 1 -4.72890138563856  0.18489533573357 -1.83872508520852
 1 -3.45773565286529  6.47621027682768  1.05324302830283
 1 -4.06976465396540  4.95455458765877  1.02005414321432
 1  0.00027459275928  6.56975893579358  1.83095582808281
 1 -1.29783116641664  7.18568526402640  1.10711996839684
 1  0.26808599619962  7.04547304780478  0.16357269146915
 1 -3.78503879967997  6.19151503460346 -1.51964978107811
 1 -5.29407123022302  5.96315905690569 -0.99021416311631
 1 -4.39884440554055  4.65662715501550 -1.45783552195220
 1  3.69677498399840 -4.45045927612761  1.91271990899090
 1  8.05773301800180 -1.82434308660866  1.71044120672067

