%nproc=4
%Mem=4GB
# td=(NStates=1) B3LYP/SVP 

TD

0 1
 8 -4.58715883668367 -4.72322240344034  1.88291365496550
 8  2.80034063216322 -4.70295484468447  1.31684961676168
 8  6.98290867226723 -1.50147768886889  1.80235045554555
 8  3.82647438023802 -3.17016614181418  0.04286714511451
 8  7.51693044504450 -0.62093347264726 -0.17971754105411
 8 -2.89150947974797  2.35943334083408 -0.22745765036504
 7 -0.20688507020702 -0.51476082588259 -0.50576921312131
 7  1.52006968966897  1.82224460326033 -0.36070773287329
 7 -3.42527947094709 -3.05969501630163  0.63780225152515
 7 -0.69871127402740  2.90772119031903 -0.08785380928093
 6  0.73711494389439 -2.48275371367137 -1.31924400750075
 6  0.97281621542154 -1.23116306740674 -0.83041559685969
 6 -0.67321164626463 -2.66356024542454 -1.14840503990399
 6 -1.29220132633263 -1.44022766466647 -0.64169563546355
 6  3.73247118841884  1.43202768806881 -0.30512672907291
 6  2.43416410941094  0.80055138693869 -0.50108166676668
 6  2.26262326662666 -0.47989413521352 -0.79598184318432
 6  3.58566240314031  2.76110411861186 -0.16414718761876
 6  1.67215836833683 -3.47216248204820 -1.91208140914091
 6 -5.56032536773677 -2.54534644424442  1.36245618561856
 6 -3.72464452735274 -1.81432649464946  0.07355114011401
 6  2.13555781598160  2.97927435563556 -0.10477795479548
 6 -5.05222141844184 -1.48844434763476  0.36449508840884
 6  5.03330180828083  0.60500017001700 -0.50566362276228
 6 -2.69993095529553 -1.11286805840584 -0.43000341474147
 6 -1.36816475417542 -3.84878938123812 -1.75898914261426
 6 -4.56999446624662 -3.61546005170517  1.36511562616262
 6  2.09599007500750 -4.51250347004700 -0.86901975777578
 6  5.37621749804980 -0.18265432933293  0.84338244434443
 6  4.50812659885989  3.90316154745475  0.06404858865887
 6  1.30332157355736  4.14112852035204  0.21484160366037
 6 -6.98657978857886 -3.19299667946795  1.03035250135014
 6 -5.81347995049505 -0.62788751865187 -0.34295576997700
 6 -0.03338832783278  3.97391206280628  0.31312993859386
 6 -0.95651661336134  5.11306239923992  0.54443907250725
 6 -2.23384871107111  4.62074819761976  0.42182358525853
 6  2.90976381768177 -3.91788840794079  0.20211161016102
 6 -5.31208586938694  0.50343557215722 -1.21686275327533
 6  6.69891245744575 -0.82203048714871  0.69903302590259
 6 -3.60146590589059  5.26076237443744  0.44727554265427
 6 -2.01749518581858  3.19113130443044  0.02777370217022
 6 -0.56859099659966  6.47675154315432  0.98367345714571
 6 -4.15619415631563  5.82253065796580 -0.88831960766077
 1 -0.05014257915792  0.42301800740074  0.03695314201420
 1  3.11270528512851 -1.09515151725173 -0.89763927252725
 1  2.52253350425043 -2.87183189008901 -2.34459689438944
 1  1.02261904120412 -4.07568948654865 -2.69650201670167
 1 -5.55331713791379 -2.13409179827983  2.33215537603760
 1  4.91168147834783 -0.10722600610061 -1.36027918091809
 1  5.85382734833483  1.32857716701670 -0.75417671727173
 1 -2.85380347604760 -0.04062956675668 -0.70552345794579
 1  0.50730706240624  1.80573175617562 -0.40870034213421
 1 -1.31638722992299 -4.85107721192119 -1.04585539123912
 1 -2.28485211491149 -3.55107280928093 -2.03594291449145
 1 -0.79789974107411 -4.25305347974797 -2.60321392439244
 1 -2.51505526332633 -3.46087223562356  0.58133538053805
 1  1.17987379407941 -5.00241272377238 -0.49459317681768
 1  2.86467565336534 -5.25943865236524 -1.57477199109911
 1  4.72421684268427 -1.03045909700970  0.99301988818882
 1  5.53040724032403  0.34800923752375  1.74194866556656
 1  4.53924144444444  4.79551001840184 -0.76855683838384
 1  5.52449907270727  3.33559627882788  0.00924744794479
 1  4.48268768616862  4.31217672577258  0.99312061596160
 1  1.78062389438944  5.07698762836284  0.75238502540254
 1 -7.78415118671867 -2.34970096459646  0.95559025302530
 1 -7.22987863216322 -3.93946171207121  1.63991635953595
 1 -7.21042922692269 -3.58646641014101 -0.02140055085509
 1 -6.93253059475948 -0.56035636693669 -0.22923099519952
 1 -4.75288012981298  1.21529572647265 -0.75798964706471
 1 -6.29737156685669  0.77466509480948 -2.07575425392539
 1 -4.71644013951395 -0.01138429222922 -1.99272048474848
 1 -3.45965584488449  6.15469812561256  1.07101480548055
 1 -4.41342902040204  4.64065319751975  1.00076221402140
 1 -0.26159159385939  6.22761472137214  2.18251098359836
 1 -1.31378276157616  7.18123481898190  1.22683193959396
 1  0.14882407000700  6.92733123362336  0.23738007220722
 1 -3.53703399919992  6.82372825592559 -1.20599841594159
 1 -5.29677150025003  5.91345408640864 -0.74109925162516
 1 -3.94918944004400  4.93925541784178 -1.58588832723272
 1  3.31216652315232 -4.37087131733173  2.05152378937894
 1  7.90479772447245 -1.79179983228323  1.95441560416042

