%nproc=4
%Mem=4GB
# td=(NStates=1) B3LYP/SVP 

TD

0 1
 8 -4.46308642944294 -4.78815889708971  1.93617898149815
 8  2.99837043514351 -4.74868941814181  1.40748868066807
 8  7.06880726212621 -1.50785832693269  1.85373559405941
 8  3.77619935273527 -3.13813293849385  0.02543540194019
 8  7.64186293829383 -0.34922630193019 -0.03213278257826
 8 -2.94577490629063  2.55111250875088 -0.20390529512951
 7 -0.38116249794980 -0.51974132393239 -0.78227686388639
 7  1.57276495919592  1.85764814361436 -0.37455911801180
 7 -3.55284222722272 -3.24073312011201  0.66578504980498
 7 -0.65335673857386  2.95966638483848 -0.03729875377538
 6  0.65014624702470 -2.40225566386639 -1.43492557565757
 6  0.95582451625163 -1.16934688578858 -0.97102965826583
 6 -0.79738406350635 -2.71145503490349 -1.30272047144714
 6 -1.29557166336634 -1.49326296819682 -0.75659712561256
 6  3.77828576987699  1.32444692999300 -0.39973619001900
 6  2.45489618261826  0.77767909970997 -0.58235979457946
 6  2.11668867316732 -0.52521866766677 -0.85715796079608
 6  3.58153199009901  2.74268227642764 -0.22262303520352
 6  1.62277342984298 -3.55320058585859 -1.92754295529553
 6 -5.70256959215922 -2.65252716231623  1.36016595659566
 6 -3.74972703560356 -1.87564262626263 -0.03484969997000
 6  2.17720198039804  2.97046347454745 -0.05139261626163
 6 -5.13257945424542 -1.57043254645465  0.31896053495350
 6  5.03774225232523  0.65643531353135 -0.44644770117012
 6 -2.72458342054205 -1.18277504910491 -0.51220163456346
 6 -1.57356529422942 -3.89946444874487 -1.71059430313031
 6 -4.53391085788579 -3.72050055575558  1.33800291489149
 6  2.00340081608161 -4.58868108780878 -0.78853170897090
 6  5.45359523582358 -0.13870993489349  0.84221232733273
 6  4.60487627382738  3.68117934923492  0.38809099289929
 6  1.39161040244024  4.16178058555856  0.22379249874987
 6 -7.07099823042304 -3.26670405020502  1.10582004810481
 6 -5.88186678917892 -0.49571430133013 -0.10876235063506
 6 -0.01642663166317  4.18512318391839  0.25922454805481
 6 -0.92795375707571  5.25929702270227  0.53741837043704
 6 -2.11455678187819  4.74125024782478  0.36984838773877
 6  2.95312815411541 -4.04237085618562  0.19008040704070
 6 -5.33992865366537  0.50040526912691 -1.17525859285929
 6  6.81666423262326 -0.69976826092609  0.80988411101110
 6 -3.44243000230023  5.37280357855786  0.48922973807381
 6 -2.00712414871487  3.32172436373637 -0.07802687788779
 6 -0.48034217171717  6.62691655965597  0.98095318511851
 6 -4.18419695659566  5.54773317821782 -0.83339411511151
 1 -0.60218778367837  0.41242694829483 -0.44411496479648
 1  2.97759177377738 -1.19145114721472 -0.98939844844484
 1  2.68971022192219 -3.11774648154815 -2.44085652035204
 1  1.07681446074607 -4.05278719631963 -2.80603296979698
 1 -5.68855066126613 -2.36109449854986  2.22831499199920
 1  5.21985229542954 -0.00872615611561 -1.46589974297430
 1  5.89893185878588  1.40632494179418 -0.74116541614161
 1 -2.96732482818282  0.06922141834183 -0.89601250685069
 1  0.52276860856086  1.93895507850785 -0.55338481058106
 1 -1.54946053725373 -4.91228333253325 -1.20720152585259
 1 -2.65335896559656 -3.78004570657066 -2.06917623782378
 1 -1.03621357245725 -4.36321449584959 -2.57618122112211
 1 -2.67941169896990 -3.84358050645065  0.37955520252025
 1  0.96131193789379 -4.85378786128613 -0.27854157165717
 1  2.62738192399240 -5.39024173267327 -1.09760427432743
 1  4.68621304230423 -0.82129818091809  1.09365995219522
 1  5.30003420302030  0.48051248784878  1.86226069676968
 1  4.72306982728273  4.45399586698670 -0.44681466416642
 1  5.61371799459946  3.22233495269527  0.32269879307931
 1  4.31472088948895  4.14926043414341  1.44196550045004
 1  1.97683351535154  5.16684661426143  0.15470525742574
 1 -7.88620139173917 -2.50450644514451  1.04407910191019
 1 -7.37543318761876 -3.88512627852785  2.04280664856486
 1 -6.95856404040404 -3.71621938543854 -0.02272068286829
 1 -6.80152749444944 -0.33951428272827  0.12270419831983
 1 -4.96920176197620  1.37437163406341 -0.73833768186819
 1 -6.22655448514851  0.57110473877388 -2.03632031053105
 1 -4.50977947344735 -0.00158331213121 -1.84505571827183
 1 -3.09815969526953  6.27742039783978  1.06274397839784
 1 -4.09666734423442  4.67551668386839  1.10456259405941
 1  0.25617018231823  6.69045100500050  1.85424815731573
 1 -1.31384276757676  7.40165686118612  1.21541079747975
 1 -0.00665147754775  7.16123462396240  0.16834316851685
 1 -3.68894919071907  6.10807669076908 -1.51224904100410
 1 -5.28267009010901  5.79356209720972 -0.64000914261426
 1 -4.31770629172917  4.57623911621162 -1.35118485688569
 1  3.58615392189219 -4.30580481068107  2.02408104510451
 1  7.96711395609561 -1.71356200850085  1.58072823542354

