%nproc=4
%Mem=4GB
# td=(NStates=1) B3LYP/SVP 

TD

0 1
 8 -4.49433955475548 -4.67545762696270  1.86751211481148
 8  2.69836043414341 -4.69653420262026  1.33959189098910
 8  7.18868925032503 -1.34751229232923  1.91565178567857
 8  3.73762549534954 -3.19430855605561  0.05573843224322
 8  7.66083483548355 -0.65300667996800 -0.22751232053205
 8 -3.10098042684268  2.49524692219222 -0.19420432503250
 7 -0.29499388108811 -0.58804815461546 -0.65852448864886
 7  1.57369505220522  1.72640501930193 -0.38066972907291
 7 -3.46370331333133 -3.08756780358036  0.72793126442644
 7 -0.78475987888789  2.85999641784178 -0.03557858175818
 6  0.58500973337334 -2.59519495779578 -1.37562964606461
 6  0.97362629642964 -1.16954690579058 -0.92943549884989
 6 -0.74351867696770 -2.65568945834583 -1.20244044344434
 6 -1.33721582778278 -1.45477911981198 -0.70211167706771
 6  3.80806874817482  1.43137762306231 -0.35295151155116
 6  2.56550724372437  0.77325865766577 -0.67928948754875
 6  2.25443244754475 -0.58495464126413 -0.83388563356336
 6  3.60413425032503  2.81822983118312 -0.01939271217122
 6  1.61601275377538 -3.46123138893889 -1.93377357835784
 6 -5.59586892209221 -2.60208211781178  1.27663760376038
 6 -3.63289535243524 -1.82724778677868  0.17908169316932
 6  2.13540780098010  2.93061949014901 -0.00867834483448
 6 -5.09833602990299 -1.49645514871487  0.28225686458646
 6  5.16615509360936  0.69355902590259 -0.44636769316932
 6 -2.57660862306231 -0.97693446504650 -0.34835524992499
 6 -1.54511244894489 -3.81594609690969 -1.69875311901190
 6 -4.55026249304931 -3.59080758645865  1.25339445404540
 6  2.14144462046205 -4.57633985368537 -0.92183503930393
 6  5.42916279257926 -0.11462752665267  0.75610371647165
 6  4.50078586478648  3.86354758605861  0.32381456525653
 6  1.30467170857086  4.06972137963796  0.34475459495950
 6 -6.94852598319832 -3.18073545334533  0.92756222232223
 6 -5.83964256675668 -0.50629535943594 -0.19650112451245
 6 -0.06066105510551  3.90551522312231  0.23798242384238
 6 -1.00019098079808  5.12053314631463  0.45589021762176
 6 -2.21567689388939  4.69717584038404  0.32453385628563
 6  2.97013985528553 -4.06495311441144  0.17473887288729
 6 -5.35574023482348  0.53305853445345 -1.09299036603660
 6  6.88062062826283 -0.72847113121312  0.77607072967297
 6 -3.54169992929293  5.35982228042804  0.51904271937194
 6 -2.12600603690369  3.23697588888889 -0.08118719391939
 6 -0.51408554605461  6.52072594059406  0.82022711251125
 6 -4.21505004190419  5.60263866876688 -0.84807558325833
 1 -0.34604216911691  0.29959566516652  0.11941138783878
 1  3.05036905150515 -1.36865886798680 -1.15635514411441
 1  2.54632588348835 -2.97967267416742 -2.41639407410741
 1  1.03534031333133 -4.06900881848185 -2.80346271277128
 1 -5.77526933313331 -2.04652304140414  2.16587874837484
 1  5.13850416061606  0.11298601510151 -1.34402755575557
 1  5.98795076067607  1.48646295559556 -0.63128442804280
 1 -2.83591168686869 -0.00033553735373 -0.51118402400240
 1  0.48996532823282  1.58695987898790 -0.62956242834283
 1 -1.21443703490349 -4.72484458865887 -1.01420222592259
 1 -2.75905953565357 -3.55378308030803 -1.92769208940894
 1 -1.14145409650965 -3.80089826422642 -2.77854145714572
 1 -2.44154791259126 -3.61922807120712  0.80077732473247
 1  1.36562236893689 -5.06451893439344 -0.32921663916392
 1  2.85165435123512 -5.52386509500950 -1.33892840674067
 1  4.95239966096610 -0.99555560666067  1.01646223242324
 1  5.30210441004100  0.30413485008501  1.79393386408641
 1  4.47746526682668  4.68452892029203 -0.36799678237824
 1  5.46948357115712  3.38028074727473  0.22929945314531
 1  4.53722313971397  4.08057356545655  1.49713101700170
 1  1.87893372537254  4.84006393599360  0.66631641854185
 1 -7.69553232483248 -2.46769276377638  1.25180987498750
 1 -6.98460410471047 -4.15790355625563  1.53699606750675
 1 -7.17212539653965 -3.26797456095610 -0.29431784258426
 1 -6.83953129482948 -0.78739907120712  0.28595052295229
 1 -4.92203704550455  1.42857705460546 -0.45566941504150
 1 -6.23558538823882  0.74119174747475 -1.82812949144915
 1 -4.63480197569757  0.09004585078508 -1.79408062076208
 1 -3.60891077037704  6.28936159195919  1.09933763776378
 1 -4.35065274277428  4.70904003620362  0.95146728452845
 1  0.11102566786679  6.78874083398340  1.64148688118812
 1 -1.25933731703170  7.11088778427843  1.10180943734373
 1 -0.03201401380138  7.10711921242124  0.07264359855986
 1 -3.28847914371437  5.91692757585759 -1.58963677977798
 1 -5.12162398549855  6.10913365436544 -0.85806094779478
 1 -4.59996451755175  4.49596108840884 -1.19671941034103
 1  3.31868717521752 -4.49459368956896  2.01297993499350
 1  7.99608685338534 -1.87577823012301  1.64220438303830

