%nproc=4
%Mem=4GB
# td=(NStates=1) B3LYP/SVP 

TD

0 1
 8 -4.55266538733873 -4.74944502570257  1.93798916251625
 8  3.11715231333133 -4.71099564876488  1.15910384218422
 8  6.85839622102210 -1.79218675977598  1.82276249674967
 8  3.68665039783978 -2.83433255845585 -0.00395753735374
 8  7.62281103310331 -0.57883926322632 -0.02599216851685
 8 -3.02460278907891  2.51125852335234 -0.30750565516552
 7 -0.30475485718572 -0.56440579037904 -0.62515115131513
 7  1.53847152985299  1.82610498929893 -0.42413407550755
 7 -3.49405634863486 -3.15355440224022  0.56040451175118
 7 -0.70804220712071  2.81296171437144 -0.04024904880488
 6  0.60811204360436 -2.43993943224322 -1.28327041014101
 6  0.86762569636964 -1.05321527262726 -0.89715227052705
 6 -0.72579690479048 -2.73893778317832 -1.19211941134113
 6 -1.33562566876688 -1.51427506940694 -0.75296676257626
 6  3.80149809110911  1.42027651295130 -0.32340855725573
 6  2.49933062606261  0.82579391119112 -0.54156571517152
 6  2.19278628292829 -0.45877202300230 -0.75714795979598
 6  3.58502233913391  2.70875888408841 -0.03163393629363
 6  1.60207135963596 -3.38154342014201 -1.99035923692369
 6 -5.62198153335334 -2.57550946054605  1.46767670767077
 6 -3.68004006690669 -1.86373143514351  0.14144792979298
 6  2.09505376557656  2.99695612381238 -0.01626910391039
 6 -5.02506870317032 -1.48407391059106  0.60315895479548
 6  4.99299777787779  0.65438510851085 -0.38771182758276
 6 -2.74783574577458 -1.13089986158616 -0.45189560396040
 6 -1.52102003970397 -3.87016151845184 -1.87040028372837
 6 -4.49318678547855 -3.66145465116512  1.42419153375338
 6  2.14571504750475 -4.53576579627963 -0.99390224602460
 6  5.40849072537254 -0.06233229712971  0.90431853795380
 6  4.64653043924392  3.89405063636364  0.34970715451545
 6  1.33797503890389  3.99686409390939  0.30708082758276
 6 -6.97339847044704 -3.06063344314431  1.12505197129713
 6 -5.85330393289329 -0.58052278217822 -0.10511198559856
 6  0.00415542654265  3.97337200880088  0.23810243584358
 6 -0.92636359805981  5.10432152515252  0.53393802240224
 6 -2.19437476367637  4.64895101790179  0.41666306920692
 6  3.05340818211821 -3.92103872297230  0.13393479247925
 6 -5.28494315511551  0.31163639223922 -1.31991305830583
 6  6.71700426662666 -0.81100938503850  0.78876199879988
 6 -3.57108286758676  5.31270756895690  0.41299211431143
 6 -2.05177861416142  3.14645683698370 -0.06847592279228
 6 -0.47470160766077  6.58461232923292  0.79765485528553
 6 -4.09369790669067  5.66066447134714 -1.04507528322832
 1 -0.62416998189819  0.43135884148415 -0.43609416271627
 1  2.91544555915591 -1.29401140324032 -0.86543605220522
 1  2.56137738863886 -3.08378308520852 -2.55913834853485
 1  0.97502428172817 -3.67918983658366 -2.89179154565457
 1 -5.51320312651265 -2.29620800990099  2.66052821332133
 1  4.89051936213621 -0.18081336483648 -1.17262041504150
 1  5.89600156575658  1.28022233153315 -0.66055735533553
 1 -3.01199929562956  0.01750624682468 -0.70179308490849
 1  0.43538987068707  1.81000218321832 -0.34264373647365
 1 -1.40673626482648 -4.64352645684568 -1.17325813151315
 1 -2.49408303800380 -3.51737943994399 -1.99870919111911
 1 -1.05643559465947 -4.12056023042304 -2.74706830983098
 1 -2.66810056785679 -3.62123827222722  0.47739498649865
 1  1.36818262496250 -5.18700118261826 -0.50046376387639
 1  2.84729391519152 -5.10078278677868 -1.57809232313231
 1  4.45326974797480 -0.80450650175018  1.23637422362236
 1  5.47971217081708  0.63221765836584  1.87421189188919
 1  4.29958747904791  4.79796026342634 -0.24650463316332
 1  5.46812343514351  3.39297201640164  0.13830035323532
 1  4.46723614101410  4.16373188128813  1.38588989288929
 1  1.79665549754976  5.04547447704770  0.49570935783578
 1 -7.82464523612361 -2.38300429492949  1.43406810081008
 1 -7.16700234453445 -4.02593035893589  1.62168453635364
 1 -7.03440162416242 -3.22956071957196 -0.04802321312131
 1 -6.83446078777878 -0.63961429272927  0.14328625652565
 1 -4.89281412321232  1.28283248014801 -1.13319716781678
 1 -6.30623245294529  0.69970759905991 -1.74527120562056
 1 -4.75301379687969 -0.32150530433043 -2.02068328102810
 1 -3.34579445874588  6.29133178897890  1.19165686968697
 1 -4.11481915941594  4.57010614281428  0.99463160096010
 1  0.50703526882688  6.66133809370937  1.53556628912891
 1 -1.18573995729573  7.21007770327033  0.84547380378038
 1 -0.12757356975698  7.18171667216722 -0.16987065286529
 1 -3.37317761356136  6.26640252335234 -1.70703851995200
 1 -5.30030185328533  6.17061980298030 -0.89440458215822
 1 -4.13591811291129  4.70747223952395 -1.54353409180918
 1  3.73875918241824 -4.21516574677468  1.75198383538354
 1  7.90387763246325 -1.88964961726173  1.68715887848785

