%nproc=4
%Mem=4GB
# td=(NStates=1) B3LYP/SVP 

TD

0 1
 8 -4.47126724752475 -4.77029711091109  1.92499786338634
 8  3.01730232833283 -4.77973252245225  1.29608754055406
 8  7.04654503590359 -1.42940048114811  1.90394061456146
 8  3.84737647044704 -3.19556868206821  0.02414527292729
 8  7.56938569056906 -0.48644002330233 -0.08993856315632
 8 -3.04280460926093  2.63109050655066 -0.27079198379838
 7 -0.35227960966097 -0.53294264406441 -0.53172180838084
 7  1.51984966766677  1.81851423022302 -0.37252891499150
 7 -3.33870081308131 -3.16293534033403  0.63585205650565
 7 -0.77487889078908  3.05654607280728 -0.10909593349335
 6  0.54537576997700 -2.36599203750375 -1.33002508560856
 6  0.86558549234924 -1.10388033913391 -0.99235179047905
 6 -0.80462478757876 -2.62078596799680 -1.30158035743574
 6 -1.30589269546955 -1.48018166006601 -0.73238470437044
 6  3.70735867716772  1.37428191349135 -0.32281849824983
 6  2.44679537253725  0.79361069286929 -0.47240879947995
 6  2.20379738403840 -0.50023616941694 -0.88971121612161
 6  3.60917475437544  2.73622163036304 -0.04178495139514
 6  1.58252940544054 -3.49754502030203 -1.91705190619062
 6 -5.54951428662866 -2.63592550215022  1.41201114111411
 6 -3.61280334323432 -1.88527358935894  0.15143892889289
 6  2.12442670287029  3.04621104930493  0.02461498449845
 6 -5.06006220252025 -1.64559006220622  0.32502114101410
 6  5.07144562266227  0.56864653465347 -0.37928098449845
 6 -2.71612257445745 -1.02237900950095 -0.46231664606461
 6 -1.60940887858786 -3.89072357465747 -1.72900614431443
 6 -4.40990845764576 -3.72656116181618  1.34994410901090
 6  1.89861033703370 -4.53133535323532 -0.91145400120012
 6  5.33482335863586 -0.28612467636764  0.74684279037904
 6  4.60473625982598  3.67719895119512  0.34324650845084
 6  1.40121136253625  4.11332574007401  0.30371049054905
 6 -6.88757988858886 -3.15547292709271  1.06069553565357
 6 -5.74298290079008 -0.63901863176318 -0.19335080948095
 6 -0.02681767076708  4.00709538113811  0.25983460906091
 6 -0.88650961266127  5.22938403140314  0.57756238483848
 6 -2.18998432463246  4.77575369816982  0.28819022192219
 6  3.04127696899690 -4.10811743084308  0.10183158215822
 6 -5.43112777357736  0.35602083068307 -1.21742280928093
 6  6.76199876607661 -0.70959924402440  0.80516363896390
 6 -3.53553931323132  5.48256455465547  0.35421623672367
 6 -2.08332176847685  3.39343153445345 -0.07677675287529
 6 -0.32873701120112  6.50626449444945  1.00851594139414
 6 -4.31853038993899  5.58420682558256 -1.07082785848585
 1 -0.35186275117512  0.43019872547255 -0.11294184748475
 1  2.78993300790079 -1.27533953605361 -0.92878238683868
 1  2.47621887278728 -2.97506221312131 -2.25593802850285
 1  0.98606538583858 -3.93327524512451 -2.86903927042704
 1 -5.49058086428643 -2.03094148324832  2.47954011451145
 1  5.32159246944694 -0.04067935143514 -1.35533868686869
 1  5.55855782138214  1.29655396469647 -0.59054035363536
 1 -2.77809590529053  0.12684718091809 -0.63222612821282
 1  0.66612294399440  1.73671485448545 -0.85031450355035
 1 -1.40994658585859 -4.70996310051005 -1.06409721542154
 1 -2.78665229492949 -3.76396409840984 -1.80726004620462
 1 -1.30055000610061 -4.20511868626863 -2.81587519051905
 1 -2.28634239203920 -3.60167631603160  0.69269651665167
 1  1.07006281298130 -5.07011949444944 -0.41420513801380
 1  2.40066925272527 -5.45986869536954 -1.47611212511251
 1  4.83796821782178 -1.20838688978898  0.82179276547655
 1  5.16482068166817  0.13812824942494  1.73566803750375
 1  4.74669218951895  4.78002847024702 -0.06333631633163
 1  5.61012763556356  3.26789950915092  0.42496902010201
 1  4.32592200960096  3.96855236333633  1.49156045994599
 1  2.06886271827183  4.91129105870587  0.30429021592159
 1 -7.80231300290029 -2.51712770727073  1.28423311731173
 1 -6.96093173747375 -4.05998376427643  1.67192956085609
 1 -6.88026621062106 -3.57693545704571  0.08979056825683
 1 -6.57532487418742 -0.46004633593359  0.23344527242724
 1 -5.04243908570857  1.28707290419042 -0.77272112021202
 1 -6.48368019771977  0.68551617991799 -1.70299697819782
 1 -4.80777927342734 -0.07843099689969 -1.98721993469347
 1 -3.21868174747475  6.35967862366237  0.94820252425243
 1 -4.27912559005901  4.94905403760376  1.10701283908391
 1  0.33858842414241  6.52397435733573  1.82008474097410
 1 -1.15180656395640  7.21084778027803  1.05382463886389
 1  0.17036622422242  6.83336183668367  0.08421475567557
 1 -3.67992828862886  6.14425030813081 -1.95929374547455
 1 -5.29702152525253  6.22127486848685 -0.59294443614361
 1 -4.51999652075207  4.61807329962996 -1.72120185858586
 1  3.88201350785079 -4.62375660586059  1.58886752375237
 1  7.97526477117712 -1.76317696999700  1.65822598519852

