%nproc=4
%Mem=4GB
# td=(NStates=1) B3LYP/SVP 

TD

0 1
 8 -4.61624174497450 -4.65650573177318  1.74115947954795
 8  3.06524712281228 -4.79260380958096  1.35534346614662
 8  6.97847822922292 -1.61144868596860  1.69671989248925
 8  3.89395112791279 -3.13540266546655  0.02356521492149
 8  7.51297004900490 -0.72987436673667 -0.32318188748875
 8 -3.06186651545155  2.44544194169417 -0.19459436403640
 7 -0.23890827252725 -0.55733508330833 -0.44317295349535
 7  1.59377706040604  1.72515489428943 -0.27679934203420
 7 -3.43134007700770 -3.11227027382738  0.62784125542554
 7 -0.68424982788279  2.90343076127613 -0.08566359025903
 6  0.63419465186519 -2.42471791009101 -1.39189127222722
 6  1.00292922672267 -1.13161311241124 -0.88642119741974
 6 -0.69774409950995 -2.59650353975398 -1.28276847624762
 6 -1.26265837203720 -1.48893253515352 -0.68151961786179
 6  3.77751569286929  1.35422990829083 -0.27663387978798
 6  2.58233892689269  0.77437876967697 -0.50130168876888
 6  2.27009401370137 -0.59392553835384 -0.74903714871487
 6  3.53144698159816  2.76513452165217 -0.00777155005501
 6  1.62702385488549 -3.52480774657466 -1.78209841084108
 6 -5.65915525072507 -2.53262517211721  1.21788172817282
 6 -3.59094115701570 -1.89860492249225  0.04710849584959
 6  2.17759201940194  3.00639706790679 -0.01625910291029
 6 -5.02606880318032 -1.56428193139314  0.31907054595460
 6  5.10189866796680  0.86344601460146 -0.38411146754675
 6 -2.57821878407841 -1.05610238183818 -0.50820123452345
 6 -1.51688962666267 -3.89091359365937 -1.68909215291529
 6 -4.47175464226423 -3.62313081878188  1.32800191479148
 6  2.03424390039004 -4.55010723042304 -0.72287514331433
 6  5.41154103040304 -0.16738280218022  0.81140924702470
 6  4.44782056825683  3.88693992529253  0.41184336813681
 6  1.31231247264726  4.08941334883488  0.14378449794980
 6 -6.98834996559656 -3.13511089088909  1.07113657975798
 6 -5.74708331083108 -0.53097782768277 -0.23972544694469
 6 -0.07750273927393  3.99745441704170  0.23003162876288
 6 -1.05747670937094  5.19344043704370  0.51350597919792
 6 -2.21773709990999  4.68336445924592  0.38322972587259
 6  3.07278011931193 -3.98535515461546  0.21801320032003
 6 -5.40831549234923  0.55744097269727 -1.21423249024902
 6  6.74330689688969 -0.88666695079508  0.58520164276428
 6 -3.62019777907791  5.37174347254726  0.48601941704170
 6 -2.13314675097510  3.20393258455846 -0.01468054325433
 6 -0.57996213371337  6.54570843884389  0.83816890669067
 6 -4.19906844374437  5.72633103800380 -0.90547132283228
 1 -0.46017358225823  0.37670337593759  0.04113356005601
 1  2.99839385398540 -1.28423042514251 -1.06658616721672
 1  2.49636088698870 -2.94196890379038 -2.12373480818082
 1  1.22355913521352 -4.11595351295129 -2.49467183368337
 1 -5.44793659985999 -2.09250763986399  2.25376753725373
 1  5.38733904410441  0.43965868236824 -1.42025517851785
 1  5.85376734233423  1.73685799509951 -0.46781808140814
 1 -2.88506660236024 -0.11517702150215 -0.68602150775078
 1  0.43129946164616  1.94057524052405 -0.31676114821482
 1 -1.77888347954795 -4.48647075127513 -0.88735954165417
 1 -2.51164479417942 -3.36612431443144 -1.78047736793679
 1 -1.04816476757676 -4.33159133353335 -2.61938554155416
 1 -2.56099985778578 -3.57422357075708  0.70649789678968
 1  1.22158796549655 -4.73650613311331 -0.24312803030303
 1  2.39248843464346 -5.54997770627063 -1.08029254315432
 1  4.73559798079808 -1.01850790189019  0.79068965516552
 1  5.60797499709971  0.47416185278528  1.67491196189619
 1  4.24694221452145  4.80092055945595 -0.19882986568657
 1  5.42446906970697  3.64363708290829  0.07510403360336
 1  4.15834525192519  4.11077658575858  1.45668697259726
 1  1.72330816281628  5.04084401400140  0.35828561546155
 1 -7.75617838943894 -2.29067506200620  1.40340503450345
 1 -7.14440008430843 -3.99030679657966  1.88338070597060
 1 -7.13469165316532 -3.63881164466447  0.11404299349935
 1 -6.64153149484948 -0.59672000330033  0.15815774367437
 1 -4.73745858765877  1.45394959185919 -0.81929577767777
 1 -6.12611444114411  0.83676130443044 -1.82892957145715
 1 -4.71395989148915  0.01294814101410 -1.74189540224022
 1 -3.73553343264326  6.31192384818482  0.74971267526753
 1 -4.38672635013501  4.70631976417642  0.98179031683168
 1  0.41301586688669  6.73936589648965  1.48491122362236
 1 -1.39278066136614  7.19615631113111  1.29373863026303
 1 -0.30154096649665  6.89458795929593 -0.25752941874187
 1 -3.86510680648065  6.52637852095210 -1.56620443654365
 1 -5.27017884098410  6.01661440244024 -0.84606974867487
 1 -4.34713923502350  4.61697318961896 -1.36464620302030
 1  3.65904121062106 -4.65357958815882  2.00707934493449
 1  7.85535277997800 -1.93877452975298  1.58034819741974

