%nproc=4
%Mem=4GB
# td=(NStates=1) B3LYP/SVP 

TD

0 1
 8 -4.78693881468147 -4.71795187638764  1.97860322392239
 8  3.14643524162416 -4.86456100530053  1.14229216101610
 8  7.17753813521352 -1.38537607870787  1.85093531403140
 8  4.04377611041104 -3.16989611481148 -0.09258640024002
 8  7.70412916491649 -0.55362674197420 -0.12596216551655
 8 -2.96863719251925  2.49564696219622 -0.22144704930493
 7 -0.26863124482448 -0.65282463226323 -0.49071770797080
 7  1.61403908660866  1.76622900170017 -0.40343200530053
 7 -3.47268421142114 -3.16497554435444  0.88723719501950
 7 -0.76342774567457  2.87411782998300 -0.11169619351935
 6  0.62436366876688 -2.41964740304030 -1.35856793989399
 6  0.90504943874387 -1.17152710381038 -0.98471102640264
 6 -0.76815114021402 -2.79918380778078 -1.15092529192919
 6 -1.31331343754375 -1.52085572747275 -0.62554402030203
 6  3.74223216451645  1.43885837113711 -0.39370558695870
 6  2.49604029702970  0.79056038783878 -0.58187974657466
 6  2.12924992929293 -0.57849399519952 -0.85100734573457
 6  3.50112394929493  2.74441244944494  0.02749197629763
 6  1.70812196469647 -3.45340060586059 -1.90830103110311
 6 -5.72371170637064 -2.57918982858286  1.34063400340034
 6 -3.64869693259326 -1.93122818481848  0.16596038103810
 6  2.11765602580258  2.97891431963196 -0.00075755275528
 6 -5.09515571187119 -1.54938044124412  0.38030666956696
 6  4.98211668976898  0.62086175617562 -0.55127818421842
 6 -2.68430939313931 -1.08671544314431 -0.40193060746075
 6 -1.63971190889089 -3.95688019031903 -1.67948119181918
 6 -4.69419688648865 -3.63980248594860  1.45454456905691
 6  2.05629610561056 -4.44667688738874 -0.83714657045705
 6  5.41675155145515 -0.10392645654565  0.90784889098910
 6  4.57300308650865  3.82225345664566  0.29133131693169
 6  1.22915415681568  4.04001840934093  0.31623174267427
 6 -7.09875100570057 -3.09685706550655  0.76976644274427
 6 -5.79735833833383 -0.50664539443944 -0.30695216961696
 6 -0.10085507450745  3.99828450005000  0.25156378197820
 6 -0.94833579527953  5.19879097209721  0.52956758535854
 6 -2.28521384758476  4.70403652645265  0.38188959185919
 6  3.15930877217722 -4.05966258535854  0.05383678267827
 6 -5.27008166896690  0.45652088068807 -1.32327339433943
 6  6.88210077627763 -0.69466775087509  0.69538266086609
 6 -3.63541930123012  5.45769206740674  0.43268408350835
 6 -2.03616705300530  3.28778096939694  0.00563148794879
 6 -0.47653179067907  6.55691955995600  0.92246733653365
 6 -4.10677921482148  5.83671207610761 -0.94041481718172
 1 -0.40063762866287  0.21768747434743 -0.13268382168217
 1  3.03871788638864 -1.23315531763176 -0.89391890049005
 1  2.58899014991499 -2.97332203910391 -2.22296473117312
 1  1.20778755805581 -3.77522944054405 -2.80757312381238
 1 -5.81483328952895 -2.27453584268427  2.47026918741874
 1  4.71905221542154 -0.21017630113011 -1.26154930793079
 1  5.76720868646865  1.22861717101710 -0.67137843744375
 1 -2.93271136683668 -0.07319282308231 -0.85997890349035
 1  0.49103543524352  1.52922410541054 -0.67458693079308
 1 -1.72665825702570 -4.71549365356536 -0.75338614431443
 1 -2.58467209690969 -3.61755945794579 -1.91696101630163
 1 -1.12121207230723 -4.43600177457746 -2.44120772377238
 1 -2.62932669046905 -3.54912106050605  0.93337058405841
 1  1.08894470117012 -4.83622610511051 -0.32333605110511
 1  2.38845803160316 -5.53914662316232 -1.13050756465647
 1  4.86461088208821 -1.05962201330133  1.01836242244224
 1  5.56644084368437  0.54215865246525  1.87803227392739
 1  4.29926744704471  4.73688415581558 -0.35995597829783
 1  5.55911253405341  3.50412313151315  0.11525804900490
 1  4.36559597699770  4.12693820192019  1.20842214611461
 1  1.76657248924893  5.01994192379238  0.85353514041404
 1 -7.92879565116512 -2.45937193169317  0.90020471447145
 1 -7.57947359165917 -3.91297906380638  1.33383575147515
 1 -6.86135431943194 -3.40840860436044 -0.24674308510851
 1 -6.86760410211021 -0.52099243054305  0.17941986988699
 1 -4.63872871467147  1.18652284918492 -0.89037288538854
 1 -6.11426325602560  0.95528315661566 -1.73361003950395
 1 -4.90499899539954 -0.25138829262926 -2.34851606430643
 1 -3.55975585488549  6.27926058185819  1.06175387938794
 1 -4.34865254275428  4.69173830603060  0.74497663546355
 1  0.42226679197920  6.76055801570157  1.60652338483848
 1 -1.34819620292029  7.16626332183218  1.61725098149815
 1 -0.23278409080908  7.39436793729373  0.11028736293629
 1 -3.28311860766077  6.59003488658866 -1.38368618471847
 1 -5.25935775887589  6.19585232623262 -0.95707084878488
 1 -3.83852837393739  5.00329182148215 -1.70543028142814
 1  3.81778708520852 -4.60380461066107  1.78523716071607
 1  8.18602584728473 -1.59263991629163  1.85828599119912

