%nproc=4
%Mem=4GB
# td=(NStates=1) B3LYP/SVP 

TD

0 1
 8 -4.55442556335634 -4.88042812401240  1.74993035663566
 8  2.93667426552655 -4.82795734493449  1.33919185098510
 8  7.18685906730673 -1.36913445454545  1.80873109360936
 8  3.67392912571257 -3.13078220342034  0.20937379577958
 8  7.48947769976998 -0.81570294959496 -0.32778234753475
 8 -3.01217154595460  2.41845924342434 -0.32325723032303
 7 -0.30212459415942 -0.56250560036004 -0.50032866906691
 7  1.54194187688769  1.85423780258026 -0.30943260536054
 7 -3.54412135513551 -3.21910095689569  0.48873734503450
 7 -0.79615101800180  2.89344976317632 -0.18171319521952
 6  0.66480771317132 -2.51264670297030 -1.36834891799180
 6  0.95199413321332 -1.24261421252125 -0.89927248254825
 6 -0.78283260836084 -2.64453834323432 -1.29014921432143
 6 -1.21275338153815 -1.48942258415842 -0.71622308820882
 6  3.81130907220722  1.45078956425643 -0.23661987838784
 6  2.47171786478648  0.82405373717372 -0.43208476707671
 6  2.20171717601760 -0.51406755255526 -0.79743198819882
 6  3.46749058595860  2.80708871707171  0.10063929102910
 6  1.72817396989699 -3.47767303310331 -1.88786898789879
 6 -5.58772810801080 -2.53440535013501  1.44269420942094
 6 -3.61214327722772 -1.84952001400140  0.12623640864086
 6  2.10087434763476  2.99495592379238 -0.01821929892989
 6 -5.04684088038804 -1.49576507970797  0.39206784568457
 6  5.10774925302530  0.85278494849485 -0.35270832723272
 6 -2.64518548074807 -1.12010878247825 -0.49211962636264
 6 -1.42450038773877 -3.92450695299530 -1.85166841054105
 6 -4.54674214101410 -3.72371087678768  1.31780089468947
 6  2.08969944594459 -4.62521474117412 -0.88126098189819
 6  5.42365224152415 -0.20925698959896  0.72905101120112
 6  4.50863664986499  3.81856308760876  0.34594677847785
 6  1.32941418281828  4.19106351385139  0.15765588508851
 6 -7.00320145074507 -2.97109448924892  1.16245571167117
 6 -5.72122072457246 -0.50004473437344 -0.27081855625563
 6 -0.11390637963796  4.14054872647265  0.11427005260526
 6 -0.92024298599860  5.19721081408141  0.40960558915892
 6 -2.20075540174017  4.67873399619962  0.35983738663866
 6  2.93733657495750 -4.11466808590859  0.31889328832883
 6 -5.36234089488949  0.49635486408641 -1.12726379337934
 6  6.82664523072307 -0.77951623572357  0.65666878947895
 6 -3.55212097139714  5.41390768896890  0.58939975507551
 6 -2.07035047134713  3.14144633593359 -0.04022309750975
 6 -0.51265540304030  6.58650251825183  0.74136922672267
 6 -4.17987652455245  5.71891029592959 -0.78778955465547
 1 -0.48941650655065  0.21222692829283 -0.08297885118512
 1  3.05210922552255 -1.20919292139214 -0.95062457105710
 1  2.61507275817582 -2.98957366426643 -2.27286972167217
 1  1.45376215551555 -3.83585550315031 -2.90682304880488
 1 -5.26443825002500 -2.19381777087709  2.48738089858986
 1  5.20529083928393  0.39815453195320 -1.39698285128513
 1  5.84320628622862  1.74608891819182 -0.33669496909691
 1 -2.73952204790479 -0.16333183698370 -0.59742264786479
 1  0.52046837853785  1.82215339833983 -0.79934940704070
 1 -1.39507509870987 -4.80941304550455 -1.24174498019802
 1 -2.51311494119412 -3.71691939393939 -1.74327364756476
 1 -1.06100605170517 -4.25518369276928 -2.80762436543654
 1 -2.64347810561056 -3.71920806920692  0.60323757075708
 1  1.15640144684468 -5.11661414391439 -0.51968568606861
 1  2.53509269506951 -5.40618332683268 -1.68211272517252
 1  4.70080450145015 -1.11050710181018  0.79794038023802
 1  5.24078827842784  0.20529496609661  1.80794526522652
 1  4.32801032133213  4.66591705910591 -0.12665264796480
 1  5.47744436723672  3.38169088828883  0.62556908010801
 1  4.38691810921092  4.17168267636764  1.36710801470147
 1  1.92336816881688  5.10668059765977  0.51695148204820
 1 -7.64294706630663 -2.06625261976198  1.52739743374337
 1 -7.04015966026603 -3.70589835573557  1.92622499039904
 1 -7.12107029102910 -3.15862362586259  0.04495608480848
 1 -6.83704104580458 -0.38817914921492  0.14796672457246
 1 -4.75696053785378  1.34119831673167 -0.72164601270127
 1 -6.12644447414741  0.92419004730473 -1.65738241674167
 1 -4.55798429392939  0.21207805400540 -1.86381759445945
 1 -3.49885976527653  6.18727138293829  1.45997370137014
 1 -4.20075775327533  4.74586371857186  1.01793393119312
 1 -0.05020045474547  6.69074103400340  1.59835256775678
 1 -1.43575495879588  7.12259895539554  1.16147540394039
 1  0.09105829342934  7.02292079257926 -0.01016468226823
 1 -3.71196149194920  6.39630551365136 -1.34470228632863
 1 -5.25956777987799  6.13748648964896 -0.67478261996200
 1 -4.34196871797180  4.70220171247125 -1.32627236563656
 1  3.57119242574257 -4.41439566976698  1.94591322832283
 1  8.03042028672867 -1.60260091239124  1.71285144774477

