%nproc=4
%Mem=4GB
# td=(NStates=1) B3LYP/SVP 

TD

0 1
 8 -4.60718083888389 -4.69745982718272  1.99628499209921
 8  3.33550414851485 -4.83359790899090  1.15524345614561
 8  7.07481786318632 -1.50059760086009  1.88598881938194
 8  3.83032476527653 -2.94166329152915 -0.05852299389939
 8  7.66387513951395 -0.59427080638064 -0.07799736903690
 8 -3.06752708150815  2.55963336083608 -0.20630553515352
 7 -0.34130851255126 -0.64250360016002 -0.61933056925693
 7  1.56526420912091  1.77564994379438 -0.52620428252825
 7 -3.52917986098610 -3.11932097889789  0.64089256055606
 7 -0.81055245814581  2.93746416461646 -0.01410643454345
 6  0.56754798719872 -2.49466490479048 -1.34125620872087
 6  0.86233516731673 -1.22272222332233 -0.97900045534553
 6 -0.79421374647465 -2.73059694909491 -1.19320952035204
 6 -1.35109721592159 -1.59646328822882 -0.76366783268327
 6  3.79885782708271  1.46419090439044 -0.41606782318232
 6  2.47755844884488  0.75374670647065 -0.64850640924092
 6  2.17160416471647 -0.48384453025303 -0.95842808780878
 6  3.59703354025403  2.78634664286429 -0.00686145904590
 6  1.63349450195020 -3.55234049984998 -1.91985218621862
 6 -5.65655499069907 -2.51740364996500  1.28536847684768
 6 -3.69565162806281 -1.90888595059506  0.16364014901490
 6  2.19910417061706  2.93819024722472 -0.06555403240324
 6 -5.12009820612061 -1.54621012421242  0.34008264716472
 6  5.05399387748775  0.64518418841884 -0.30073312971297
 6 -2.74851581378138 -1.18225499709971 -0.50818123252325
 6 -1.56939487718772 -3.98989349164916 -1.65966921062106
 6 -4.64876234303430 -3.61140964666467  1.44210332493249
 6  2.10683115911591 -4.54868708840884 -0.85197805360536
 6  5.36550642694269 -0.09976604050405  0.93441154725473
 6  4.60304609080908  3.84290552185219  0.27865004880488
 6  1.38632987438744  4.11192560006001  0.20644076357636
 6 -7.06236736733673 -3.08031541134113  1.00812027812781
 6 -5.92293089558956 -0.59645437533753 -0.23219469386939
 6  0.01700671167117  3.92284695629563  0.27502612821282
 6 -0.89171013271327  5.13456454945495  0.62879750835084
 6 -2.17023234943494  4.75842196499650  0.38726012891289
 6  3.16269911121112 -4.02357897699770  0.05869726872687
 6 -5.42512717351735  0.41923715231523 -1.28927999499950
 6  6.81742430863086 -0.67976626072607  0.83355647824782
 6 -3.50297605690569  5.49116541474147  0.41991280638064
 6 -2.05261869816982  3.24639683098310  0.03520444524452
 6 -0.40573471097110  6.56145001300130  0.92640773057306
 6 -4.19555809270927  5.69366777167717 -0.92498327402740
 1 -0.63402096699670  0.27112281788179 -0.11218177147715
 1  3.06920093469347 -1.25302730483048 -1.11910141874187
 1  2.56842809370937 -2.94950965786579 -2.20315274997500
 1  1.18917569686969 -4.09570148774877 -2.80755312181218
 1 -5.81911371757176 -2.11100949004901  2.31686384688469
 1  5.11463177337734 -0.04509979347935 -1.14756790979098
 1  5.91579354495450  1.44992930223022 -0.46685798539854
 1 -2.92690078577858 -0.04396990079008 -0.64243714931493
 1  0.43004933663366  1.65563674667467 -0.55893536563656
 1 -1.31889748094809 -4.96073817801780 -1.15507631333133
 1 -2.67605123482348 -3.69284698669867 -1.75849516971697
 1 -1.26959691079108 -4.31893006740674 -2.59331293429343
 1 -2.51806556435644 -3.49184533293329  0.85495274227423
 1  1.42122792949295 -4.90728321082108 -0.13839755725573
 1  2.66585577137714 -5.51485419391939 -1.32448696259626
 1  4.58579300030003 -0.98987503860386  0.94240482668267
 1  5.36687088668867  0.52382681928193  1.91669614031403
 1  4.67012453275328  4.71041150855086 -0.50991097379738
 1  5.48336495929593  3.57530024922492  0.56027255045505
 1  4.27692711011101  4.04544005210521  1.46374767866787
 1  1.79239507150715  4.99469939953995  0.57564735163516
 1 -7.85783855545555 -2.26265225972597  1.29366406040604
 1 -7.28672431673167 -4.11085885178518  1.45962833073307
 1 -7.23380156415642 -3.15236299979998 -0.10558896969697
 1 -7.02418976067607 -0.86636696799680 -0.15991406350635
 1 -4.90996583838384  1.35177937483748 -0.86789063716372
 1 -6.31480331003100  0.80273790209021 -1.79900657915792
 1 -4.70580907640764 -0.06213936773677 -1.89205041774177
 1 -3.43031291059106  6.44525718151815  1.01690939493949
 1 -4.31166884438444  4.97974710691069  1.13223536133613
 1 -0.04181961666167  6.48228018791879  1.77067980048005
 1 -1.23031441474147  7.31543823932393  0.97222647904790
 1  0.23919310691069  6.78889739023902  0.15335166936694
 1 -3.80639093489349  6.43902978607861 -1.55291310741074
 1 -5.26682850595060  6.26065880688069 -0.74236937863786
 1 -4.45082960406041  4.56985847814781 -1.37296703510351
 1  4.00516582308231 -4.39705393559356  1.78820745774577
 1  7.99741698639864 -1.77635828812881  1.90342050465046

