%nproc=4
%Mem=4GB
# td=(NStates=1) B3LYP/SVP 

TD

0 1
 8 -4.45645576637664 -4.72046212741274  1.86377174077408
 8  2.91832243034303 -4.87071162036204  1.23771170297030
 8  7.05149553095310 -1.55972351345135  1.87807802830283
 8  3.74434616741674 -3.14335346054605  0.00811366976698
 8  7.62840159215922 -0.68801018031803 -0.14959452875288
 8 -3.08898922772277  2.51170856835684 -0.40331523612361
 7 -0.28104248594859 -0.58331768156816 -0.71241987818782
 7  1.57169485218522  1.81679405820582 -0.26842850495050
 7 -3.48287523052305 -3.11788083488349  0.65868433973397
 7 -0.79832123502350  2.82596301450145 -0.13266829072907
 6  0.62639387178718 -2.46108154645465 -1.47570965406541
 6  0.89287822162216 -1.10476042714271 -1.06017857315732
 6 -0.71132545764576 -2.59127301670167 -1.39340954035404
 6 -1.22460456665667 -1.49379302120212 -0.83154462036204
 6  3.78704664596460  1.46873135843584 -0.24430064646465
 6  2.51022171517152  0.76741807360736 -0.55604716331633
 6  2.18710571487149 -0.51679782558256 -0.90355260026003
 6  3.54932876977698  2.75428343654365  0.10038926602660
 6  1.71697284978498 -3.40086535233523 -1.95361556255626
 6 -5.47691702690269 -2.52720463006301  1.47978791879188
 6 -3.57922998589859 -1.83459852185219  0.14820860586059
 6  2.15268952915292  2.93987041524152  0.10043256625663
 6 -5.00443663996400 -1.37413291649165  0.45550418931893
 6  5.10987946604660  0.77205687568757 -0.34139719611961
 6 -2.62208317051705 -1.05269204080408 -0.43126354075408
 6 -1.46450438813881 -3.91288579087909 -1.72231547524752
 6 -4.51823929072907 -3.57705621132113  1.40561967656766
 6  2.08733920992099 -4.55248746844685 -1.00644350015001
 6  5.47916779307931 -0.09864592849285  0.83870197629763
 6  4.53128891509151  3.76883811511151  0.56373855765577
 6  1.33898513991399  4.01288569606961  0.35516563606361
 6 -6.99486061666167 -3.07763514331433  1.43770323642364
 6 -5.81680028252825 -0.54099882978298 -0.06032750715072
 6 -0.11425641464146  3.97804247584758  0.35784441004100
 6 -1.00830179187919  5.11148224122412  0.47066169476948
 6 -2.27126245244524  4.71886800960096  0.22957436033603
 6  3.01401424272427 -4.10375699479948  0.13942534153415
 6 -5.52348700950095  0.33978920752075 -1.34653572057206
 6  6.78928149434944 -0.79427771187119  0.69588271087109
 6 -3.62509826912691  5.46060235843584  0.32300311541154
 6 -2.17352078837884  3.19756194749475 -0.12122119731973
 6 -0.59597373487349  6.47545141314131  1.00111520132013
 6 -4.10476901380138  5.61980038493849 -1.09999077477748
 1 -0.33483104800480  0.36730243584358 -0.33673422672267
 1  3.11151516611661 -1.14496649874988 -1.08707821642164
 1  2.38481973287329 -2.75314002090209 -2.40320275497550
 1  1.16313309260926 -3.94211612921292 -2.90160252675267
 1 -5.24543634983498 -1.94218260736074  2.47304946544654
 1  4.92721303150315  0.08923363986399 -1.32430558355836
 1  5.63732569816982  1.67264157345735 -0.67443874347435
 1 -2.87049514521452  0.00582507870787 -0.81688459405941
 1  0.52943927562756  1.95625680868087 -0.45389486158616
 1 -1.48139373057306 -4.83420552475248 -1.06387719341934
 1 -2.51232486218622 -3.56273397539754 -1.95488480868087
 1 -0.98938888998900 -4.31171934633463 -2.62463606660666
 1 -2.57121087888789 -3.47646379477948  0.73615086208621
 1  1.13920972767277 -4.88721120362036 -0.64358807630763
 1  2.72729191499150 -5.27957066556656 -1.59287380128013
 1  4.70391481248125 -0.74774082518252  1.20214080028003
 1  5.61799599919992  0.67552198879888  1.67344181488149
 1  4.50341786208621  4.54022448984899 -0.20286026872687
 1  5.63240986378638  3.24342706190619  0.77802432563256
 1  4.11806122352235  4.34481999009901  1.66864816871687
 1  1.56557238923892  5.24720465006501  0.49793958085809
 1 -7.75802857445745 -2.14561055555555  1.51019571357136
 1 -7.27678332263226 -3.66747451335133  2.14704707260726
 1 -7.18776696069607 -3.32450021352135  0.44005559475948
 1 -6.63688102980298 -0.42010234153415  0.44012594049405
 1 -4.89623446524652  1.20721491839184 -1.05892974107411
 1 -6.59397122682268  0.66611423972397 -1.88427510601060
 1 -4.82510100560056 -0.31051420522052 -1.99773098579858
 1 -3.15414529382938  6.32087474327433  0.87822552655266
 1 -4.36504418191819  4.98792792499250  0.89245138293829
 1  0.25934049934994  6.56398835873587  1.76068880138014
 1 -1.37010839413941  7.26358305380538  1.20850010641064
 1  0.01751093869387  6.79759826032603  0.25590192439244
 1 -3.50181047684769  6.25276115921592 -1.84769258535854
 1 -5.06544836793679  6.01020376137614 -0.90261540324032
 1 -4.24791931303130  4.79510100240024 -1.58632837123712
 1  3.55297060356036 -4.54148837903790  2.02348098509851
 1  7.86880412511251 -2.01988264056406  1.72255241784178

