%nproc=4
%Mem=4GB
# td=(NStates=1) B3LYP/SVP 

TD

0 1
 8 -4.44410453125313 -4.76232631383138  1.82600796439644
 8  2.93167376547655 -4.70384493369337  1.33784171597160
 8  6.77959834123412 -1.62471001210121  1.95525574607461
 8  3.72257399019902 -3.10242936813681 -0.03457059865987
 8  7.62055080708071 -0.76097747704770  0.08607903860386
 8 -3.00977130593059  2.37729512701270 -0.08276318091809
 7 -0.26485086678668 -0.58308765856586 -0.52493112931293
 7  1.54722240494049  1.78737111591159 -0.39303096519652
 7 -3.42779972297230 -3.16470551735174  0.60387885918592
 7 -0.70020142304230  3.00125054325433 -0.10840586448645
 6  0.71160239263926 -2.47966340464046 -1.41197328042804
 6  0.91246017981798 -1.11737168826883 -0.91923447874787
 6 -0.63805813091309 -2.66098998839884 -1.25701590099010
 6 -1.27977008320832 -1.49793343524352 -0.74252571847185
 6  3.84343228452845  1.45567005230523 -0.42662887928793
 6  2.50980167316732  0.82994432623262 -0.52265382398240
 6  2.23054005830583 -0.52605875167517 -0.92167441244124
 6  3.50828466536654  2.76274428262826  0.00301952905291
 6  1.72349350185018 -3.51321658745875 -1.98196839783978
 6 -5.60841017621762 -2.57287919751975  1.45171511151115
 6 -3.59754181708171 -1.87297235923592  0.11436522152215
 6  2.14627888808881  2.97312374057406 -0.07517499449945
 6 -5.01982817911791 -1.47908341154115  0.41839047794780
 6  5.20428890699070  0.73763343334333 -0.55730878727873
 6 -2.63853481568157 -1.11927869946995 -0.42380279467947
 6 -1.46531446914691 -3.77816231853185 -1.97886112981298
 6 -4.48207567436744 -3.63993249894990  1.33617273187319
 6  1.98464894089409 -4.60261248094809 -0.95192804860486
 6  5.38417829412941  0.04645858195820  0.82281038713871
 6  4.57525331153115  3.77732896419642  0.26288847264726
 6  1.41764300570057  4.08097250475048  0.31276139563956
 6 -7.00631176177618 -3.07729510931093  1.36147561366137
 6 -5.73612221472147 -0.52550728062806 -0.21006248064806
 6 -0.04637962696270  4.12834750635063  0.12799142474247
 6 -0.99105006670667  5.20536162916292  0.42692732133213
 6 -2.24671999819982  4.70986710951095  0.26578798169817
 6  3.01206404770477 -4.02593921302130  0.09860125912591
 6 -5.52754741554155  0.41965719431943 -1.31064213121312
 6  6.66610917711771 -0.82411069516952  0.87766088868887
 6 -3.47194295359536  5.27130342854285  0.49025984108411
 6 -2.07577101340134  3.26907909920992  0.06568749354936
 6 -0.54571870937094  6.64939880788079  0.84093918371837
 6 -4.27101563846385  5.57769617451745 -0.85541631733173
 1 -0.41715928082808  0.14628033363336 -0.08379893319332
 1  3.08029204380438 -1.17041904400440 -1.18074758335834
 1  2.50375162606261 -2.91304601150115 -2.35655809050905
 1  1.10412719201920 -3.96689860746075 -2.87344971147115
 1 -5.46928873507351 -2.03571196029603  2.32539469997000
 1  5.16772708290829 -0.10892617611761 -1.25730888388839
 1  6.01546351195119  1.47137144644464 -0.75537683728373
 1 -2.95568366406641  0.03135763196320 -0.79458236383638
 1  0.52469880158016  2.03653483648365 -0.48727819991999
 1 -1.20260585178518 -4.80554265846585 -1.37595840154015
 1 -2.46645027472747 -3.57973567556756 -2.17483680388039
 1 -0.97568751985198 -3.89547772217222 -2.98693229622962
 1 -2.60545430323032 -3.85361150955096  0.61302854985499
 1  1.11710751745175 -4.87505998849885 -0.42726644414441
 1  2.33834302010201 -5.71523423192319 -1.52414692859286
 1  4.64526894789479 -0.82375842694269  0.91918250445044
 1  5.34269846944694  0.56370080668067  1.73476794749475
 1  4.32268978927893  4.60470093749375 -0.67711769446945
 1  5.66150277307731  3.43226594579458  0.21710823402340
 1  4.41713113051305  4.43547905600560  1.25773707760776
 1  2.03790962296230  5.01335126472647  0.51672145904591
 1 -7.70156292789279 -2.19293528802880  1.42451714571457
 1 -7.25094073837384 -4.03675144104410  2.21956432433243
 1 -7.20410859485949 -3.74441220472047  0.45580716991699
 1 -6.69678702040204 -0.64239457075708  0.08411033893389
 1 -4.99068391019102  1.32458665556556 -0.81328517661766
 1 -6.42181401110111  0.67370499879988 -1.96286296479648
 1 -4.81225972147215  0.06161300750075 -2.10290150285028
 1 -3.52971285058506  6.21482413821382  1.09852755675568
 1 -4.16083376087609  4.69290842304230  1.15165730353035
 1  0.14359892519252  6.43411537143714  1.70768350085009
 1 -1.39008039133913  7.29431612711271  1.05149440584058
 1  0.06583577117712  7.12873137363736 -0.03913757955796
 1 -3.64754505030503  6.35861174427443 -1.25239305540554
 1 -5.31999382248225  5.97456019701970 -0.64427956965697
 1 -4.44388890999100  4.61332282458246 -1.42206194459446
 1  3.63140844734473 -4.21284551475147  1.86780541754175
 1  7.57545479017902 -2.11643229552955  1.93888405100510

