%nproc=4
%Mem=4GB
# td=(NStates=1) B3LYP/SVP 

TD

0 1
 8 -4.47975809660966 -4.78909899109911  1.66913227682768
 8  3.16668726682668 -4.92184673387339  1.26364429622962
 8  6.96016639803980 -1.55868340944094  1.82482270277028
 8  3.69507123992399 -2.90814994019402  0.15918877727773
 8  7.51031978397840 -0.95398677797780 -0.32798236753675
 8 -3.02093242204220  2.40291768926893 -0.01018592319232
 7 -0.29548393009301 -0.57935728552855 -0.50633927012701
 7  1.56863454615462  1.71287366616662 -0.34214587668767
 7 -3.52162910591059 -3.20930997779778  0.55324379567957
 7 -0.76220762366237  3.00147056525653 -0.02006703060306
 6  0.64075530793079 -2.37168260656066 -1.34716679977998
 6  0.94279321312131 -1.07066701780178 -0.87338989428943
 6 -0.67500182528253 -2.58222211161116 -1.17446764616462
 6 -1.33015512171217 -1.40153379527953 -0.69191065696570
 6  3.78591653295330  1.47785227052705 -0.27878409480948
 6  2.57099779277928  0.78260959275928 -0.46131769036904
 6  2.28150515481548 -0.54748089388939 -0.89635188018802
 6  3.56203003990399  2.77297530573057 -0.07960873377338
 6  1.60689184168417 -3.38533379917992 -1.78723892489249
 6 -5.63323265846585 -2.67642955255526  1.30617055705571
 6 -3.65202726562656 -1.92486754875488  0.06574035903590
 6  2.13152741294129  2.94468089628963 -0.00089756675668
 6 -5.15837203350335 -1.64657016021602  0.38585722462246
 6  5.15110358845885  0.78338800880088 -0.47044010041004
 6 -2.67811877407741 -1.01461823342334 -0.45953636803680
 6 -1.45266320402040 -3.85480998329833 -1.58185142884288
 6 -4.53428089488949 -3.71768027372737  1.23581269586959
 6  1.97466794279428 -4.50864308400840 -0.75094795059506
 6  5.49583946024602 -0.07829389328933  0.75008311441144
 6  4.49263504970497  3.87431866316632  0.24849703350335
 6  1.34149539093909  4.16267067456746  0.29308942844284
 6 -6.94449558015802 -3.17133451325133  1.01485095119512
 6 -5.82734133663366 -0.65939066896690 -0.21899337373737
 6 -0.03295828482848  4.13498817041704  0.18494712031203
 6 -0.93177413911391  5.24214530753075  0.50053468206821
 6 -2.18011333753375  4.74925104790479  0.45144654755476
 6  3.01250409170917 -4.04177079617962  0.24225562456246
 6 -5.44271893269327  0.30695592419242 -1.31934300130013
 6  6.73141570777078 -0.87043532763276  0.65347847044704
 6 -3.60788654795480  5.38750504870487  0.38220903600360
 6 -2.12901633793379  3.24159635093509  0.06028695349535
 6 -0.37054119161916  6.66368023602360  0.70248533833383
 6 -4.07418595549555  5.78142654755476 -0.95715649134913
 1 -0.58540610551055  0.29446515211521 -0.22554310761076
 1  2.97787180178018 -1.40951295339534 -1.23372288088809
 1  2.53038428932893 -3.00518522542254 -2.27823025772577
 1  1.15540231953195 -3.89062097969797 -2.66282864936494
 1 -5.71215302150215 -2.36381477057706  2.48133029352935
 1  5.04901521172117  0.10980569706971 -1.33866701970197
 1  6.11519348494849  1.45053936323632 -0.60638193779378
 1 -3.07219531523152  0.02797729392939 -0.53125603120312
 1  0.45096142784278  1.62925410841084 -0.37353682578258
 1 -1.48649424062406 -4.53360546474647 -0.74592539823982
 1 -2.45990962066207 -3.45368307030703 -1.73514283448345
 1 -1.07504745584558 -4.29195737013701 -2.54745834883488
 1 -2.54280803860386 -3.64708085648565  0.94912215921592
 1  1.20042584928493 -4.75193767626763 -0.13600731823182
 1  2.49950913671367 -5.43365607410741 -1.31637615151515
 1  4.76072049304931 -0.89037508860886  0.89844043024302
 1  5.25833003260326  0.59583402000200  1.67745221592159
 1  4.42101962226223  4.54473494089409 -0.46174615731573
 1  5.55481210401040  3.64033675287529  0.45050157335734
 1  4.28575799319932  4.37651315941594  1.10813211711171
 1  1.97748358035804  5.05688561816182  0.50593037993799
 1 -7.62541531313131 -2.25860185468547  1.18533322732273
 1 -7.34501014531453 -3.95667343324332  1.56553892179218
 1 -7.20469865386539 -3.29226699019902 -0.17107551835184
 1 -6.78647598929893 -0.70595092639264  0.12581450935093
 1 -5.11351619341934  1.19018321522152 -0.57359120722072
 1 -6.23591542124212  0.61063869216922 -1.86878355685569
 1 -4.73025152065206 -0.08625177897790 -1.87230844354435
 1 -3.77221710101010  6.36228888468847  1.12017972197220
 1 -4.30308798629863  4.83054218641864  0.91262340014001
 1  0.39593415871587  6.50222218211821  1.46639937243724
 1 -1.25345672897290  7.46612330783078  1.10955021142114
 1 -0.03896470887089  7.10069857035704 -0.34616828262826
 1 -3.59080937673767  6.57712359545955 -1.22332014811481
 1 -5.18489031213121  5.84794753575357 -0.80889603130313
 1 -4.04904942604260  4.90828232053205 -1.79992973137314
 1  3.57123242974297 -4.18476270647065  1.92984162116212
 1  7.93133037773777 -1.76235688798880  1.69549971257126

