%nproc=4
%Mem=4GB
# td=(NStates=1) B3LYP/SVP 

TD

0 1
 8 -4.35268538933893 -4.73249333053305  1.86830219381938
 8  2.94712531063106 -4.70402495169517  1.36433436523652
 8  6.99253963536354 -1.35562310341034  1.91397161766177
 8  3.71733346614662 -3.01995112031203  0.05441830023002
 8  7.62342109410941 -0.63601498079808 -0.01757132643264
 8 -3.01662199099910  2.53398079557956 -0.11895680028003
 7 -0.29117349904991 -0.59287863766377 -0.58431706790679
 7  1.58451613431343  1.78995137393739 -0.41872353445345
 7 -3.27142408540854 -3.08454750155016  0.64392286358636
 7 -0.71790319321932  2.86601701990199 -0.07914293819382
 6  0.61561279367937 -2.49629506780678 -1.43426550965097
 6  0.89907884168417 -1.17181713281328 -0.94010656595660
 6 -0.85311963706371 -2.70014390379038 -1.30169036843684
 6 -1.39179128532853 -1.47003064496450 -0.84246571247125
 6  3.79528747004700  1.37857234253425 -0.43627984438444
 6  2.49994068706871  0.82726405820582 -0.64076563516352
 6  2.17180418471847 -0.45780192599260 -0.92081432643264
 6  3.50011384828483  2.68373638183818 -0.00125089798980
 6  1.63868502100210 -3.53683894969497 -1.90326052705271
 6 -5.48561789698970 -2.59130103970397  1.31691163116312
 6 -3.67206926982698 -1.75161022302230  0.12338612361236
 6  2.11199545974597  2.95276170437044  0.08101062406241
 6 -5.12813901020102 -1.55177068026803  0.35527416631663
 6  5.07218569666967  0.66955662566257 -0.52479553595360
 6 -2.63457441964196 -0.98991576317632 -0.50486090049005
 6 -1.57490542824282 -3.91006550885088 -1.85622886658666
 6 -4.39312677947795 -3.61774027972797  1.23914302890289
 6  1.99195967196720 -4.65167738743874 -0.78446130193019
 6  5.32929280558056 -0.28110417431743  0.68219632573257
 6  4.56373215941594  3.80902213351335  0.36096828062806
 6  1.35145638703870  4.05194960246025  0.27621774127413
 6 -7.02183331393139 -3.19691707150715  1.15354482058206
 6 -5.85904450695070 -0.56162089198920 -0.22053352775278
 6 -0.06201119011901  4.01389606120612  0.19134776037604
 6 -0.90246120782078  5.07132822582258  0.49214384298430
 6 -2.26065139133913  4.68582470527053  0.45394679757976
 6  3.01036387768777 -3.98977559665967  0.25252665166517
 6 -5.43755841664166  0.53999922852285 -1.21514258125813
 6  6.75478804500450 -0.73801208530853  0.79669279187919
 6 -3.52507826712671  5.37137343554355  0.46026684178418
 6 -2.02769620592059  3.26970916221622  0.05557648244824
 6 -0.44863900140014  6.49879374737474  0.88040313011301
 6 -4.14955349224922  5.65328373327333 -0.93295407110711
 1 -0.33835140004000  0.26918262386239 -0.01781233453345
 1  2.88993300790079 -1.24945694779478 -1.17921743034303
 1  2.63454470537054 -2.94891959885989 -2.14979741444144
 1  1.26807358665867 -4.03093501110111 -2.78305067156716
 1 -5.40332213841384 -2.35455384448445  2.22349450995100
 1  5.03792410261026  0.07022173867387 -1.40374352735274
 1  5.99095106070607  1.30131444074407 -0.67099839943994
 1 -2.63166126182618  0.19826432263226 -0.34107701330133
 1  0.61389772147215  1.89463064606461 -0.53128260036004
 1 -1.57314290549055 -4.60143224742474 -0.94900570627063
 1 -2.56815044474447 -3.34479218121812 -2.11324064426443
 1 -1.06176612771277 -4.40178835323532 -2.53922752575258
 1 -2.33764752255226 -3.65544169256926  0.49044629162916
 1  1.08306411311131 -4.92643512601260 -0.31101481898190
 1  2.59352853865386 -5.30985369386939 -1.35787030093009
 1  4.74459888088809 -1.25627167826783  0.43515410161016
 1  5.07808200780078 -0.00365592899290  1.74210868156816
 1  4.18488600890089  4.73329379677968 -0.07603758645865
 1  5.64982160496050  3.44853757295730  0.09016553975398
 1  4.42355177257726  4.23933944204420  1.33870517441744
 1  1.77925375737574  5.17414734433443  0.49716950385039
 1 -7.70860363196320 -2.54495048954895  1.64895958995900
 1 -7.22032767706771 -4.14608237413741  1.67428979687969
 1 -7.03471165516552 -3.48392615611561  0.26399798899890
 1 -6.84856219791979 -0.52091242254225  0.08454038193819
 1 -4.94655949774977  1.37649184608461 -0.87224107220722
 1 -6.45896772647265  0.87331495979598 -1.72967964646465
 1 -4.80520901640164  0.08907575377538 -1.91095230793079
 1 -3.50587046634663  6.23897655345535  1.12846055005501
 1 -4.29618729622962  4.68337746994700  0.84428656645664
 1  0.46683124842484  6.51579353925393  1.66189892239224
 1 -1.10913229652965  7.22164886038604  1.36976623302330
 1 -0.14698551095110  6.95105360586059 -0.14725839163916
 1 -3.61480177597760  6.31888777187719 -1.73770158625863
 1 -5.21448327142714  6.16137887888789 -0.99548469016902
 1 -4.21170569166917  4.56211770407041 -1.38536827522752
 1  3.58232353885389 -4.36775100530053  1.95785442244224
 1  7.94180142484248 -1.55561621392139  1.98545870847085

