%nproc=4
%Mem=4GB
# td=(NStates=1) B3LYP/SVP 

TD

0 1
 8 -4.49984010481048 -4.60184026522652  2.02635799939994
 8  3.02877347544755 -4.81128567776778  1.12415034683468
 8  7.01528190959096 -1.57838537963796  1.93028324882488
 8  3.87556928972897 -3.15827495269527 -0.17778492009201
 8  7.66992574457446 -0.34521590089009  0.20753118381838
 8 -2.93017334613461  2.41445884338434 -0.34782968756876
 7 -0.30638502020202 -0.67914726452645 -0.62597123332333
 7  1.54584226692669  1.77929030783078 -0.49315097719772
 7 -3.40300724372437 -3.13414246104610  0.71603007430743
 7 -0.75135653855386  2.97734815301530 -0.30796582048205
 6  0.59873110551055 -2.53222866116612 -1.43519560266027
 6  0.93020195399540 -1.20609056015602 -1.07640019531953
 6 -0.74067839293929 -2.78293218261826 -1.31615181458146
 6 -1.30438254445445 -1.52388603050305 -0.68450991689169
 6  3.72669061036104  1.34173865916592 -0.24942115851585
 6  2.38896958995900  0.75196652845285 -0.58837039563956
 6  2.18590559485949 -0.48858500430043 -0.99948219321932
 6  3.55215905280528  2.70245825402540 -0.02113288618862
 6  1.60613176567657 -3.48480374617462 -2.08386858785879
 6 -5.57926726192619 -2.49158106770677  1.43560350035003
 6 -3.63643570647065 -1.85739080108011  0.20697448244824
 6  2.06078033823382  2.89796622482248 -0.01725920292029
 6 -5.07120331663166 -1.52229773297330  0.41719035793579
 6  5.05914439253925  0.75882555255526 -0.25385844224422
 6 -2.67419838203820 -1.03827059865987 -0.36109652405241
 6 -1.58909684738474 -3.89434393669367 -1.82404564826483
 6 -4.41530899769977 -3.55311381708171  1.48262737733773
 6  1.94140461646165 -4.45717793749375 -0.96853970977098
 6  5.39626950325032 -0.20904696859686  0.95884399049905
 6  4.53780956715672  3.76850808210821  0.49369155295530
 6  1.37819906130613  4.08328273577358  0.21294141364136
 6 -6.92595372597260 -3.03164054385439  1.14865433153315
 6 -5.82452105460546 -0.60698542844284 -0.11391286568657
 6 -0.03348833783378  4.01549622122212  0.06774540014001
 6 -0.94813577527753  5.21440253325333  0.41633626222622
 6 -2.10743606980698  4.70865698849885  0.29796119901990
 6  3.03898673997400 -4.02012863196320  0.03642504150415
 6 -5.56352101290129  0.39011424002400 -1.23673474047405
 6  6.70914348054805 -0.64098238233823  0.92976609920992
 6 -3.46189194849485  5.33628992719272  0.50212102720272
 6 -2.02740617691769  3.24301649294929 -0.16266534173417
 6 -0.43168730623062  6.51344521252125  0.92110720052005
 6 -4.28242677957796  5.66754515941594 -0.79447022272227
 1 -0.52335990089009  0.30814652025203  0.05032447914791
 1  3.14733874847485 -1.09756175827583 -1.08563807240724
 1  2.45623687458746 -2.76750145704571 -2.28013044774477
 1  1.14894167346735 -3.86294821242124 -3.01244361086109
 1 -5.54766657285728 -1.98055644474447  2.47333949444944
 1  4.93819412961296  0.19180389688969 -1.26462961596160
 1  6.04271623722372  1.42388669796980 -0.40205150475048
 1 -2.87499559525953  0.00028452465247 -0.73830673627363
 1  0.30223655535554  1.82171335433543 -0.65708518061806
 1 -1.51457704890489 -4.75117722192219 -1.01508231393139
 1 -2.64087771747175 -3.55461316331633 -2.15697501770177
 1 -1.19779973107311 -4.38078625302530 -2.75025862886289
 1 -2.48518227602760 -3.48242439083908  0.69543679067907
 1  1.14244005070507 -4.66711919441944 -0.48055177267727
 1  2.41954113991399 -5.49653236173617 -1.50978549244924
 1  4.72773719471947 -1.08567461856186  0.80620120632063
 1  5.34112831243124  0.20297473407341  2.08387285798580
 1  4.41893941424142  4.73803427082708 -0.01484146684669
 1  5.65117173997400  3.38824154335434  0.32107863106311
 1  4.52941235863586  3.97319282738274  1.62595389928993
 1  1.84667049904990  5.13505343494349  0.38286807370737
 1 -7.57564033563356 -2.30795679017902  1.13440813481348
 1 -7.07208285258526 -3.65494326022602  1.95995836373637
 1 -7.06075425942594 -3.53294105760576  0.15261685088509
 1 -6.85652299399940 -0.62465279657966  0.03047497539754
 1 -4.88272311411141  1.16923112001200 -0.99260310841084
 1 -6.37316914661466  0.87749537783778 -1.59028570707071
 1 -4.98155665116512 -0.20025317911791 -2.06613782648265
 1 -3.58992887218722  6.27421007680768  1.24205190919092
 1 -4.08212589008901  4.60025915811581  1.05653779157916
 1  0.35226979227923  6.35808776867687  1.72478521102110
 1 -1.26907829112911  7.25982267776778  1.19607886428643
 1  0.00583977157716  7.10102860336034  0.21276761096110
 1 -3.92637293309331  6.31074695779578 -1.44686250235024
 1 -5.30122194529453  6.14274701570157 -0.61456659835984
 1 -4.42976749784978  4.70961245354535 -1.25961569997000
 1  3.79424473097310 -4.70894512471247  1.73661229822982
 1  7.81484872957296 -1.83323397569757  1.89017918051805

