%nproc=4
%Mem=4GB
# td=(NStates=1) B3LYP/SVP 

TD

0 1
 8 -4.55644576537654 -4.81609169036904  1.81127649124912
 8  3.12835343344334 -4.87664221342134  1.10581851365137
 8  7.09995037643764 -1.43426096719672  2.00890111061106
 8  3.77950968376838 -3.15432455765577 -0.07461460306031
 8  7.77072582458246 -0.49814119341934  0.05099553025302
 8 -3.11805213401340  2.58006540404040 -0.17231213581358
 7 -0.33832821452145 -0.50685003480348 -0.43040167636764
 7  1.66122380508051  1.87301968076808 -0.38021968406841
 7 -3.40837778077808 -3.22313135993599  0.65379385068507
 7 -0.70302170507051  2.86458687688769  0.00950592669267
 6  0.54374560696070 -2.36466190449045 -1.35832791589159
 6  0.85646458025803 -1.09335928702870 -0.88276083138314
 6 -0.82006633173317 -2.58973286268627 -1.30078027742774
 6 -1.39514162036204 -1.44735837773777 -0.79146061196120
 6  3.81034897619762  1.34897938323832 -0.30900711711171
 6  2.44023471647165  0.74282561436144 -0.51829338793879
 6  2.15765276957696 -0.50384653045305 -0.86472871787179
 6  3.67557139403940  2.71962997119712 -0.01747252015202
 6  1.63490464296430 -3.35280054585459 -1.91773197419742
 6 -5.54557389258926 -2.66166807640764  1.34481442144214
 6 -3.65001706460646 -1.93126818881888  0.10073385838584
 6  2.22327658785879  2.94518094629463 -0.00507798479848
 6 -5.03755995229523 -1.56880238343834  0.40122876177618
 6  5.17020549864987  0.63798346834683 -0.37899095549555
 6 -2.76659762196220 -1.01697846944694 -0.49646006040604
 6 -1.64505244294429 -3.72769727202720 -1.91720496419642
 6 -4.52733019981998 -3.72264076977698  1.29843895849585
 6  1.96169664566457 -4.47644986468647 -0.85253810961096
 6  5.38050792709271 -0.24540060396040  0.82744085018502
 6  4.56869265546555  3.80501173247325  0.44647683148315
 6  1.36321756315632  4.12749715721572  0.24776489598960
 6 -6.96652778337834 -3.19500688048805  1.23200266636664
 6 -5.86965556805681 -0.64020875077508 -0.03847532193219
 6 -0.01389637863786  4.01968664026403  0.25564419001900
 6 -0.96518748044804  5.22326341934193  0.43058768736874
 6 -2.16913223942394  4.71367749054905  0.35209661256126
 6  2.99536237753775 -4.04712133123312  0.06606800580058
 6 -5.59008366916692  0.51576680528053 -1.05657672467247
 6  6.80592315851585 -0.79191747584758  0.76607973057306
 6 -3.55155091439144  5.24956125432543  0.34214502960296
 6 -2.09958339463946  3.22003419471947 -0.00994006920692
 6 -0.49642377987799  6.70049391739174  0.57294238403840
 6 -4.02445098199820  5.60351875677568 -1.12853362906291
 1 -0.43374093899390  0.34237994359436  0.01500094679468
 1  2.85448946354635 -1.34237623972397 -0.97188669726973
 1  2.51563281418142 -2.75057976487649 -2.18452088678868
 1  1.18005478477848 -3.73531544914491 -2.89766213271327
 1 -5.36619842604260 -2.22603099219922  2.48178033853385
 1  5.14158446864687  0.01118583508351 -1.30007316031603
 1  6.04638660426043  1.20623493279328 -0.54122542214221
 1 -3.05797389308931  0.00578507470747 -0.67039994559456
 1  0.64135046674667  1.73942512551255 -0.41664113621362
 1 -1.46126171737174 -4.58072017621762 -1.17226803250325
 1 -2.75269889958996 -3.57895559755976 -1.99446876707671
 1 -1.23136308740874 -3.84259243364336 -2.78137174017402
 1 -2.49348310611061 -3.63011916031603  0.68003525052505
 1  1.02456826352635 -4.89212169466947 -0.22903662116212
 1  2.33182236803680 -5.27451015951595 -1.33895840974097
 1  4.79133355435544 -0.98192424352435  0.76133671987199
 1  5.14179837943794  0.27688212481248  1.92105657635764
 1  4.19173669396940  4.67749821722172 -0.18169815251525
 1  5.76554317711771  3.35754847404741  0.08181470467047
 1  4.54733415081508  4.07427293539354  1.46295759965997
 1  2.02963879587959  5.06739666926693  0.67737752465246
 1 -7.62268504010401 -2.38460445494549  1.72549724372437
 1 -7.10968661296130 -4.03306107200720  1.91903427132713
 1 -7.21255943994399 -3.63025078857886  0.20940252945295
 1 -6.76194353605360 -0.84123445474547  0.47847977587759
 1 -5.06532137393739  1.37471166806681 -0.63320716881688
 1 -6.64340617031703  0.76727435573557 -1.42505918441844
 1 -5.18506700220022  0.07261410761076 -2.12696390909091
 1 -3.55620549984999  6.14895755155515  0.98572627662766
 1 -4.23810148764877  4.69371850405041  0.92305444324432
 1  0.36661122642264  6.65723768366837  1.16201893439344
 1 -1.25931731503150  7.25812250775077  0.87204646104610
 1 -0.10594140654065  7.09014751525152 -0.49622328812881
 1 -3.53621391719172  6.32868875197520 -1.84382219831983
 1 -5.20271209430943  6.13113585458546 -1.05571071277128
 1 -4.36482100320032  4.58469996229623 -1.67322706110611
 1  3.94942024852485 -4.63377760796080  1.58257689468947
 1  7.91558880358036 -1.79912056435644  1.94144430703070

