%nproc=4
%Mem=4GB
# td=(NStates=1) B3LYP/SVP 

TD

0 1
 8 -4.59724984578458 -4.71029111031103  1.96429179277928
 8  2.97164776287629 -4.70746529572957  1.29499743154315
 8  6.94809519091909 -1.62557009810981  1.79283950445045
 8  3.79502123492349 -3.12591171637164 -0.06002314391439
 8  7.64552330433043 -0.67294867416742 -0.06717628692869
 8 -2.92619294809481  2.54299169666967 -0.21205611021102
 7 -0.40086446814681 -0.54921427122712 -0.61644028022802
 7  1.53517119981998  1.88662104090409 -0.33698536063606
 7 -3.44335127812781 -3.20108915571557  0.67447591889189
 7 -0.71214261716172  2.94066448464846  0.01568654475448
 6  0.56590782318232 -2.53536897519752 -1.40180226332633
 6  0.92001093489349 -1.12809276037604 -0.95996855215522
 6 -0.72665699079908 -2.68095198459846 -1.22107230663066
 6 -1.30165227142714 -1.56802044394439 -0.70326179207921
 6  3.76003394469447  1.45406989228923 -0.34688090449045
 6  2.38427912091209  0.90440177197720 -0.57615917451745
 6  2.12250925522552 -0.42248839463946 -0.82173441844184
 6  3.59622345924592  2.76754476267627  0.07752697979798
 6  1.58734988748875 -3.44011927772777 -2.00111031203120
 6 -5.53715305050505 -2.57079898949895  1.38574851485149
 6 -3.61254331723172 -1.93212827482748  0.10548433343334
 6  2.23558781898190  3.06840326852685 -0.02425990299030
 6 -5.05711190749075 -1.53799930313031  0.37678631753175
 6  5.16027450555056  0.62776244624462 -0.37598065446545
 6 -2.70960192239224 -1.04383115471547 -0.26038645304530
 6 -1.42360029772977 -3.92783728602860 -1.82400564426443
 6 -4.56900436723672 -3.60760926662666  1.42364147874787
 6  2.03632410841084 -4.56585880558056 -0.91420427622762
 6  5.43452332863286 -0.17669373327333  0.85247335343534
 6  4.59009479567957  3.84044527582758  0.37982016581658
 6  1.38838007940794  4.18282268976898  0.32898301780178
 6 -6.95074620522052 -3.17635501530153  1.10093956005601
 6 -5.79435803830383 -0.56534126402640 -0.29994146854685
 6 -0.00409539853985  4.05892056365637  0.30720934653465
 6 -0.95272623432343  5.20578167116712  0.38668329692969
 6 -2.20134546074607  4.71865798859886  0.32221362426243
 6  3.03019586088609 -4.04795141424142  0.15480687968797
 6 -5.37723238403840  0.24545977457746 -1.43949501650165
 6  6.79537210341034 -0.81824010811081  0.67862098469847
 6 -3.55515127442744  5.41697799599960  0.45347616271627
 6 -2.11831526782678  3.30721291259126  0.01186211101110
 6 -0.43317745524552  6.54915878387839  0.75410049984999
 6 -4.35191372827283  5.56740514541454 -0.83569434513451
 1 -0.66340390529053  0.17447315291529 -0.24614516781678
 1  3.07301131573157 -1.11574357645765 -0.85909541814181
 1  2.54115536643664 -2.76499120602060 -2.09472190689069
 1  1.30604738403840 -3.83333525112511 -3.03083545004500
 1 -5.89593139933993 -2.00034842394239  2.22715487598760
 1  5.03766407660766  0.03159787628763 -1.41854500750075
 1  5.88081004660466  1.43746805610561 -0.66022732233223
 1 -2.92281037673767 -0.16189169296930 -0.30156306190619
 1  0.40875720742074  1.78542972597260 -0.16254572667267
 1 -1.65023061426143 -4.64365646984698 -1.10414121982198
 1 -2.48016164586459 -3.65090279227923 -2.20834015421542
 1 -0.76373632473247 -4.50789896429643 -2.48167177017702
 1 -2.66306006380638 -3.93380952935293  0.66286353335334
 1  1.27835364206421 -5.02311479397940 -0.27653137063706
 1  2.64278346414641 -5.31980468896890 -1.48116263016302
 1  4.67754217521752 -1.00906695779578  1.05334592079208
 1  5.34275847544755  0.47580201680168  1.83010748144814
 1  4.16904442474247  4.82763323072307 -0.12392237493749
 1  5.62133875667567  3.59306202540254 -0.16019949674967
 1  5.02284170157016  4.01430693879388  1.36918822272227
 1  1.83770960296030  5.13910383998400  0.27188697559756
 1 -7.58139091069107 -2.29381537603760  1.36514120812081
 1 -7.21986763106311 -4.07567533343334  1.79962233013301
 1 -6.94060224422442 -3.46663442694269 -0.06001441224122
 1 -6.79047638933893 -0.59813014431443 -0.10960903300330
 1 -4.89706454825482  1.24978917581758 -1.13771761986199
 1 -6.23147497719772  0.64970259855986 -2.14586126462646
 1 -4.61371986748675 -0.19375252905290 -1.99720093279328
 1 -3.48673855315532  6.44729738553855  0.71580928492849
 1 -4.15923360086009  4.68962809500950  1.24904704250425
 1  0.20876544184418  6.67622958285829  1.63285601810181
 1 -1.17182856615662  7.41921861736174  0.75224448084808
 1  0.18441762936294  6.96313481398140  0.15622195639564
 1 -3.93190348614862  6.42538842194219 -1.48019583568357
 1 -5.54955677877788  5.86593933493349 -0.64529967166717
 1 -4.46791131223122  4.70291178347835 -1.54900463886389
 1  3.80505581208121 -4.35908013821382  1.72323096009601
 1  7.91177842254225 -2.09813046534653  1.75936609920992

