%nproc=4
%Mem=4GB
# td=(NStates=1) B3LYP/SVP 

TD

0 1
 8 -4.63890401120112 -4.72226230743074  1.93325868946895
 8  2.71499209730973 -4.81536608580858  1.25628356015602
 8  7.07334771617162 -1.49832737383738  1.73742396289629
 8  3.64567630043004 -3.12107123232323  0.10546340474047
 8  7.62977172917292 -0.53831521082108 -0.21184075337534
 8 -3.05952628142814  2.55821321882188 -0.39071397599760
 7 -0.24948933063306 -0.55901525132513 -0.62669130533053
 7  1.50734841754175  1.77268964776478 -0.22235389748975
 7 -3.43624056705671 -3.11233027982798  0.58723719501950
 7 -0.74178558145815  2.83669408760876  0.00256523262326
 6  0.73348458085809 -2.43757919621962 -1.50381246434643
 6  0.97487642144214 -1.06919687078708 -1.02439499479948
 6 -0.61139546464646 -2.72796668606861 -1.21319151855186
 6 -1.22098420462046 -1.54475811771177 -0.68922038793879
 6  3.75886382768277  1.41422590789079 -0.29032524892489
 6  2.42172286528653  0.87079841164116 -0.47322888148815
 6  2.18780578487849 -0.41992813861386 -0.99826207120712
 6  3.52866670357036  2.72844085228523  0.08034726182618
 6  1.73716486898690 -3.44912017781778 -2.04105430643064
 6 -5.54395373057306 -2.56743865346535  1.37598753875388
 6 -3.66215827872787 -1.86910197219722  0.17016080108011
 6  2.11647590779078  2.89760618881888  0.05004752775278
 6 -5.07351354765477 -1.56321182438244  0.40853949284929
 6  5.08831730983098  0.65452512251225 -0.39531258765877
 6 -2.60459142134213 -1.15797256885689 -0.44420483488349
 6 -1.34831276897690 -3.91298580088009 -1.75297854155416
 6 -4.47461492829283 -3.62362086778678  1.36824593919392
 6  2.10824130013001 -4.49771199089909 -0.93714657045705
 6  5.44096397269727 -0.15599166306631  0.85858396449645
 6  4.42237802400240  3.75504673597360  0.51098328212821
 6  1.32678391979198  4.08463287078708  0.35329544904490
 6 -6.97786891749175 -3.16598397819782  1.34881434753475
 6 -5.81162976547655 -0.56875160506051 -0.26706818121812
 6  0.00005501650165  3.95729040064006  0.34115274087409
 6 -0.92622358405841  5.16255734873487  0.51447607620762
 6 -2.19758508470847  4.68111423422342  0.31343274617462
 6  2.92880572187219 -4.10973759285929  0.19123052205221
 6 -5.42089675047505  0.44284951355136 -1.16592765976598
 6  6.85755832203220 -0.72271055515552  0.65857898049805
 6 -3.48517427672767  5.57508380658066  0.35069588468847
 6 -2.13479691599160  3.20956314761476 -0.01642071727173
 6 -0.46377051455146  6.49937380538054  0.80111520132013
 6 -4.28933747064706  5.72062046694669 -1.08635941164116
 1 -0.53171073597360  0.17639334493449 -0.14455500880088
 1  3.08562257685769 -0.99640164226423 -1.17239674827483
 1  2.55107635853585 -2.97279198609861 -2.44863729842984
 1  1.13146992629263 -3.94883680128013 -2.77130949744974
 1 -5.40498230443044 -2.28574696379638  2.44650681118112
 1  4.81544185438544 -0.11530681418142 -1.22559571257126
 1  5.89614157975798  1.26445075437544 -0.57651895149515
 1 -2.84172226792679 -0.10599610341034 -0.67294019961996
 1  0.49766609830983  1.76516769976998 -0.52714218631863
 1 -1.39581517271727 -4.93191529572957 -1.06185699139914
 1 -2.36830045974597 -3.78357605960596 -1.88459777997800
 1 -1.00509046014601 -4.18089626402640 -2.74873847684769
 1 -2.53724748254825 -3.43138928732873  0.74698194519452
 1  1.22459826652665 -4.99045152765277 -0.73368708620862
 1  2.75981516731673 -5.28227093559356 -1.26416092999300
 1  4.68619304030403 -0.97199325042504  0.99066965316532
 1  5.44242844244425  0.60054449104910  1.82104657535754
 1  4.48525604590459  4.66151661906191 -0.11068105080508
 1  5.51261788458846  3.39727244644464  0.40100662386239
 1  4.41098051545154  3.84232974107411  1.66184748864887
 1  2.01851768376838  5.09692962256226  0.04344413131313
 1 -7.52595536713671 -2.23676967146715  1.35773046704670
 1 -7.08842448674867 -4.10566833273327  1.88024039193919
 1 -7.30053823782378 -3.39744750825083  0.25194678387839
 1 -6.77849519121912 -0.52946327762776  0.07303923182318
 1 -4.67279212101210  1.28543274017402 -0.83701754985499
 1 -6.26096792649265  0.83811143944394 -1.71890856935694
 1 -4.57818631413141  0.09228607480748 -1.88926013871387
 1 -3.20711059035904  6.55313796959696  0.56122382638264
 1 -4.22544022152215  5.33640277247725  1.20926306410641
 1 -0.02954838953895  6.61399335923592  1.77563029552955
 1 -1.29040042334233  7.15129182468247  1.13806306270627
 1  0.07525671327133  6.93689218971897 -0.08514218001800
 1 -3.78979927572757  6.43323920702070 -1.73609142524252
 1 -5.25172699579958  6.09366210721072 -0.77785292699270
 1 -4.46346086718672  4.62532402470247 -1.51459119751975
 1  3.49188449494950 -4.49953418361836  1.88076671367137
 1  7.84100134483448 -2.21957260956096  1.51185134773477

