%nproc=4
%Mem=4GB
# td=(NStates=1) B3LYP/SVP 

TD

0 1
 8 -4.54434455525553 -4.73127320852085  1.88156351995200
 8  2.81133173127313 -4.87292184138414  1.27242517431743
 8  7.17893827522752 -1.43591113221322  1.92767298779878
 8  3.82687442024202 -3.19770889608961  0.15924878327833
 8  7.52386113811381 -0.76867824712471 -0.13294286358636
 8 -3.10425075387539  2.49372677017702 -0.07474237883788
 7 -0.27275165686569 -0.56554590439044 -0.62070070627063
 7  1.50702838553855  1.76155853465347 -0.37057871997200
 7 -3.49145608860886 -3.18808785558556  0.54876334763476
 7 -0.75084648754875  2.94949536773677 -0.03861888578858
 6  0.72269350175017 -2.48664410271027 -1.49449153225323
 6  0.95030396419642 -1.19677962906291 -0.93108566386639
 6 -0.76119044414441 -2.65228911831183 -1.36787698709871
 6 -1.26702880908091 -1.47782142404240 -0.79790125602560
 6  3.75110305160516  1.41231571687169 -0.31201741814181
 6  2.53890458345835  0.73787511931193 -0.51641319991999
 6  2.19897690199020 -0.53894003980398 -0.75766801180118
 6  3.62981681858186  2.80274828302830 -0.16063683658366
 6  1.71718287078708 -3.42411767756776 -1.93023322432243
 6 -5.59186852205221 -2.52280419001900  1.36633657365737
 6 -3.70231229412941 -1.83808887088709  0.12683646864686
 6  2.13317757795780  3.01044747294729 -0.16264374137414
 6 -5.06435263156316 -1.49922542574257  0.43468210711071
 6  5.21420989908991  0.75173484348435 -0.33250630703070
 6 -2.70167112931293 -1.09180595219522 -0.50078049244924
 6 -1.47975591329133 -3.88057255955596 -1.93970721442144
 6 -4.55781324812481 -3.67923642934293  1.33239235383538
 6  2.06551702770277 -4.58027024672467 -0.86710956675668
 6  5.45679555585559 -0.04445050895090  0.87402550865087
 6  4.50003578977898  3.85420665196520  0.23205538933893
 6  1.30949219061906  4.09881428892889  0.20318043754375
 6 -6.92446357695770 -3.11884926472647  1.04594406050605
 6 -5.75900450295030 -0.47515224512451 -0.05409688408841
 6 -0.06817180618062  4.08654332593259  0.22226085168517
 6 -0.98250921262126  5.23449454245425  0.45036966556656
 6 -2.26110143634363  4.75723184598460  0.39098050095009
 6  2.98232107340734 -4.07078369746975  0.23560495949595
 6 -5.41694635543554  0.38724395299530 -1.19863093009301
 6  6.78275084128413 -0.83041132523252  0.76743986658666
 6 -3.55631139043904  5.43790008820882  0.45908672377238
 6 -2.05703914021402  3.24178636993699  0.02642356715672
 6 -0.46827096459646  6.62742661066107  0.82961805160516
 6 -4.23900243714371  5.54366277117712 -0.80826160186019
 1 -0.51052861776178  0.10655636123612  0.11990143684368
 1  3.04994900950095 -1.14316631873187 -0.77329683828383
 1  2.83097434833483 -2.86220092699270 -2.00721315601560
 1  1.42563934323432 -3.97845976357636 -2.82821518801880
 1 -5.43418522472247 -2.25450383948395  2.54070623112311
 1  5.18100841104110  0.20802551905191 -1.29844299729973
 1  5.99474143974397  1.50116442574257 -0.40091139073907
 1 -2.91572966866687 -0.02465796959696 -0.56412931853185
 1  0.51500783248325  1.82774395739574 -0.82758223032303
 1 -1.48806439763976 -4.80633273747375 -1.21071187688769
 1 -2.47447107680768 -3.66617431943194 -2.11969128932893
 1 -0.93592354345434 -4.08823699809981 -2.88669227222722
 1 -2.42298605640564 -3.51164731313131  0.64989223622362
 1  1.33415922262226 -4.82488497099710 -0.32045576307631
 1  2.40140932673267 -5.41062377087709 -1.48199271317132
 1  4.72238665966597 -0.77946399749975  1.11438202440244
 1  5.59369356895690  0.67940237683768  1.71979645034503
 1  4.41880940124012  4.64906537393739 -0.52290227292729
 1  5.79231585438544  3.72729544874487  0.14085060826083
 1  4.27737715511551  4.16731223932393  1.35881718561856
 1  1.72123795579558  5.06964689428943  0.30923070997100
 1 -7.82407517911791 -2.52823881838184  1.33438813281328
 1 -6.83095874017402 -4.08205597149715  1.87028939683968
 1 -6.94252243624362 -3.50788855235524  0.07406899609961
 1 -6.85197253895390 -0.32209254055406  0.42890481838184
 1 -4.58121296309631  1.19872406930693 -0.83638748684869
 1 -6.37525935563556  0.73095072337234 -1.55974265276528
 1 -5.13887238273827 -0.00575372917292 -2.22551376407641
 1 -3.42701258055806  6.40450310611061  0.86235393939394
 1 -4.29470714821482  4.78424755695570  1.30295243304330
 1  0.00578514381438  6.79022098199820  1.90187291979198
 1 -1.31780316361636  7.20329702520252  0.80498975537554
 1  0.20477966556656  6.84685318581858 -0.13936760256026
 1 -3.68441873767377  6.14906078917892 -1.74856267236724
 1 -5.32111393449345  5.99728246924692 -0.65173031473147
 1 -4.51930645174517  4.58011950425043 -1.30783052145215
 1  3.51833714021402 -4.76164039423942  1.85020365736574
 1  7.97230447514751 -1.87235788808881  1.66114627722772

