%nproc=4
%Mem=4GB
# td=(NStates=1) B3LYP/SVP 

TD

0 1
 8 -4.49559968076808 -4.61197127832783  1.92779814341434
 8  2.99244984308431 -4.81325587478748  1.27732566436644
 8  7.17816819821982 -1.55941348244824  1.75423564406441
 8  3.72771450425043 -2.96990611581158  0.03766662506251
 8  7.51271002300230 -0.58702008130813 -0.18369793909391
 8 -2.99665999479948  2.46657405490549 -0.26240114471447
 7 -0.31747612931293 -0.61358070787079 -0.60761939813981
 7  1.63722140484048  1.84643702250225 -0.40053171527153
 7 -3.46637358035804 -3.16323537033703  0.62017048834884
 7 -0.68181958485849  2.88942936113611 -0.05431045494549
 6  0.61742297469747 -2.51662710101010 -1.41052313541354
 6  0.93649258305831 -1.17557750885089 -1.04013656895690
 6 -0.83350767586759 -2.63406729612961 -1.33096329572957
 6 -1.31026313251325 -1.52913655555556 -0.75919738563856
 6  3.76996493779378  1.37161164646465 -0.27702391879188
 6  2.48629932293229  0.83299463126313 -0.57859941854185
 6  2.15162216651665 -0.49603574937494 -0.89059130413041
 6  3.60485432233223  2.69168717691769  0.04998422552255
 6  1.56428758125813 -3.50061532733273 -1.88148834983498
 6 -5.64385372057206 -2.63805571517152  1.37177711771177
 6 -3.66155821872187 -1.83775883788379  0.00132391739174
 6  2.13811807200720  2.91050747894789 -0.00697817481748
 6 -5.05737193349335 -1.56019152235224  0.39166780568057
 6  5.16359483758376  0.68687835783578 -0.30336339273927
 6 -2.67129809200920 -1.07041381298130 -0.47640805520552
 6 -1.60022796049605 -3.88607310961096 -1.87287053075308
 6 -4.48199566636664 -3.64510301600160  1.34979409400940
 6  2.04492496849685 -4.49266148584858 -0.82746560236024
 6  5.52021189748975  0.00790472657266  0.97774588068807
 6  4.55199098529853  3.81054228552855  0.51132331613161
 6  1.39402064346435  4.05703011051105  0.36952707220722
 6 -6.99899102970297 -3.18662604240424  1.10438990509051
 6 -5.80422902540254 -0.55401013091309 -0.16552802720272
 6 -0.00097508650865  3.97123179477948  0.22938156375638
 6 -0.92104306600660  5.15051614461446  0.52827745634563
 6 -2.18333365956596  4.71740786358636  0.30086148904890
 6  3.07054989628963 -3.96519313841384  0.25321672067207
 6 -5.49705436623662  0.58341356995700 -1.14347541454145
 6  6.74475704190419 -0.73751203530353  0.73648677127713
 6 -3.49258501780178  5.41041733993399  0.40931174627463
 6 -2.06284972127213  3.24260645194519 -0.06256533173317
 6 -0.43038717621762  6.55440930893089  0.71386647644764
 6 -4.40937947484748  5.44994339923992 -0.90704147984798
 1 -0.39343690859086  0.32185789138914 -0.15661621492149
 1  3.03645766036604 -1.16095809790979 -1.01360086868687
 1  2.42004325522552 -3.22711741864186 -2.34661709640964
 1  1.13038981828183 -3.94834675227523 -2.78062042854285
 1 -5.61628343454345 -2.17137552665267  2.23185534603460
 1  5.32355266546655 -0.03403868736874 -1.21602475547555
 1  5.85228719431943  1.37160146944694 -0.78627992759276
 1 -2.96839493519352  0.01226572277228 -0.61310421602160
 1  0.51031736343634  1.86154733773377 -0.58086755885589
 1 -1.35220081128113 -5.03429553375338 -1.43028383408341
 1 -2.78763239293929 -3.68376607860786 -1.66155547574757
 1 -1.18083803490349 -3.96367454185418 -2.90124372737274
 1 -2.61725548334834 -3.72427857625763  0.77029427642764
 1  1.23833964066407 -5.11454393689369 -0.54489820732073
 1  2.47017620342034 -5.28142085058506 -1.30328484238424
 1  4.78647306830683 -0.75989204030403  1.07715830203020
 1  5.63452765236524  0.78529296589659  1.77189165986599
 1  4.34699221952195  4.47869833723372 -0.33350333303330
 1  5.67440406320632  3.70424314351435  0.47781430463046
 1  4.20388980638064  4.08285379347935  1.37715901980198
 1  1.85850168216822  4.93833376297630  0.84747453435344
 1 -7.60859363096310 -2.24661065556556  1.38800349434944
 1 -7.28338398269827 -3.94168193409341  1.63887625552555
 1 -7.16975515951595 -3.28911667516752  0.01192278147815
 1 -6.77244458615862 -0.32003233453345  0.34421634953495
 1 -4.84612945474547  1.10815501240124 -0.48328217631763
 1 -6.30498232793279  1.06843447174717 -1.61741842034203
 1 -4.94299279477948  0.23281012721272 -2.05571678437844
 1 -3.20659053835384  6.40124278007801  0.67001470547055
 1 -4.13690136763676  4.79228836103610  1.22572471027103
 1  0.32806737203720  6.49630159005901  1.49581231373137
 1 -1.15415679897990  7.21070776627663  1.00659991639164
 1 -0.03039385178518  7.03953245374537 -0.21638530433043
 1 -3.77614791059106  5.97178306140614 -1.69490730683068
 1 -5.35064688778878  5.83673641464146 -0.66255139683968
 1 -4.72095661676168  4.29358085038504 -1.11781151955195
 1  3.62612791929193 -4.59157338753875  1.98752738973897
 1  7.99089633433343 -1.85958661096110  1.69809997259726

