%nproc=4
%Mem=4GB
# td=(NStates=1) B3LYP/SVP 

TD

0 1
 8 -4.50100022082208 -4.85872595379538  1.83652901650165
 8  2.74379497759776 -4.63254780398040  1.45612354415442
 8  7.23601398279828 -1.62993053415341  1.56780700120012
 8  3.72145387818782 -3.07772689788979  0.15393825222522
 8  7.73489224122412 -0.45270664996500 -0.29418898819882
 8 -2.92946327512751  2.48329572707271 -0.34497940254025
 7 -0.26893127482748 -0.65293464326433 -0.52870150635063
 7  1.54929261196120  1.79240161896190 -0.10186184828483
 7 -3.59566650965097 -3.22300134693469  0.49358783008301
 7 -0.71962336523652  2.95918633683368 -0.13937896179618
 6  0.56654788718872 -2.48473391169117 -1.34310639373937
 6  0.94132306610661 -1.18253820492049 -0.87102965826583
 6 -0.78893321842184 -2.71109499889989 -1.24571477087709
 6 -1.31681378757876 -1.53302694459446 -0.74253571947195
 6  3.79901784308431  1.45422990829083 -0.23042925932593
 6  2.52349304230423  0.88488982078208 -0.47818937753775
 6  2.18851585588559 -0.44875102090209 -0.82429467446745
 6  3.64675851275128  2.76298430663066  0.09096832393239
 6  1.60328148064806 -3.46948221402140 -1.85125532653265
 6 -5.64745408060806 -2.64939684928493  1.31451139113911
 6 -3.69362142504250 -1.90829589158916  0.11990577557756
 6  2.14037829802980  2.98328475667567  0.15111763476348
 6 -5.05388158445845 -1.56112161536154  0.46500513941394
 6  5.10698917701770  0.77746741674167 -0.44674773117312
 6 -2.71016197839784 -1.13330010161016 -0.45661607600760
 6 -1.58551648934894 -3.87678218051805 -1.69797304100410
 6 -4.61512897969797 -3.81140964666467  1.29372848744874
 6  1.98928940494049 -4.54723694339434 -0.84341719751975
 6  5.57195707200720 -0.26103216711671  0.67243534963496
 6  4.68602438863886  3.86071730303030  0.37882006580658
 6  1.33989523092309  4.19435384288429  0.26205632513251
 6 -7.15220635123512 -3.22963034283428  0.91375084118412
 6 -5.94437303980398 -0.55006973687369 -0.07411888628863
 6  0.00295530653065  4.12727739933993  0.23813243884388
 6 -0.99816077777778  5.17270836383638  0.47266189478948
 6 -2.22586791299130  4.68505462826283  0.30808221112111
 6  2.91835467676768 -4.07595421452145  0.28475987498750
 6 -5.37900256105611  0.33108833743374 -1.21366243324332
 6  6.94251681788179 -0.68208649274927  0.63410653325333
 6 -3.56541230053005  5.31294759295930  0.47404821992199
 6 -1.95687912421242  3.22723491479148 -0.15261433663366
 6 -0.60353449094909  6.64171803980398  0.78131322112211
 6 -3.99149768666867  5.90676908180818 -0.94013478917892
 1 -0.45141270617062  0.22832853845384 -0.09847040034003
 1  3.02587660226023 -1.22381438353835 -1.14941445004500
 1  2.41950320122012 -2.90564527142714 -2.40180261496150
 1  1.23044982428243 -4.23384530213021 -2.58523088958896
 1 -5.61208301450145 -2.40629901900190  2.26776893739374
 1  5.16076638683868  0.28737345384538 -1.30821397439744
 1  5.81796376197620  1.72347665696570 -0.55410671027103
 1 -2.68930702640264 -0.05690119391939 -0.39220212581258
 1  0.52827915961596  1.63040422342234 -0.56666613871387
 1 -1.16379197039704 -4.75899800400040 -1.05758656435644
 1 -2.81086471617162 -3.62929063106311 -1.66233555375538
 1 -1.14119407050705 -4.06670484488449 -2.70656425942594
 1 -2.61091484928493 -3.74165031343134  0.47091433843384
 1  1.05278108480848 -4.75031751425143 -0.30887460496050
 1  2.39680886668667 -5.52771548004800 -1.52097661156116
 1  4.94048846984699 -1.10228627972797  0.67753834003400
 1  5.46821102070207  0.16708114471447  1.63337780848085
 1  4.49578709900990  4.78573904130413 -0.39468945164516
 1  5.58657528032803  3.60263298249825  0.28144466766677
 1  4.53729314671467  4.22593810191019  1.38889019291929
 1  1.93109894189419  5.15632556215621  0.57961774867487
 1 -7.89844261586159 -2.54501049554955  1.16190088408841
 1 -7.58604424872487 -3.97964573047305  1.75460782868287
 1 -7.37769595359536 -3.77401516501650 -0.09157756855686
 1 -6.88963630533053 -0.67891822312231  0.26860878877888
 1 -4.51021586338634  1.13789798669867 -0.92321616971697
 1 -6.27965979567957  1.06835446374637 -1.60041672017202
 1 -4.89684818031803 -0.09504265806581 -2.08516972967297
 1 -3.64860473977398  6.16576923272327  1.09319702370237
 1 -4.07641531903190  4.40128926112611  0.91345348314831
 1  0.06742130743074  6.74326628652865  1.58612134463446
 1 -1.63111449474947  7.07007370287029  1.11596085248525
 1 -0.47576838923892  7.23801230173017 -0.16059972577258
 1 -3.26198649444945  6.62907879097910 -1.31249906600660
 1 -4.79632145524552  6.53380612161216 -0.61928707040704
 1 -4.19537405850585  5.02706419871987 -1.67934767316732
 1  3.28796410291029 -4.21712594279428  2.21472010901090
 1  8.19578682338234 -1.81759241154115  1.47461762436244

