%nproc=4
%Mem=4GB
# td=(NStates=1) B3LYP/SVP 

TD

0 1
 8 -4.49904002480248 -4.58361844304430  1.97441280488049
 8  2.82069266736674 -4.57376192539254  1.37013494529453
 8  6.98450883228323 -1.39366690779078  1.85278549904991
 8  3.89542127492749 -3.18038716391639 -0.06833397499750
 8  7.76997574957496 -0.37861924122412  0.08503893459346
 8 -3.03412374117412  2.45015241274127 -0.28469337393739
 7 -0.27905228692869 -0.73954330413041 -0.51951058725873
 7  1.54608229092909  1.76091847064706 -0.38756041814181
 7 -3.43861080408041 -3.08630767756776  0.60401887318732
 7 -0.80396179907991  2.92001241944194 -0.24743976787679
 6  0.60376160856086 -2.60648608690869 -1.38345042814281
 6  0.91843077687769 -1.25368531963196 -0.95023757905791
 6 -0.74957928302830 -2.77905179457946 -1.23462366176618
 6 -1.27366947314731 -1.57227086898690 -0.68174964086409
 6  3.75422336363636  1.34847933323332 -0.41139735613561
 6  2.43275396839684  0.67336866866687 -0.57271883048305
 6  2.07945494979498 -0.53724987078708 -0.88896114111411
 6  3.55382921982198  2.61554956315632 -0.03666443934393
 6  1.65753690619062 -3.55091035683568 -1.94255445644564
 6 -5.56849618481848 -2.39937184678468  1.25928586858686
 6 -3.63814587748775 -1.79272433443344  0.10648443344334
 6  2.09795405560556  2.88041446964696 -0.08249572657266
 6 -5.07860405670567 -1.38150365356536  0.28179681858186
 6  5.14483296139614  0.61323099309931 -0.61892494889489
 6 -2.60281124332433 -1.13359013061306 -0.46931734613461
 6 -1.48830676837684 -3.98346284858486 -1.71703494719472
 6 -4.52656012281228 -3.54426293199320  1.31353046764676
 6  2.01485196119612 -4.53205542524252 -0.87409026482648
 6  5.47719759605961 -0.06667273117312  0.75832393849385
 6  4.54677046324632  3.73813504480448  0.17376956075608
 6  1.36031727312731  4.01025543304330  0.26468658815882
 6 -7.01447257785779 -3.00454783458346  1.09308877497750
 6 -5.76274487698770 -0.55654038393839 -0.35121659605961
 6 -0.13209819881988  3.96286095769577  0.30712933853385
 6 -0.92004296599660  5.17503859685969  0.65050967956796
 6 -2.24080940714071  4.58219434223422  0.45048645154515
 6  3.03140598189819 -3.97794441354135  0.14286568556856
 6 -5.36768142894289  0.39171440004000 -1.38953002000200
 6  6.83282584878488 -0.55694397849785  0.80837395999600
 6 -3.53637939723972  5.36608290649065  0.70668148324832
 6 -2.11086452275228  3.19577176847685 -0.03547262246225
 6 -0.50689482698270  6.43098696669667  1.00205529532953
 6 -4.22628116501650  5.80542894779478 -0.68222899859986
 1 -0.52899046394639  0.14418012361236 -0.24127468076808
 1  2.92248626322632 -1.33316531863186 -1.25316482508251
 1  2.51112236313631 -3.03203791069107 -2.15614804950495
 1  0.99255603490349 -3.96781869946995 -2.84316668316832
 1 -5.60086189238924 -1.90696908600860  2.37554971547155
 1  5.22474278447845 -0.09318460196020 -1.37683083608361
 1  5.85540750635063  1.48672298159816 -1.03222452205220
 1 -2.92299039473947 -0.12548805260526 -0.90187309290929
 1  0.50714704640464  1.62740392339234 -0.65300477257726
 1 -1.44106969816982 -4.84997710191019 -0.93223402910291
 1 -2.57822145184518 -3.88951665366537 -1.88631795199520
 1 -1.11602155325533 -4.46998517291729 -2.69054265726573
 1 -2.43978773657366 -3.61025717411741  0.74183143014301
 1  1.16993279998000 -4.98236071857186 -0.36903062056206
 1  2.57958714451445 -5.36753946244624 -1.42227674157416
 1  4.64271869286929 -0.75251130223022  1.06688727492749
 1  5.15720992059206  0.51121555815582  1.68119258995900
 1  4.23195071537154  4.71146161356136 -0.26265624832483
 1  5.64185080788079  3.56395911511151 -0.20888436523652
 1  4.50894031143114  3.93988949704971  1.40996230013001
 1  1.81928776077608  5.00564049364936  0.57801758865887
 1 -7.81902467406741 -2.36990298479848  1.70039473347335
 1 -7.03114875917592 -3.88148591449145  1.70975334323432
 1 -7.22189037303730 -3.18401616511651 -0.06518492929293
 1 -6.82394973667367 -0.67552788408841  0.04494642254225
 1 -4.95054989678968  1.34501869876988 -0.98189203730373
 1 -6.15854768446845  0.62863049134913 -2.17440411891189
 1 -4.73287178267827 -0.10078323212321 -2.06846805950595
 1 -3.27909778907891  6.26991964776478  1.22639034303430
 1 -4.13208088558856  4.65535466766677  1.49247138493849
 1  0.02363692899290  6.34850681058106  1.86307904040404
 1 -1.49279066236624  7.04100079557956  1.12433168956896
 1  0.30558974657466  6.87550605110511  0.02099843404340
 1 -3.34452474827483  6.40365624872487 -1.23720153625363
 1 -5.16230805390539  6.42347508850885 -0.60287542924292
 1 -4.36939146024602  4.99008050035004 -1.50549028742874
 1  3.52894820132013 -4.28003223342334  1.89220785778578
 1  7.92086933163316 -1.50931158345835  1.94512467506751

