%nproc=4
%Mem=4GB
# td=(NStates=1) B3LYP/SVP 

TD

0 1
 8 -4.32048216901690 -4.70981106230623  1.92726809040904
 8  2.83284388248825 -4.97333188238824  1.12589052085209
 8  7.03800418181818 -1.34517205830583  2.01202142264226
 8  3.70034176697670 -3.25980510571057 -0.01676881848185
 8  7.56032478447845 -0.53165454475448 -0.08488805810581
 8 -3.08219854865487  2.53576097359736 -0.40099500410041
 7 -0.33934831653165 -0.61789113891389 -0.53709234543454
 7  1.53967164986499  1.74599697849785 -0.40626228832883
 7 -3.42473941694169 -3.07388643544354  0.63377184848485
 7 -0.77820922382238  2.96744716291629 -0.18686371027103
 6  0.68500973337334 -2.42377781608161 -1.45608769186919
 6  0.96436537033703 -1.17379733083308 -0.93408596389639
 6 -0.72843716881688 -2.65601949134913 -1.33828402780278
 6 -1.33151525772577 -1.56328997089709 -0.69972143804380
 6  3.69194713601360  1.42754724002400 -0.26645286168617
 6  2.51669236223622  0.85422675447545 -0.57595915451545
 6  2.16927393169317 -0.51106725252525 -0.87191943694369
 6  3.63130696759676  2.71616962516252  0.10546977407741
 6  1.59846099859986 -3.43352861866187 -2.01188138913891
 6 -5.55804513971397 -2.65011692129213  1.50329026902690
 6 -3.60419248214821 -1.83760882288229  0.13355714071407
 6  2.09919417961796  2.99859628782878  0.00686320932093
 6 -5.09062525882588 -1.57665316851685  0.41669030793079
 6  5.09285776387639  0.69506917691769 -0.36990004640464
 6 -2.71129209140914 -1.05581235283528 -0.43254366876688
 6 -1.41979991769177 -4.06758126042604 -1.63967721142114
 6 -4.35776324312431 -3.61100960666067  1.48383749834984
 6  1.98652912891289 -4.62913513321332 -1.06134899069907
 6  5.39668954525453 -0.15156122002200  0.84799290539054
 6  4.59439522572257  3.76225745704570  0.36473865766577
 6  1.32114335573557  4.12228663616362  0.31388150765077
 6 -6.88397952855286 -3.23549092889289  1.15689515561556
 6 -5.85883448594860 -0.54338906880688 -0.18465994039404
 6 -0.05663065206521  3.99413408500850  0.19704833043304
 6 -0.93276423812381  5.14486557955796  0.56545117371737
 6 -2.17143246944695  4.80073619641964  0.29229063196320
 6  2.96238908020802 -4.24128074717472  0.04623602260226
 6 -5.54554921572157  0.44400962956296 -1.29547061406141
 6  6.80957352355236 -0.70380866496650  0.88478160076008
 6 -3.48542430173017  5.43416971517152  0.46318713381338
 6 -2.10736417271727  3.33310550185019 -0.13504257945795
 6 -0.38159229672967  6.60975484348435  0.83024811461146
 6 -4.19690822772277  5.83290169506951 -0.89657043274327
 1 -0.49377694259426  0.25303100870087  0.00070951765177
 1  3.18343235783578 -1.10961296339634 -1.11055056365637
 1  2.52674392529253 -2.96296100300030 -2.12152458715872
 1  1.05753253255326 -3.72217413501350 -3.00515288178818
 1 -5.45317712391239 -2.21332972207221  2.46254841534153
 1  5.28068837903790  0.13996871337134 -1.29086223922392
 1  5.79316128172817  1.55815012431243 -0.53895519511951
 1 -2.80756885258526  0.05396989318932 -0.37225013061306
 1  0.53406973867387  1.82123330633063 -0.79960943304330
 1 -1.29151474267427 -4.87769987418742 -1.22309311501150
 1 -2.52513614331433 -3.83836153815381 -1.81060038023802
 1 -1.13143309440944 -4.40205838023802 -2.55683928692869
 1 -2.48374213201320 -3.48551469986999  0.61466871387139
 1  1.05952175887589 -4.97868035053505 -0.62567628512851
 1  2.12440162596260 -5.66792950145014 -1.43411792569257
 1  4.89613403440344 -1.15216126722672  0.95450603680368
 1  5.04123832343234  0.52148658525853  1.71595606630663
 1  4.55977349764977  4.67957842524252 -0.27579756245625
 1  5.68519514231423  3.34075679487949  0.53553007620762
 1  4.22601201860186  4.27287279537954  1.44946625052505
 1  1.80670650265027  5.17525745534553  0.68948873577358
 1 -7.56858963056306 -2.38854484898490  1.37013170717072
 1 -7.10067571187119 -3.99009677557756  2.03000536843684
 1 -6.95930411441144 -3.83302106560656  0.19564115331533
 1 -6.89266660836084 -0.56735706700670  0.08545047294729
 1 -5.22320716251625  1.37506170307031 -0.88002185028503
 1 -6.53489531923192  0.65208283658366 -1.63555023352335
 1 -4.82932142764276  0.06926377257726 -2.12801401410141
 1 -3.49553943324332  6.32488514431443  1.16594429842984
 1 -4.03810148764877  4.70782991519152  1.00875301310131
 1  0.45597016231623  6.54684664456446  1.70865359785979
 1 -1.25154653795380  7.29242593809381  0.77078633503350
 1  0.17731691929193  7.07824632513251  0.06508284248425
 1 -3.75760605640564  6.69000488358836 -1.37403521962196
 1 -5.23970579367937  6.10059280028003 -0.87639278097810
 1 -4.00897541864186  4.91472296459646 -1.70921065946595
 1  3.42437774427443 -4.58603283348335  1.73702233923392
 1  8.02493973867387 -1.58327898019802  2.16931709430943

