%nproc=4
%Mem=4GB
# td=(NStates=1) B3LYP/SVP 

TD

0 1
 8 -4.59000912171217 -4.59702978417842  2.02069743334333
 8  2.92252285038504 -4.85398994819482  1.32502043384338
 8  7.19932031343134 -1.63833137423742  1.63778399889989
 8  3.74651638443844 -3.10858998419842  0.14360721912191
 8  7.51093984598460 -0.60764214351435 -0.27873744304430
 8 -2.93543387218722  2.46965436293629 -0.27391229582958
 7 -0.29328371007101 -0.58503785358536 -0.56816545274527
 7  1.49249693239324  1.88338071687169 -0.27028869096910
 7 -3.45161210421042 -3.10006905370537  0.60491896319632
 7 -0.78598000090009  2.96332675087509 -0.11795681958196
 6  0.64570580298030 -2.43053849214922 -1.33900598369837
 6  0.93800273407341 -1.16572652375238 -0.91700425572557
 6 -0.75730005510551 -2.78779266866687 -1.21771197059706
 6 -1.25323742994299 -1.46804044594459 -0.77529899579958
 6  3.75443338463846  1.46375086038604 -0.26851306770677
 6  2.45321601460146  0.84273560536054 -0.51014257285729
 6  2.23357036133613 -0.54800094589459 -0.76876912191219
 6  3.61917575447545  2.73619162736274  0.07089631673167
 6  1.69973112561256 -3.47731299709971 -1.83540374137414
 6 -5.55786512171217 -2.58775068466847  1.32124206420642
 6 -3.63063512641264 -1.84164922692269 -0.01375759075908
 6  2.17663192339234  2.98751517971797 -0.00374785178518
 6 -5.09562575887589 -1.52370787398740  0.37247588648865
 6  5.09051752985298  0.79214888488849 -0.41641469786979
 6 -2.68868983118312 -1.12525929752975 -0.53469388378838
 6 -1.48039597729773 -3.86836133843384 -1.74395763946395
 6 -4.50587805460546 -3.57098560426043  1.37740685528553
 6  2.08645912191219 -4.61290351005101 -0.79727258305831
 6  5.43963383968397 -0.09151521542154  0.83866197229723
 6  4.58021380758076  3.85809704100410  0.35920810461046
 6  1.27849909130913  4.04653906140614  0.30616073557356
 6 -7.01432256285629 -3.20438781858186  0.92734220032003
 6 -5.83137173967397 -0.57064179407941 -0.28866034043404
 6 -0.09436442544254  4.08126279787979  0.13366199179918
 6 -0.98217917961796  5.19210030303030  0.44849947854785
 6 -2.15177050325032  4.74275039783978  0.35642704560456
 6  2.99381222252225 -4.05577219631963  0.18704010301030
 6 -5.47522218301830  0.39191442004200 -1.26947801480148
 6  6.84021658785879 -0.79261754585459  0.70190331293129
 6 -3.46332209150915  5.42329862806281  0.51818263336334
 6 -2.07217065336534  3.30441263256326 -0.13330240544054
 6 -0.46158029552955  6.54168803680368  0.87528261806181
 6 -4.34656319321932  5.49527793269327 -0.74798557425743
 1 -0.59885745064506  0.25756146174617  0.03256270297030
 1  2.99941395599560 -1.13054505660566 -1.15472498109811
 1  2.50904215511551 -3.04030873777378 -2.14667710241024
 1  1.38018479777978 -4.06575849344935 -2.68535090159016
 1 -5.62767457365737 -2.12813120222022  2.38753091359136
 1  5.12023233343334  0.08376309280928 -1.32344549754975
 1  5.75423738933893  1.59634394369437 -0.46570787038704
 1 -2.90449854555456 -0.01881738553855 -0.68192109770977
 1  0.42301863356336  1.91237242024202 -0.58611808390839
 1 -1.51152674387439 -4.73418552275228 -1.07592839853985
 1 -2.61718534823482 -3.68952665466547 -1.81729104930493
 1 -1.11897184828483 -4.15109328372837 -2.50706430943094
 1 -2.70389414721472 -3.76566271467147  0.49756700370037
 1  1.17134294099410 -5.17671015351535 -0.55095881338134
 1  2.59634882068207 -5.39952266076608 -1.10064457835783
 1  4.76087050805081 -0.95429148024802  1.05733631983198
 1  5.47184138373837  0.44603904050405  1.65237970867087
 1  4.12933045334533  4.74768523592359 -0.35005498819882
 1  5.61257788058806  3.54801752095210  0.28411493469347
 1  4.46730614801480  4.16727223532353  1.34626593049305
 1  1.81790762276228  5.13109303890389  0.58683847074707
 1 -7.91056382798280 -2.44970096459646  1.08047274127413
 1 -7.49707535183518 -4.15318308420842  1.49359172707271
 1 -6.92828101210121 -3.50316808030803 -0.11112952375237
 1 -6.90701804350435 -0.70647097839784  0.07952988088809
 1 -4.80680552235224  1.34999919681968 -0.89163301140114
 1 -6.26222805250525  0.81538916721672 -1.82010868936894
 1 -4.53862235773577  0.02313916011601 -1.94691590429043
 1 -3.43450332963296  6.34809746554655  0.95593329732973
 1 -3.91601927942794  4.72177130933093  1.18767090489049
 1  0.40237480278028  6.57668962886289  1.73307604010401
 1 -1.30660204350435  7.34251094659466  1.35419467586759
 1  0.07533672127213  7.15393389388939  0.08666500070007
 1 -3.83599389518952  6.26160204330433 -1.58312612871287
 1 -5.25217704080408  6.10087282828283 -0.42276741844184
 1 -4.53472799389939  4.52250374267427 -1.25412515091509
 1  3.29505481198120 -4.44212844304430  2.15836447344734
 1  8.18156540124012 -1.96236688898890  1.47414757735774

