%nproc=4
%Mem=4GB
# td=(NStates=1) B3LYP/SVP 

TD

0 1
 8 -4.65358547934794 -4.66817689888989  1.99619498309831
 8  3.01618221632163 -4.81812636183618  1.21438937073707
 8  7.09676005740574 -1.36441398249825  2.08417863836384
 8  3.84875660846085 -3.16915604080408 -0.05788292989299
 8  7.53826257825783 -0.75679705900590 -0.04726429572957
 8 -3.04882521132113  2.55385278277828 -0.18540344494449
 7 -0.27803218491849 -0.63213256305631 -0.60219885608561
 7  1.60611829452945  1.74809718851885 -0.55222688478848
 7 -3.41787873087309 -3.09496854365437  0.79606807810781
 7 -0.79329073197320  2.93703412161216 -0.14830985488549
 6  0.61266249864987 -2.47317275557556 -1.42823490659066
 6  0.93293222702270 -1.15517546864686 -0.93665622092209
 6 -0.81310563566357 -2.59686357575758 -1.28135833523352
 6 -1.30771287748775 -1.45225886778678 -0.69181064696470
 6  3.82970091139114  1.44509899519952 -0.49615583198320
 6  2.56355704870487  0.81392272407241 -0.67498905750575
 6  2.19290629492949 -0.52158830463046 -0.87365961096110
 6  3.57002083898390  2.79713772197220 -0.18310908380838
 6  1.61214236673667 -3.40487575337534 -2.02954315531553
 6 -5.64852418761876 -2.59394130373037  1.27518745874587
 6 -3.65391745464546 -1.81003606560656  0.27353113811381
 6  2.12453671387139  3.03813024122412 -0.24400187718772
 6 -5.10469666596660 -1.50944644784478  0.37863650255025
 6  5.12883136123612  0.66894656465647 -0.26191924832483
 6 -2.64000496269627 -1.07753452505251 -0.28658907330733
 6 -1.54338227592759 -3.89798430073007 -1.59381262496250
 6 -4.57625509230923 -3.64127263296330  1.33336245084508
 6  2.08012848884889 -4.51849406910691 -1.04384724052405
 6  5.36035591189119 -0.17075313921392  0.99342744884488
 6  4.57730351655166  3.90026125742574  0.12383456725673
 6  1.32396363776378  4.09679408690869  0.12758287778778
 6 -7.04554568516852 -3.31650903070307  0.90035950205021
 6 -5.77338594109411 -0.65241997189719 -0.35731720612061
 6 -0.09879486848685  3.95016968856886  0.10226885248525
 6 -0.90847180888089  5.10069116211621  0.51659628822882
 6 -2.15914124032403  4.76738286108611  0.49036043894389
 6  3.02894573587359 -4.06829344844484  0.13790518951895
 6 -5.34023868466847  0.28664389298930 -1.32587365436544
 6  6.76439900610061 -0.70811909600960  0.94640776337634
 6 -3.48273403270327  5.36667296549655  0.62820363546355
 6 -2.15402883918392  3.35577776907691  0.04981590639064
 6 -0.43667780528053  6.49569343734373  0.90796588638864
 6 -4.18689722662266  5.80736914181418 -0.66811758745875
 1 -0.32109967486749  0.25214091969197 -0.18317887118712
 1  3.15704971957196 -1.22133413551355 -0.98298780738074
 1  2.56285753665367 -3.07758246514651 -2.46713914861486
 1  1.25490226952695 -3.97674959255926 -2.83088545504550
 1 -5.88653045924592 -2.37431582068207  2.29086124662466
 1  5.32454276447645  0.01737645414541 -1.07697085008501
 1  5.91970393599360  1.45655996529653 -0.50996229582958
 1 -2.93823191889189 -0.06797230103010 -0.53649655525553
 1  0.67284361606161  1.94122530553055 -0.91701117321732
 1 -1.77970356155616 -4.56817892209221 -0.65300610631063
 1 -2.70213384308431 -3.54507220922092 -1.80362968316832
 1 -1.22127207830783 -4.41823999839984 -2.59483308630863
 1 -2.45629938773877 -3.48335448384839  1.07184443144314
 1  1.34631043774377 -4.97171965446545 -0.24990870837084
 1  2.53855304110411 -5.39114182268227 -1.48868338223822
 1  4.63258767976798 -0.95131118221822  1.03088367456746
 1  5.47732193179318  0.53791822842284  1.82078654935494
 1  4.34459197949795  4.73412387978798 -0.56250623332333
 1  5.51089771257126  3.55832855205521  0.08709523272327
 1  4.34296371377138  4.34854036213621  1.02956426032603
 1  1.90954678667867  5.06641657125713  0.19903969086909
 1 -7.76066883848385 -2.47897389188919  0.91722641664166
 1 -7.33946959125913 -4.26805457135714  1.57619998789879
 1 -7.06042422642264 -3.72596035953595 -0.00269868066807
 1 -6.96487382908291 -0.64402473377338 -0.05094316641664
 1 -4.91764660646065  1.27675187208721 -0.88455230333033
 1 -6.18146997669767  0.43840146844684 -2.08683536203620
 1 -4.49458795429543 -0.20070322412241 -2.02784399709971
 1 -3.50616049534954  6.12210486628663  1.39183688768877
 1 -4.08385606310631  4.52130126232623  1.26850898869887
 1  0.24008857415742  6.54930689058906  1.72912564506451
 1 -1.29067045034504  7.14233092859286  1.35070432683268
 1  0.16550573817382  6.95386388688869  0.03085942014201
 1 -3.57373766956696  6.36629251235123 -1.17012482858286
 1 -5.21964378747875  6.20112285328533 -0.41435657735774
 1 -4.18358287938794  4.93729522182218 -1.28662840124012
 1  3.75358066456646 -4.49307353755376  1.78760739773977
 1  7.98003524822482 -1.76908756105611  1.95077524012401

