%nproc=4
%Mem=4GB
# td=(NStates=1) B3LYP/SVP 

TD

0 1
 8 -4.69503962476248 -4.86027610881088  1.80399576317632
 8  2.94536513461346 -4.86102065126513  1.18433636543654
 8  7.01576195759576 -1.59106664776478  1.78003822432243
 8  3.77816954975498 -3.20232935813581 -0.04245138673867
 8  7.66369512151215 -0.64138551785179 -0.20550011931193
 8 -2.95515584438444  2.48729612711271 -0.31250615521552
 7 -0.35042942464246 -0.53793314311431 -0.37024566076608
 7  1.57501518421842  1.79593197199720 -0.30334199629963
 7 -3.53289023202320 -3.13914296109611  0.65542401370137
 7 -0.71562296519652  2.93149356755676  0.00176515261526
 6  0.59666089848985 -2.35152059035904 -1.33250533363336
 6  0.91102003580358 -1.06723667476748 -0.82796535183518
 6 -0.77845217031703 -2.62350624002400 -1.12801300070007
 6 -1.34061616781678 -1.43063670557056 -0.51825329122912
 6  3.84580252155216  1.45032951825182 -0.27389360576058
 6  2.53643433643364  0.78499983178318 -0.45969752835284
 6  2.18004500880088 -0.52263840964096 -0.80719296429643
 6  3.59481331823182  2.78619662786279 -0.06188696159616
 6  1.60840199269927 -3.34196946274627 -1.86321652265227
 6 -5.62344167936794 -2.74456636623662  1.31254119411941
 6 -3.70339240214021 -1.86347140914091  0.19347313231323
 6  2.16931119131913  3.00390681888189 -0.01731920892089
 6 -5.10007620392039 -1.62568807200720  0.42262090099010
 6  5.17050552865286  0.74688435843584 -0.40721377777778
 6 -2.68280924312431 -1.00786755835584 -0.29889030343034
 6 -1.50865880358036 -3.84084858715872 -1.62181542524252
 6 -4.55775324212421 -3.79477798349835  1.32885199979998
 6  2.04612508850885 -4.48333055275528 -0.91293414921492
 6  5.54674455075507 -0.03598966286629  0.92160026612661
 6  4.62872865906591  3.84259549084909  0.26952913671367
 6  1.33010425182518  4.11488589608961  0.23502362186219
 6 -7.03550468106811 -3.33031041084108  0.97719718581858
 6 -5.81383998649865 -0.58830356025603 -0.16773824822482
 6 -0.04586957595760  4.07738240984098  0.21539016461646
 6 -1.00789175087509  5.30935202820282  0.38838346694669
 6 -2.20109543574357  4.77085320812081  0.24289569246925
 6  3.03681652295230 -4.14427104620462  0.07068846784678
 6 -5.39405406620662  0.36203143174317 -1.23227429442944
 6  6.84983754995500 -0.71370965506551  0.67039016161616
 6 -3.53580934023402  5.36600289848985  0.34919573467347
 6 -2.05870930723072  3.28365055635564 -0.05993506870687
 6 -0.43084722222222  6.57579144714471  0.83972906270627
 6 -4.17462599949995  5.75114351925193 -0.99126990269027
 1 -0.32758032293229  0.38885459105911 -0.17007756105611
 1  2.84835885048505 -1.31072307440744 -0.98619812841284
 1  2.46050730163016 -2.94588929582958 -2.32490492519252
 1  1.19433621292129 -3.93134505210521 -2.68231059755976
 1 -5.55316712291229 -2.31895028412841  2.30902306280628
 1  5.04473478367837 -0.23751903540354 -1.25719887288729
 1  5.99197116271627  1.50669497879788 -0.70705200480048
 1 -2.84878297399740  0.00947544374437 -0.40924382998300
 1  0.36494282598260  1.82940412341234 -0.23647311941194
 1 -1.43960955215522 -4.75197730193019 -0.83122392809281
 1 -2.53613724342434 -3.79741744374438 -1.50912023222322
 1 -1.19234918601860 -4.13290146454645 -2.66197980098010
 1 -2.59295305310531 -3.57911405980598  0.68607585458546
 1  1.04469027572757 -4.97479996249625 -0.65247896539654
 1  2.39506869266927 -5.36627933643364 -1.48361287518752
 1  4.76041046204621 -0.75658170927093  0.87933852005201
 1  5.52023622322232  0.56788122472247  1.88353282398240
 1  4.26984450475048  4.81067153455346 -0.48432841554155
 1  5.59287591039104  3.51312403160316  0.30502702590259
 1  4.36157557495750  4.26286179427943  1.36023732763276
 1  1.95205103710371  4.94428435803580  0.34469425632563
 1 -7.83092586418642 -2.71272726722672  0.75230992499250
 1 -7.41550719501950 -4.06784455035504  1.65071743964396
 1 -6.91267945194519 -3.75597336083608  0.01496308550855
 1 -6.80121746344634 -0.65533586488649  0.11738366626663
 1 -4.77775261706171  1.28465266216622 -0.89973382148215
 1 -6.27665949564956  0.67313494179418 -1.97023370187019
 1 -4.66934543004300  0.16873371957196 -2.04516572927293
 1 -3.53906378567857  6.27003965976598  1.07096480048005
 1 -4.26571424892489  4.52848198039804  0.86315845364536
 1  0.27103166846685  6.53104506440644  1.83271600410041
 1 -1.14854623792379  7.29924662016202  0.97141639803980
 1  0.34593378097810  6.90998949944994  0.05426176037604
 1 -3.45882617841784  6.68916479957996 -1.28580639673967
 1 -5.10886270937094  6.19257199819982 -0.74036917861786
 1 -4.02817733883388  4.98095958825883 -1.80418015641564
 1  3.69416472297230 -4.89439366956696  1.94659329632963
 1  7.91128837353735 -1.91658231053105  1.64901506410641

