%nproc=4
%Mem=4GB
# td=(NStates=1) B3LYP/SVP 

TD

0 1
 8 -4.40138025882588 -4.74109419061906  1.92308767236724
 8  2.78472907100710 -5.03984853405341  1.18403633543354
 8  6.86190657205721 -1.72242978407841  1.83620384088409
 8  3.87826955975598 -3.40093921912191  0.10631348974897
 8  7.53967271927193 -0.57753913321332  0.08325875657566
 8 -2.99911023982398  2.38309570707071 -0.34838974357436
 7 -0.20275465716572 -0.46197554735474 -0.61471010721072
 7  1.61115879857986  1.84331671047105 -0.46765842794279
 7 -3.42628957195720 -3.12701174797480  0.62586105740574
 7 -0.70066146904690  2.95652607080708 -0.16727175107511
 6  0.67917915031503 -2.40032547084708 -1.49223130623062
 6  0.98457739153915 -1.07879783088309 -0.98460101540154
 6 -0.73912823792379 -2.57495138453845 -1.25748594799480
 6 -1.27006911311131 -1.35747938983898 -0.82951441734173
 6  3.79314725602560  1.42870735603560 -0.43447966436644
 6  2.51852254525453  0.85744707650765 -0.76026758535854
 6  2.23161016531653 -0.46209235503550 -0.98856110111011
 6  3.58169200610061  2.78685669386939  0.00825005210521
 6  1.70227137963796 -3.41739700550055 -1.95037523852385
 6 -5.49109844504450 -2.52390430003000  1.43638357835784
 6 -3.61537360026003 -1.80591565356536  0.12441622662266
 6  2.14320858105811  3.05470189838984 -0.08180565756576
 6 -4.97642383868387 -1.45629113231323  0.46510514941494
 6  5.11369984808481  0.78219788978898 -0.48272132853285
 6 -2.59987094929493 -1.10259703130313 -0.47735815021502
 6 -1.49438737643764 -3.84243874617462 -1.57276051975198
 6 -4.42972043884388 -3.64918342404240  1.42035114971497
 6  2.02552302830283 -4.61103332303230 -0.95623847964797
 6  5.30377025332533 -0.07939400330033  0.84219232533253
 6  4.60506629282928  3.82748397969797  0.60646283008301
 6  1.28792003340334  4.15791019851985  0.22432255175518
 6 -6.92580371097110 -3.16133351315132  1.24994446054605
 6 -5.88483708620862 -0.57319204910491 -0.16849832423242
 6 -0.05816080508051  4.06664133573357  0.20594922052205
 6 -1.04341530323032  5.21104219721972  0.45695032363236
 6 -2.22387771397140  4.65456157895790  0.27657906080608
 6  2.99099194049405 -4.25732235133513  0.18784018301830
 6 -5.33301796259626  0.43875910451045 -1.22715378237824
 6  6.65217778397840 -0.71372965706571  0.85442856545655
 6 -3.53769952925293  5.15066136433643  0.44344515961596
 6 -2.06546998329833  3.10564275557556 -0.01675075027503
 6 -0.69129326682668  6.62158602660266  0.77019210901090
 6 -4.26825536243624  5.81036944184418 -0.81654242994299
 1 -0.40751831673167  0.57777348294830 -0.52349290259026
 1  2.93998801340134 -1.07360936303630 -1.24274378297830
 1  2.83541479237924 -3.00399510641064 -2.23947638233823
 1  1.07810458975898 -3.86743866146615 -2.79802216871687
 1 -5.51191299749975 -2.14057244634463  2.48704086458646
 1  5.00715102530253  0.12311702820282 -1.32766591959196
 1  6.09745171077108  1.22429673897390 -0.64583588318832
 1 -2.72259035473547  0.09644414061406 -0.45400830643064
 1  0.53597992969297  1.79903108610861 -0.56894636673667
 1 -1.46711230243024 -4.59524162836284 -0.76447725342534
 1 -2.61487511721172 -3.63235093709371 -1.84606392659266
 1 -1.08733868496850 -4.24243241764176 -2.70220382338234
 1 -2.52157591539154 -3.51079722812281  0.65543279027903
 1  1.04467027372737 -4.98317079957996 -0.42296601410141
 1  2.45597478327833 -5.42995570407041 -1.57291180508051
 1  4.53224764576458 -1.03090914201420  0.91266185238524
 1  5.12744694429443  0.47010144674467  1.76973144384438
 1  4.40382790309031  5.07040750815082  0.35389540684068
 1  5.64472109490949  3.63766648584858 -0.06117959475948
 1  4.65634505190519  3.82349785788579  1.76567787168717
 1  1.65760159215922  5.15955588518852  0.42827261416142
 1 -7.72199497109711 -2.41922791729173  1.56230092409241
 1 -6.99955559985999 -4.10744851075107  1.96369873777378
 1 -7.21061924592459 -3.49225698919892  0.21188277747775
 1 -6.85659300100010 -0.58294862616262  0.13023495139514
 1 -4.89218406020602  1.33086728362836 -0.70811465956596
 1 -6.09215104480448  1.03361098939894 -1.74506118461846
 1 -4.67250574607461  0.00955780198020 -2.13560477317732
 1 -3.70846072537254  6.14745740154015  1.14422212621262
 1 -4.25596327382738  4.29100823302330  1.05296743454345
 1 -0.08794422912291  6.84215617551755  1.54408714121412
 1 -1.62582396569657  7.28324502000200  0.94997425382538
 1 -0.10875168756876  7.14090259075908  0.04044037823782
 1 -3.67378767456746  6.88875475857586 -1.06067388348835
 1 -5.08917074017402  6.13614635563556 -0.41548669036904
 1 -4.26937145824582  5.01842333463346 -1.67779751815182
 1  3.50828613511351 -4.77858208840884  1.95247388438844
 1  7.81946919161916 -1.86077672997300  1.64809497209721

