%nproc=4
%Mem=4GB
# td=(NStates=1) B3LYP/SVP 

TD

0 1
 8 -4.41848196899690 -4.80460054125412  1.96658202180218
 8  2.94321491959196 -4.80167471667167  1.23737166896690
 8  7.02843322472247 -1.48272581368137  1.92681290179018
 8  3.74585631843184 -3.02339146434643  0.13701656005601
 8  7.54198295029503 -0.98219959925993 -0.16946651595160
 8 -2.91556188498850  2.36593399089909 -0.30718562316232
 7 -0.35715009670967 -0.55703505330533 -0.60639927612761
 7  1.52378006070607  1.80470284908491 -0.31431309340934
 7 -3.38199514251425 -3.11180022682268  0.58643711501150
 7 -0.73080448334833  2.93077349554955 -0.09859488338834
 6  0.63753498589859 -2.33390882918292 -1.42771485458546
 6  0.93082201600160 -1.14895484658466 -0.92004455975598
 6 -0.79734405950595 -2.66789067846785 -1.38947914731473
 6 -1.37988009420942 -1.49994363626363 -0.88912037793779
 6  3.79350729202920  1.44681916721672 -0.34275049144914
 6  2.51320201320132  0.78978030983098 -0.47053861246125
 6  2.20175718001800 -0.49914606040604 -0.87881012601260
 6  3.56557039393939  2.75599360756076  0.00165939303930
 6  1.66533768626863 -3.36568183398340 -2.03875407640764
 6 -5.54705404060406 -2.55524743434343  1.49649958995900
 6 -3.58740080298030 -1.83039810181018 -0.01001721672167
 6  2.14464872507251  3.04253068126813 -0.03053053005301
 6 -5.06692288858886 -1.46867237043704  0.42137077597760
 6  5.07583606170617  0.74252392239224 -0.37774083048305
 6 -2.72777373957396 -1.09532630423042 -0.61909232363236
 6 -1.45971390909091 -3.93407791009101 -1.80155339903990
 6 -4.46684415121512 -3.70007851355135  1.35635475007501
 6  1.99928040404040 -4.49210142984298 -0.94277713351335
 6  5.45312518881888 -0.02494855875588  0.85840394649465
 6  4.60681646784678  3.78665989728973  0.47797998179818
 6  1.35193643504350  4.11623603110311  0.31017113661366
 6 -6.95088621922192 -3.10199757955796  1.42239170527053
 6 -5.83923252575258 -0.58514324422442 -0.17166864126413
 6 -0.06904189318932  4.03927859945995  0.25371399699970
 6 -0.96522748444844  5.22849394239424  0.51292592119212
 6 -2.27000232643264  4.70745686848685  0.31544294719472
 6  2.96673951525153 -3.99789640874087  0.24663606260626
 6 -5.41370603140314  0.40085531413141 -1.29010007700770
 6  6.73014558075808 -0.85386367046705  0.79373249584958
 6 -3.56634239353935  5.27426372457246  0.40727154225423
 6 -2.07560099639964  3.29223141444144 -0.10755983118312
 6 -0.54325846334633  6.59601346934693  0.95371046084608
 6 -4.15678421532153  5.62925133003300 -0.95546632233223
 1 -0.38378594349435  0.26411211681168 -0.07890844414441
 1  3.07857187178718 -1.06205820792079 -1.10214972357236
 1  2.56850810171017 -2.81078578547855 -2.21855429012901
 1  1.13843062236224 -3.83421533913391 -3.05343771027103
 1 -5.68104991119112 -2.16308469756976  2.48405056555655
 1  5.20187049724973 -0.06684196769677 -1.34927808080808
 1  5.78705067066707  1.80014432373237 -0.74738603820382
 1 -2.95801389708971  0.07308180438044 -0.79461236683668
 1  0.51818815051505  1.84659584258426 -0.43166263836384
 1 -1.58179377057706 -4.80594269846985 -1.17079788548855
 1 -2.53252688238824 -3.77827552955296 -2.19136845704571
 1 -0.94147409850985 -4.31001917631763 -2.64526812981298
 1 -2.39786354415441 -3.54862101050105  0.53069031603160
 1  0.96083188988899 -4.81886436893689 -0.70680439793979
 1  2.71058024382438 -5.33874658315832 -1.48584309820982
 1  4.70027444844485 -0.64773082418242  1.28060864706471
 1  5.66086028562856  0.79122355895590  1.83609808050805
 1  4.48874639493949  4.74632509990999  0.05191520882088
 1  5.53604022682268  3.44326704590459 -0.12972644944494
 1  4.79961937933793  3.92752826092609  1.47417872177218
 1  1.88931476347635  5.18373830343034  0.23951373827383
 1 -7.88165093669367 -2.46133212771277  1.75129982398240
 1 -6.91378702300230 -3.95263302920292  2.01736410431043
 1 -7.44690287428743 -3.53573133663366  0.37947953715372
 1 -6.91753909560956 -0.57182751405140  0.09202113001300
 1 -4.75501034283428  1.28736293319332 -0.99214306240624
 1 -6.29132096179618  0.85293292159216 -1.78493517201720
 1 -4.88312680818082 -0.14435758955896 -2.04597581028103
 1 -3.39170905020502  6.10581323712371  0.99600730473047
 1 -4.42535021252125  4.64828396059606  0.93839597739774
 1  0.10169473477348  6.45262722262226  1.86459919241924
 1 -1.35602698599860  7.38903559905991  0.89151840824082
 1  0.20071925952595  7.03586208670867  0.23296963116312
 1 -3.68967926372637  6.40049593269327 -1.63552136823682
 1 -5.34989681278128  5.90504324532453 -1.01783692539254
 1 -4.33229775087509  4.59554104640464 -1.53872361076108
 1  3.42485779227923 -4.60675490569057  2.18656729372937
 1  7.85281252595260 -1.94705535783578  1.46267643024302

