%nproc=4
%Mem=4GB
# td=(NStates=1) B3LYP/SVP 

TD

0 1
 8 -4.49713983478348 -4.68876895809581  1.81159652325233
 8  2.87385798389839 -4.69440398959896  1.34799273107311
 8  7.01937231863186 -1.63552109320932  1.72815303580358
 8  3.88211994479448 -3.22499162436244 -0.09843698529853
 8  7.80074882688269 -0.36727810711071 -0.00065963526353
 8 -3.07427775657566  2.50448784628463 -0.16412131673167
 7 -0.37799218091809 -0.67850720052005 -0.57524616081608
 7  1.55812349504950  1.75385776457646 -0.31042270437044
 7 -3.46870381338134 -3.16969601640164  0.59615808710871
 7 -0.74532593549355  2.85142556075608 -0.00320534443444
 6  0.64478571097110 -2.47066250455045 -1.38817090019002
 6  0.93861279507951 -1.15172512361236 -0.87941049634963
 6 -0.80384470957096 -2.65472936233623 -1.38331853125313
 6 -1.34418652485249 -1.42792643454345 -0.85851731763176
 6  3.80868881018102  1.42463694899490 -0.30510672707271
 6  2.47556824982498  0.76787811961196 -0.49186074467447
 6  2.15947295159516 -0.55526167196720 -0.74574681968197
 6  3.55816965386539  2.72711071927193 -0.05624639753975
 6  1.58164931743174 -3.52048731453145 -1.94975517651765
 6 -5.51726106130613 -2.59512142174217  1.45205514551455
 6 -3.73250531343134 -1.84884994699470  0.10712449744974
 6  2.13597785798580  2.90445687388739 -0.00117759475948
 6 -5.16506270257026 -1.51751725492549  0.50660929982998
 6  5.18334681278128  0.72180185018502 -0.28644170057006
 6 -2.70915187738774 -1.05807257885789 -0.39490990539054
 6 -1.53396133383338 -3.82538704100410 -1.91729497319732
 6 -4.48532599939994 -3.68604711041104  1.28507762236224
 6  2.01534201020102 -4.57813003270327 -0.87388024382438
 6  5.47901777807781 -0.13327939183918  0.81970007610761
 6  4.55056084228423  3.86749798109811  0.33019520332033
 6  1.39388062946295  4.09939434693469  0.38402852235224
 6 -6.99911104170417 -3.11365874567457  1.26839630573057
 6 -5.92760136263626 -0.49995472537254 -0.05025650005000
 6 -0.05615060406041  4.00646531813181  0.26780540614061
 6 -1.01791275297530  5.14441553455346  0.60805543414341
 6 -2.25218054425443  4.67507363016302  0.32749415231523
 6  3.13768660996100 -4.12669928902890  0.12181358035804
 6 -5.50956561736174  0.42825805440544 -1.19492055905591
 6  6.89482204840484 -0.68759704380438  0.75613873647365
 6 -3.63272903220322  5.43320961916192  0.20920173527353
 6 -2.08042147844785  3.26906909820982 -0.02940201540154
 6 -0.48836297379738  6.52894676267627  0.85859094889489
 6 -3.97940647754775  5.69054745964597 -1.18676945264526
 1 -0.26428399329933  0.02863856945695  0.25408485518552
 1  3.06056007060706 -1.20326232833283 -1.03957346594659
 1  2.52858410931093 -2.99926463336334 -2.43758619331933
 1  1.29843662296230 -3.94124604220422 -2.94376674317432
 1 -5.51306311251125 -2.42335072417242  2.63712587308731
 1  5.02702301250125  0.18863357985799 -1.14516766976698
 1  5.90530249584959  1.54909921922192 -0.39316061566157
 1 -3.19082717841784 -0.08176368016802 -0.26103900950095
 1  0.44663099479948  1.81209239223922 -0.55434490659066
 1 -1.28805439663966 -4.75555765996600 -1.23901470717072
 1 -2.61007463716372 -3.51664936693669 -2.12075139533953
 1 -1.23269322042204 -3.99268744314431 -3.16592019501950
 1 -2.26301005880588 -3.41213736213621  0.57985523252325
 1  1.11574738143814 -4.69204168666867 -0.42237595509551
 1  2.46402558835884 -5.33238594709471 -1.46530104400440
 1  4.75240966196620 -1.02627867896790  0.90672125832583
 1  5.50539473907391  0.48060249684968  1.58634310501050
 1  4.47028454875488  4.69216968436844 -0.55065504820482
 1  5.70596721952195  3.63348606780678  0.35435195839584
 1  4.15251466886689  4.41073658175818  1.26642794669467
 1  2.05219105110511  5.00731066066607  0.56184597149715
 1 -7.66340911251125 -2.24520051455145  1.23846854085409
 1 -7.25007065136514 -4.12852061796180  1.85768813671367
 1 -7.33436162016202 -3.36218398189819  0.25495708490849
 1 -6.96006334803480 -0.29518985028503  0.33750567846785
 1 -4.75630047184718  1.19619381628163 -0.83943779187919
 1 -6.29497132683268  0.83484111241124 -1.79039571807181
 1 -4.87631612711271 -0.15654880868087 -1.82702391509151
 1 -3.63493337263726  6.31603425922592  0.96989469346935
 1 -4.37985566306631  4.73592272447245  0.68835097289729
 1  0.40286485178518  6.61751371127113  1.72517525002500
 1 -1.22295367866787  7.21918861436144  1.21341059745975
 1 -0.10183099549955  7.06512501300130 -0.01000466626663
 1 -3.37785808160816  6.47338322142214 -1.62790060616062
 1 -5.06717854095410  5.98032077307731 -1.23283842554255
 1 -4.02485700680068  4.88722021432143 -2.11374111251125
 1  3.67283258975898 -4.56824105430543  1.85072370937094
 1  8.10527777247725 -1.82459311161116  1.65580574317432

