%nproc=4
%Mem=4GB
# td=(NStates=1) B3LYP/SVP 

TD

0 1
 8 -4.71546166696670 -4.67551763296330  1.71849721332133
 8  3.01417201530153 -4.73269781898190  1.44006193799380
 8  7.23864424582458 -1.26284382548255  1.90408062856286
 8  3.67091882468247 -2.92499162436244  0.21755461386139
 8  7.58468722072207 -0.75470684998500 -0.36314588388839
 8 -2.96813714251425  2.41547894539454 -0.24831973657366
 7 -0.38115249694969 -0.51184053385339 -0.71993062926293
 7  1.58700638333833  1.67847022582258 -0.36948861096110
 7 -3.52924986798680 -3.09566861366137  0.56465493679368
 7 -0.66939834273427  2.85074549274927 -0.00241526542654
 6  0.67196842924292 -2.42028746704670 -1.27119920302030
 6  0.89479841364136 -1.13699365046505 -0.95377793309331
 6 -0.70927525262526 -2.70883477287729 -1.22107230663066
 6 -1.32733483968397 -1.45370901280128 -0.83032449834983
 6  3.86164410571057  1.40831531683168 -0.37475369176918
 6  2.58147884088409  0.76245757755776 -0.59355091369137
 6  2.15338234253425 -0.55225137093709 -0.98879112411241
 6  3.62772660956096  2.70340834903490 -0.03367414031403
 6  1.70100125262526 -3.42188745454545 -1.78482868386839
 6 -5.73852318751875 -2.47528943854385  1.40229016901690
 6 -3.62768483138314 -1.90955601760176  0.06168995399540
 6  2.20059431963196  2.89683611181118 -0.03073055005501
 6 -5.08721491779178 -1.47161266446645  0.38561720062006
 6  5.13390186828683  0.63334300430043 -0.54157721412141
 6 -2.64598556075608 -1.11699847144714 -0.53853426782678
 6 -1.44786272397240 -3.95446994929493 -1.73161640534053
 6 -4.66476394319432 -3.58065657135714  1.23021213581358
 6  2.08896937293729 -4.46359857955796 -0.78594144994499
 6  5.54115399169917 -0.00886695059506  0.70134824092409
 6  4.63188897509751  3.69434066536654  0.38694087788779
 6  1.35672691409141  4.06711111861186  0.21085120462046
 6 -7.17611874247425 -2.96240362016202  1.01458092419242
 6 -5.72722132463246 -0.43110784068407 -0.13216469086909
 6  0.02750776177618  4.03589826142614  0.14373299889989
 6 -1.00600156185619  5.17239833283328  0.46601122972297
 6 -2.26234156035604  4.50819694249425  0.53963536643664
 6  3.02747558885889 -3.94759137823782  0.34142554155416
 6 -5.39626428722872  0.50289551815182 -1.32221328832883
 6  6.94516708290829 -0.73615189928993  0.64764788738874
 6 -3.67833359265927  5.14679097729773  0.63902471757176
 6 -2.02778621492149  3.13090528182818  0.11688261306131
 6 -0.54069820732073  6.53324719271927  0.88892398219822
 6 -4.29348788568857  5.45121352625263 -0.84314509020902
 1 -0.64732229712971  0.37171287688769 -0.08236879017902
 1  2.96527054165417 -1.12787478957896 -1.11363087168717
 1  2.62389364026403 -2.85231993889389 -2.19081151585158
 1  1.32726950625062 -4.11386330393039 -2.54857722422242
 1 -5.76748855505550 -2.29118750785079  2.51399355985599
 1  5.02975328552855 -0.06232151565157 -1.32444559755976
 1  5.94645661126113  1.34329863916392 -0.70807210681068
 1 -3.00140823652365  0.00996549274927 -0.72228513411341
 1  0.56138246994699  1.80704188718872 -0.22723219531953
 1 -1.46232182338234 -4.76197830203020 -1.01224202990299
 1 -2.63688731843184 -3.77838554055406 -1.73283260346035
 1 -1.08192814391439 -4.41399957435744 -2.59504310731073
 1 -2.67404116191619 -3.82332848124812  0.42227947494749
 1  1.24441024772477 -5.16362884538454 -0.38915263276328
 1  2.76109529532953 -5.21889459795980 -1.17999251315132
 1  4.79158357935794 -0.72394844594459  0.96692727892789
 1  5.46251045064507  0.80167460406041  1.48282275297530
 1  4.36014353465347  4.80408087548755 -0.00206018871887
 1  5.69397602040204  3.52559527872787  0.09909643284328
 1  4.68139755715572  3.98761426952695  1.53155445934593
 1  1.87920375237524  4.97209713931393  0.52169195609561
 1 -8.01050382198220 -2.28545453995399  1.29734442844284
 1 -7.55981162546255 -3.76181394729473  1.64640700860086
 1 -7.26087427142714 -3.20414817831783  0.03819540874087
 1 -6.83416075777578 -0.31387171847185 -0.09329740184018
 1 -4.87028186998700  1.48285248214821 -0.80413426152615
 1 -6.34961679137914  0.97568519681968 -1.65326200470047
 1 -4.89816831233123  0.16695354155416 -2.12468368106811
 1 -3.77521740104010  5.90157281308131  1.57912561656166
 1 -4.30827850535054  4.22681181338134  0.92514465226523
 1 -0.03529896459646  6.44537649754975  1.86542927542754
 1 -1.30550193349335  7.17156385188519  1.03048230463046
 1  0.06805599319932  6.79649815031503  0.01962829702970
 1 -3.61459175497550  6.15777166026603 -1.25975379147915
 1 -5.39917174027403  5.76376911791179 -0.84936007770777
 1 -4.29608412951295  4.47220871317132 -1.25193493189319
 1  3.58695400190019 -4.23335756595660  2.00061869886989
 1  7.96429367406741 -1.70215086738674  1.18379854245425

