%nproc=4
%Mem=4GB
# td=(NStates=1) B3LYP/SVP 

TD

0 1
 8 -4.45361548234824 -4.74953503470347  1.83965932953295
 8  3.09162976107611 -4.90367491669167  1.25811374317432
 8  6.88490887228723 -1.63185072617262  1.77395761626163
 8  3.76695842864286 -3.08411753695370  0.11949480788079
 8  7.44317306930693 -0.72961434073407 -0.09398896819682
 8 -2.96536686548655  2.37868526602660 -0.12526743134313
 7 -0.24350873257326 -0.51460080988099 -0.69826846304630
 7  1.57576525922592  1.74506688548855 -0.40664232633263
 7 -3.34561150415042 -3.01147019381938  0.74726319761976
 7 -0.79285068796880  2.97712813101310 -0.06743176707671
 6  0.68103933633363 -2.41490692899290 -1.29757184028403
 6  1.00453938773877 -1.05911586268627 -0.99346190149015
 6 -0.74837916301630 -2.73660755015502 -1.25390558995900
 6 -1.32745485168517 -1.43096673857386 -0.77864933083308
 6  3.82634057535754  1.43808829412941 -0.38106432283228
 6  2.49869056205621  0.79010034183418 -0.65671723032303
 6  2.23928093239324 -0.51044719051905 -0.98934117911791
 6  3.45099893679368  2.74872288048805  0.01983121022102
 6  1.73912506500650 -3.46319158495850 -1.85071527252725
 6 -5.54076341154115 -2.50619252885289  1.38232817281728
 6 -3.60536259915992 -1.72024708670867  0.07044082908291
 6  2.14564882508251  2.94340076827683 -0.09789726672667
 6 -4.96412260856086 -1.54314981818182  0.33243188208821
 6  5.11386986508651  0.74174384438444 -0.43132618901890
 6 -2.65245620782078 -1.08982575417542 -0.57207762216222
 6 -1.56102404010401 -3.82243674597460 -1.78665190889089
 6 -4.45997346414642 -3.62445095079508  1.38748786338634
 6  2.18278875487549 -4.58305052475248 -0.82269512531253
 6  5.40109998629863 -0.07275333923392  0.85383348944894
 6  4.55299108530853  3.80933216451645  0.43089527332733
 6  1.31835307670767  4.02322673017302  0.21737185668567
 6 -6.88265939653965 -3.01498887868787  1.13741320742074
 6 -5.89768837133713 -0.64926965686569 -0.27533900830083
 6 -0.09080406940694  3.95699037063706  0.20360898649865
 6 -1.00350131183118  5.10576166916692  0.50048467706771
 6 -2.30468579477948  4.73049917271727  0.44088549144914
 6  3.05336817811781 -4.09155577467747  0.28199959895990
 6 -5.49333399419942  0.36686191479148 -1.32824389138914
 6  6.59434200040004 -0.78156644074407  0.79018214081408
 6 -3.61601736103610  5.35612191039104  0.56403721882188
 6 -2.15753919021902  3.24930712201220  0.08543946874687
 6 -0.46101023852385  6.54515838383838  0.63372846264626
 6 -4.15904444134413  5.74062246714672 -0.84519529522952
 1 -0.78224578947895  0.30706641224122 -0.35840639393939
 1  3.05729974457446 -1.31937393949395 -1.04407391599160
 1  2.64867611851185 -3.04019872677268 -2.23404583928393
 1  1.39733651295130 -4.00684260186019 -2.83877624412441
 1 -5.56992879907991 -2.36590497959796  2.46466862736274
 1  5.11861217141714  0.14569928642864 -1.36828998199820
 1  5.83140510611061  1.39355366466647 -0.54995629522952
 1 -2.95635373107311 -0.12971847564756 -0.61304421002100
 1  0.49125545724572  1.66815799879988 -0.52111158325833
 1 -1.43176876807681 -4.80313241744174 -1.19062986868687
 1 -2.68717234693469 -3.45565326732673 -1.76820614081408
 1 -1.31293124422442 -3.64850302470247 -2.95923952695270
 1 -2.42949670747075 -3.52205835423542  0.68780602760276
 1  1.33369917661766 -5.23325580808081 -0.56797051455146
 1  2.70833001880188 -5.20508321682168 -1.56343085698570
 1  4.48707312831283 -0.78540459155916  0.98509909610961
 1  5.58953315291529  0.67881231783178  1.73281775247525
 1  4.16066358665867  4.67014748214821 -0.01087106980698
 1  5.48060468326833  3.48141086028603 -0.26316979377938
 1  4.80831024842484  3.79811531963196  1.61650295419542
 1  1.82142797479748  5.04510444004400  0.23714350125013
 1 -7.70840361196120 -2.22488848334833  0.99618431243124
 1 -7.27567321162116 -3.86721448734873  1.79670203810381
 1 -7.04931311531153 -3.45392315581558  0.09434102330233
 1 -6.90822816451645 -0.46037636893689  0.18130005790579
 1 -4.99692453425343  1.14083828072807 -0.86658050615061
 1 -6.41562339203920  1.18797642594259 -1.54895157365737
 1 -5.09293778927893  0.07080392659266 -2.30701191389139
 1 -3.50937081638164  6.31088374417442  1.15569327332733
 1 -4.39713739123912  4.93937306950695  1.16361849964996
 1  0.39787435273527  6.78920087998800  1.46579931243124
 1 -1.33376475977598  7.21368806430643  1.17359661606161
 1 -0.13617442984298  7.03967246774678 -0.26140980678068
 1 -3.51932222802280  6.63927981108111 -1.17569538563856
 1 -5.22873469656966  6.12072481348135 -0.69208435013501
 1 -4.18886340744074  4.87858935123512 -1.51283102150215
 1  3.46188149464947 -4.34845907610761  2.14500313731373
 1  7.75461270597060 -1.83483413571357  1.61397155975598

