%nproc=4
%Mem=4GB
# td=(NStates=1) B3LYP/SVP 

TD

0 1
 8 -4.23082320312031 -4.49166924812481  2.18869423302330
 8  2.87321791989199 -4.78126267546755  1.21727965976598
 8  6.92855323672367 -1.61998954005401  1.76660688118812
 8  3.69133086588659 -3.08838796399640 -0.02301944354435
 8  7.55198395039504 -1.07761914121412 -0.24040360966097
 8 -3.09278960776078  2.51065846334633 -0.33478838343834
 7 -0.23272765446545 -0.55916526632663 -0.71027966416642
 7  1.50823850655065  1.77272965176518 -0.36866852895290
 7 -3.26832377537754 -3.08494754155416  0.71535000630063
 7 -0.74942634553455  2.92914333253325 -0.12858788268827
 6  0.63914514691469 -2.52733817211721 -1.35727781088109
 6  0.92835176897690 -1.14111406250625 -1.05897845314531
 6 -0.75224955005501 -2.69411330073007 -1.28546874627463
 6 -1.24121622782278 -1.50094373627363 -0.78990045594559
 6  3.77493543484348  1.50843532883288 -0.18089430583058
 6  2.52252294529453  0.79175050685068 -0.55849740834083
 6  2.25831283558356 -0.54405055085509 -0.90123236823682
 6  3.43435727262726  2.88665667386739  0.09196842394239
 6  1.65479663216322 -3.41728699449945 -2.00077027802780
 6 -5.53360269546955 -2.54188609820982  1.34673461346135
 6 -3.55226728962896 -1.78280334233423  0.11707549254926
 6  1.97512177237724  2.96130255845585  0.06049857285729
 6 -5.01651784808481 -1.54137964116412  0.31647028592859
 6  5.19648812691269  0.88616828682868 -0.27882093849385
 6 -2.59421038323832 -1.01725849744974 -0.46772718711871
 6 -1.44162209990999 -3.94177868016802 -1.66991023472347
 6 -4.34797226402640 -3.52420092579258  1.46094520912091
 6  2.18663913991399 -4.56806902660266 -1.02520537633763
 6  5.41534141044104 -0.22943900780078  0.82853095919592
 6  4.43319910611061  3.94284551585159  0.59517170097010
 6  1.25173641504150  4.14466887438744  0.35083520302030
 6 -6.98193932453245 -3.04305168496850  1.18476794289429
 6 -5.89850845334533 -0.66219094899490 -0.36599807420742
 6 -0.15242023102310  4.04334900650065  0.34654327992799
 6 -0.98228919061906  5.18277937093709  0.56572120072007
 6 -2.23747907410741  4.68723484628463  0.33290469336934
 6  2.97849069036904 -4.00307692679268  0.06390778977898
 6 -5.37749241004100  0.35047027562756 -1.36939800680068
 6  6.67028959515952 -0.96291457555756  0.66854997759776
 6 -3.56380213951395  5.37537383558356  0.39571038613861
 6 -2.13177661396140  3.14003619491949  0.00025094989499
 6 -0.59112324982498  6.62412628062806  0.86030111991199
 6 -4.08523706060606  5.59486789168917 -0.99399017471747
 1 -0.42039960486049  0.19648535413541  0.06753620032003
 1  2.94206822142214 -1.22152415451545 -0.96674618321832
 1  2.47803905480548 -2.88820352725273 -2.26683911861186
 1  1.17283406270627 -3.87164908250825 -2.77322968946895
 1 -5.51863366956696 -2.02500088918892  2.26930909140914
 1  5.32799310951095  0.46115083158316 -1.29735288828883
 1  5.97284925052505  1.71069537883788 -0.24639593919392
 1 -2.87422551825183  0.09861435763576 -0.64224713031303
 1  0.54163049474947  1.64219540254025 -0.34699417151715
 1 -1.41314690589059 -4.67814991919192 -0.72439324502450
 1 -2.52934656435644 -3.87573527552755 -1.91441076127613
 1 -0.93948389948995 -4.56403457785779 -2.40561416441644
 1 -2.28158191599160 -3.50685683408341  0.75886313331333
 1  1.43747955465547 -5.10109259175918 -0.41606532403240
 1  2.81276046184619 -5.26517922642264 -1.39032354625463
 1  4.48524294529453 -1.10966701780178  0.85551613781378
 1  5.29577377697770  0.07128156475648  1.81571604230423
 1  4.34889240954096  4.81303177057706 -0.10422040474047
 1  5.24665128792879  3.49016173537354  0.55497202040204
 1  4.20702011941194  4.37408291639164  1.59256055995600
 1  1.65225105710571  5.04342427202720  0.58653844074408
 1 -7.87392016361636 -2.34450044454445  1.31449614361436
 1 -7.21848749304931 -3.99995776167617  1.86242861076108
 1 -7.20051823582358 -3.57735549904991  0.08388997819782
 1 -6.86322366406641 -0.60658098939894  0.04647657555756
 1 -4.85130997279728  1.26508070497050 -1.03311715981598
 1 -6.34463629332933  0.87566519481948 -1.72778945744574
 1 -4.96642513801380 -0.03969712351235 -2.11216242894289
 1 -3.38247812711271  6.31635429122912  0.87770547454745
 1 -4.28797647514751  4.75452458465847  0.88997113491349
 1  0.11513607890789  6.62856481638164  1.67456018851885
 1 -1.43164454775478  7.24846154165417  1.18666792319232
 1 -0.24629544194419  7.07776627712771 -0.05654932073207
 1 -3.41119141494149  6.16267215031503 -1.61909972607261
 1 -5.22470429352935  6.12428516951695 -0.85861100280028
 1 -4.25059958105811  4.82192368466847 -1.63393313171317
 1  3.46822212871287 -4.13089731993199  1.88525716271627
 1  7.80213745844584 -2.00179083138314  1.80805096769677

