%nproc=4
%Mem=4GB
# td=(NStates=1) B3LYP/SVP 

TD

0 1
 8 -4.64909503030303 -4.77851793299330  1.77189255285529
 8  2.95580617871787 -4.78038258745875  1.29765769756976
 8  7.19119950135013 -1.28333587468747  1.79789000950095
 8  3.81942367516752 -3.09371849704970  0.05470832923292
 8  7.61264001600160 -0.69685106440644 -0.21547111641164
 8 -2.97765809460946  2.44071146864686 -0.38170307490749
 7 -0.32133651535154 -0.49934928472847 -0.63512214841484
 7  1.59288697139714  1.72950532933293 -0.35978764086409
 7 -3.50543748674867 -3.09233828062806  0.71437990929093
 7 -0.79754115701570  2.91588200640064 -0.13775879977998
 6  0.62111334373437 -2.49799523782378 -1.35895797889789
 6  0.96160509430943 -1.09183913501350 -0.98041059635964
 6 -0.71205553065307 -2.72775666506651 -1.13826402580258
 6 -1.32269437563756 -1.42357599949995 -0.72207367326733
 6  3.72396033733373  1.41258574387439 -0.37659387578758
 6  2.50084077707771  0.78912024382438 -0.62359391799180
 6  2.20631763606361 -0.48201434723472 -0.82963520852085
 6  3.58548238513851  2.69263727192719  0.05783501060106
 6  1.61005215771577 -3.50729599539954 -1.92336253725373
 6 -5.58071740694069 -2.50630253985399  1.35014495449545
 6 -3.63204526742674 -1.76401146314631  0.16922070707071
 6  2.17975223542354  2.87113354155416 -0.00503798079808
 6 -5.07380357665767 -1.50058556175618  0.41317995689569
 6  5.10571905000500  0.74264393439344 -0.44330738713871
 6 -2.64979594179418 -1.04401117271727 -0.35480589498950
 6 -1.46378431613161 -3.95615011731173 -1.70684392809281
 6 -4.57161462826283 -3.62809131483148  1.33173228782878
 6  2.06769724572457 -4.58858107780778 -0.91136399219922
 6  5.41958183448345 -0.19395545944594  0.68999710581058
 6  4.50056584278428  3.81879311061106  0.46188837263726
 6  1.33305454685469  3.97254166166617  0.48191831133113
 6 -7.02104323492349 -2.98341572137214  1.16318578467847
 6 -5.76628523102310 -0.50733546344634 -0.20148162256226
 6  0.00259527052705  3.91872654425443  0.31618024362436
 6 -0.99535049674968  5.09310040304030  0.61120574917492
 6 -2.25833115931593  4.71149727252725  0.37993939683968
 6  3.07715055635564 -4.05414203330333  0.20121152015202
 6 -5.43375803660366  0.47484271287129 -1.25584665166517
 6  6.88043060926093 -0.68678696279628  0.66363948654865
 6 -3.59163492279228  5.33985028322832  0.32160297539754
 6 -2.13099653595360  3.27447963926393 -0.08374744994499
 6 -0.53869800730073  6.46048991699170  0.99111420122012
 6 -4.14283282018202  5.61318972387239 -1.05766654235424
 1 -0.38021558645865  0.39769547514751 -0.05646619991999
 1  3.08647266186619 -1.04917691979198 -1.11086059465947
 1  2.37807905880588 -2.93179788668867 -2.23327576227623
 1  1.07308408770877 -3.97602952055205 -2.82224459095910
 1 -5.47603941014101 -2.35566395549555  2.41645380588059
 1  5.40482079227923  0.17315203170317 -1.39266241924192
 1  5.94008597419742  1.39769407870787 -0.41325262486249
 1 -2.93233132883288 -0.04398990279028 -0.41893479907991
 1  0.40702703440344  1.80686186918692 -0.43792326442644
 1 -1.21602719391939 -4.71127323152315 -0.94728553425343
 1 -2.50321395109511 -3.84601230323032 -1.71735105530553
 1 -1.29747969906991 -4.34153232763276 -2.70213381638164
 1 -2.49080283808381 -3.40123627202720  0.90694794179418
 1  1.07388319501950 -5.05463794629463 -0.51809552705271
 1  2.70101928772877 -5.31067377587759 -1.48133264716472
 1  4.72526694769477 -1.03209926102610  0.62909349554955
 1  4.98939313891389  0.25377981458146  1.81128559925993
 1  4.28769628992899  4.89982044944494 -0.05216519921992
 1  5.48459508230823  3.41541426062606  0.18086460966097
 1  4.51421083848385  3.86249175727573  1.69413071697170
 1  1.61201703370337  4.84808473807381  0.92532231913191
 1 -7.82823559515952 -2.33000899539954  1.31017571157116
 1 -7.09236488078808 -3.81842960886089  1.85688805670567
 1 -7.35238342234223 -3.32890065356536  0.02508409760976
 1 -6.83981132283228 -0.42981331263126  0.12748467636764
 1 -4.92253709550955  1.38390258715872 -0.93155700380038
 1 -6.38834066376638  0.62055968426843 -1.80035671417142
 1 -4.78061655715572 -0.08761191499150 -2.14179539223922
 1 -3.94721460076008  6.30757341314131  0.97987569156916
 1 -4.34227190469047  4.50171930413041  0.84143628142814
 1  0.12296686198620  6.66303826372637  1.84971770427043
 1 -1.26546793009301  7.13645034053405  1.09239849624963
 1  0.00696988458846  7.03330183068307  0.13860019421942
 1 -3.47545784158416  6.43434931803180 -1.50687850395039
 1 -5.29864168726873  6.06004874587459 -1.08856399809981
 1 -4.09442396349635  4.70615210751075 -1.80305004340434
 1  3.76328163466347 -4.54169840004000  1.86646528352835
 1  8.07773501820182 -1.75314596689669  1.67448761136114

