%nproc=4
%Mem=4GB
# td=(NStates=1) B3LYP/SVP 

TD

0 1
 8 -4.51673179397940 -4.59911999319932  2.09630499409941
 8  2.71639223732373 -4.84537908710871  1.42257018881888
 8  7.11578195959596 -1.64530207130713  1.51892211271127
 8  3.58376010881088 -3.22526165136514  0.23381624002400
 8  7.75934468646865 -0.26936831613161 -0.13971354065407
 8 -2.86555688448845  2.37548494599460 -0.21116602120212
 7 -0.22320670237024 -0.70165951575158 -0.59875851205121
 7  1.56910459315932  1.79953233203320 -0.23594525662566
 7 -3.43067001000100 -3.16566561336134  0.59395786708671
 7 -0.67545894879488  3.02523294149415 -0.07829285318532
 6  0.68322955535554 -2.53942938123812 -1.28976105920592
 6  0.98465739953995 -1.24900485158516 -0.93376593189319
 6 -0.76280060516052 -2.71497538693869 -1.27596779617962
 6 -1.26432853905391 -1.48367200910091 -0.75652711861186
 6  3.72709065036504  1.45646013131313 -0.29695591199120
 6  2.42547324032403  0.79706103790379 -0.46139769836984
 6  2.21856886118612 -0.60985713151315 -0.69395164016402
 6  3.55977981488149  2.82732074027403 -0.02822359525953
 6  1.73364451695170 -3.56368163396340 -1.92560276127613
 6 -5.64458379357936 -2.54796670627063  1.25325526552655
 6 -3.60476253915392 -1.88105316731673  0.02169595459546
 6  2.12062632283228  2.98778520672067  0.01859438243824
 6 -5.05553174947495 -1.52011751495150  0.26561520042004
 6  5.11756023412341  0.79816948694869 -0.42748580498050
 6 -2.65413637583758 -1.12512928452845 -0.57317773217322
 6 -1.50948888658866 -3.94825932823282 -1.83783702740274
 6 -4.55743321012101 -3.57109561526153  1.39177829242924
 6  2.02166264226423 -4.57745996569657 -0.93332618841884
 6  5.45905578187819 -0.10799686358636  0.72126023212321
 6  4.44992077827783  3.87833906520652  0.33151533533353
 6  1.36579782118212  4.14242865036504  0.27871799129913
 6 -6.99987111771177 -3.22052943274327  0.97299676577658
 6 -5.83405200770077 -0.42769749964996 -0.20655212961296
 6 -0.04610959996000  4.07089176077608  0.22438106370637
 6 -1.00817177887789  5.23154424742474  0.58859348794879
 6 -2.27582290849085  4.63534965776578  0.39571097399740
 6  2.86819966126613 -4.19978659775978  0.26759815881588
 6 -5.34339900070007  0.53200842944294 -1.20567163416342
 6  6.84588715491549 -0.72065034913491  0.60383350595059
 6 -3.59184494379438  5.33879017721772  0.44494530963096
 6 -2.01110454675468  3.23199539083908 -0.04531360656066
 6 -0.51111524902490  6.58531239923992  0.90276536633663
 6 -4.20926946384638  5.62706111101110 -0.88016879257926
 1 -0.42916048094809  0.26111181678168 -0.27292784608461
 1  3.13036705130513 -1.34144614671467 -0.91964147274727
 1  2.71754300520052 -2.94955966286629 -2.29754218891889
 1  1.24453123242324 -4.06671858945895 -2.85301766826683
 1 -5.64024583078308 -1.99440782988299  2.36488864936494
 1  5.42434274447445  0.30643536003600 -1.35319847284729
 1  5.80824278987899  1.64843915321532 -0.83028432803280
 1 -2.97584568026803 -0.07764326812681 -0.74478738433843
 1  0.39810614231423  1.70443162616262 -0.29896936903690
 1 -1.69047463866387 -4.67476958115812 -1.07232803850385
 1 -2.46684031373137 -3.48957665966597 -2.23886320652065
 1 -0.90031998309831 -4.11504967936794 -2.78301190419042
 1 -2.60555431323132 -3.55046119451945  0.66617386438644
 1  1.13821962866287 -5.21957443994399 -0.56363008050805
 1  2.60364955075508 -5.29977268576858 -1.48995350925093
 1  4.69393381438144 -0.96606265736574  0.72074266046605
 1  5.52742694229423  0.43470790739074  1.79003347404740
 1  4.08226574687469  4.78233870127013 -0.29584956765677
 1  5.51369799259926  3.67909062826283 -0.12085556235624
 1  4.47695711311131  4.06972248034804  1.35522682658266
 1  1.86088192019202  5.05604553415342  0.58363815071507
 1 -7.74956772837284 -2.47648364286429  1.05993068706871
 1 -7.24653029732973 -4.00684845074507  1.63375574347435
 1 -7.16864504850485 -3.64409217271727  0.13787537673767
 1 -6.93230057175717 -0.55079541084108 -0.07177524962496
 1 -5.00016485828583  1.40886508340834 -0.72926677477748
 1 -6.38564039373937  1.02350997929793 -1.82777945644564
 1 -4.57885638113811  0.17340418661866 -1.95836704940494
 1 -3.48434831413141  6.27177983378338  0.99653735773577
 1 -4.45586326382638  4.61360049224923  0.98532066986699
 1  0.15464002930293  6.50683264316432  1.69300203270327
 1 -1.45928731203120  7.10906760226023  1.20715997239724
 1 -0.00416122852285  6.99447794829483  0.17102343654365
 1 -3.48732902870287  6.31037692079208 -1.55238305440544
 1 -5.26549837293729  6.01707444844484 -0.81394653635364
 1 -4.21593611471147  4.91890338263826 -1.60190992939294
 1  3.16059136563656 -4.41080531073107  2.15371400840084
 1  8.12600984568457 -1.61748240054005  1.35225538813881

