%nproc=4
%Mem=4GB
# td=(NStates=1) B3LYP/SVP 

TD

0 1
 8 -4.64535465626563 -4.81299138033803  1.71178654225423
 8  3.03972457055706 -4.67546209540954  1.53067099889989
 8  7.16396677807781 -1.48829637073707  1.70152037253725
 8  3.75800753355336 -2.99727885308531  0.28385124352435
 8  7.53244199619962 -0.69204058335834 -0.36963653295330
 8 -3.10132046084608  2.48209560706071 -0.18822372697270
 7 -0.36489087078708 -0.69819916971697 -0.56921555775578
 7  1.51282896559656  1.69591196999700 -0.28578024012401
 7 -3.46726366936694 -3.20770981778178  0.57794626592659
 7 -0.81750315321532  2.98576899509951 -0.05671069496950
 6  0.72821405380538 -2.35635107340734 -1.35273735683568
 6  0.91204013781378 -1.12805275637564 -0.94574713001300
 6 -0.72711703680368 -2.75719960936094 -1.21352155155516
 6 -1.27768987518752 -1.51879552145215 -0.81600306620662
 6  3.76326426772677  1.35747023232323 -0.36439265566557
 6  2.44403509650965  0.78184951675168 -0.58411997059706
 6  2.14048105240524 -0.55975212101210 -0.93619586458646
 6  3.61528536543654  2.73109111731173 -0.05325609850985
 6  1.61440259275928 -3.49056432223222 -1.82220242124212
 6 -5.53738307350735 -2.58064997459746  1.13706364636464
 6 -3.64430649354936 -1.87005206720672  0.11824560956096
 6  2.09019327952795  2.88511493969397  0.08459098209821
 6 -5.03313951025102 -1.42675817901790  0.33295193409341
 6  5.12906138423842  0.66467613761376 -0.53081613801380
 6 -2.60562152435243 -1.14623139473947 -0.42577299169917
 6 -1.48022596029603 -3.90068457075708 -1.66755999969997
 6 -4.52177964476448 -3.67620612631263  1.26610572517252
 6  2.00534101010101 -4.45147736743674 -0.60504336013601
 6  5.45189506580658 -0.14954101800180  0.71559966606661
 6  4.58489427562756  3.77610884218422  0.30807299109911
 6  1.32268350975097  4.06484089158916  0.12252237173717
 6 -6.93541467206721 -3.22622000180018  0.93231269736974
 6 -5.85439404190419 -0.48761349124913 -0.24122559695970
 6 -0.07691268026803  4.11314598619862  0.22265089068907
 6 -0.93367432913291  5.16306739973997  0.51785641424142
 6 -2.23876920312031  4.78827495029503  0.32182358525853
 6  3.04561740304030 -3.97416403550355  0.35087648664866
 6 -5.42300696149615  0.60890611921192 -1.13537460446045
 6  6.85531809800980 -0.72646093019302  0.60270339293929
 6 -3.52243800310031  5.45015131333133  0.51686250135013
 6 -2.14053749004901  3.25019721102110 -0.09578865406541
 6 -0.41023516101610  6.47467133513351  1.08026311611161
 6 -4.20438897579758  5.74451285618562 -0.91415219091909
 1 -0.53096066096610  0.24281998759876 -0.20580113341334
 1  3.19000301490149 -0.95768777087709 -1.19974948354836
 1  2.59609085998600 -3.23686839373937 -2.14873730843084
 1  1.31914869416942 -4.18564048164817 -2.46140850735074
 1 -5.61035284148415 -2.30476886598660  2.32364452495250
 1  4.98126843704370  0.16240095659566 -1.50725387838784
 1  6.05913787938794  1.36153046234623 -0.69916121572157
 1 -2.67908600430043 -0.10128563236324 -0.36079898549855
 1  0.40970730243024  1.74587577057706 -0.49251872397240
 1 -1.31370696189619 -4.81222332653265 -0.85827663336334
 1 -2.56488011771177 -3.73612131413141 -1.85953527372737
 1 -1.09160911201120 -4.38187636203620 -2.50575417841784
 1 -2.60330408820882 -3.80234638303830  0.60234748174818
 1  1.28730453715372 -4.96113859635964 -0.20188390589059
 1  2.62744192999300 -5.29389209770977 -0.99391390529053
 1  4.66387080808081 -1.07801385248525  1.00182076827683
 1  5.47441164076408  0.41912634923492  1.47532200290029
 1  4.08139565986599  4.64118458585859 -0.10752073477348
 1  5.69165578837884  3.56960968016802 -0.02419589638964
 1  4.53272268966897  3.66583209130913  1.51977328122812
 1  1.94620045204520  4.95470540014001  0.37698748564856
 1 -7.76645941754175 -2.45131112561256  1.10315500950095
 1 -7.30228587288729 -4.02584034993499  1.52440480838084
 1 -7.07201538553855 -3.60756852035204 -0.19748815961596
 1 -6.86727406910691 -0.48294862616262  0.09027095499550
 1 -5.10235507730773  1.65241943884388 -0.48324217231723
 1 -6.16952878257826  0.85029265756576 -1.74351102960296
 1 -4.76792528802880  0.41278812501250 -2.01119233193319
 1 -3.32945282458246  6.31887454325433  1.04884258825883
 1 -4.26789446694669  4.78627775997600  1.23914605240524
 1 -0.19870530523052  6.19957191709171  2.24717745024502
 1 -1.25655703900390  7.20828752425243  0.97148640504050
 1  0.55179436703670  6.83575207570757  0.53840017421742
 1 -3.57852814861486  6.43153903700370 -1.42699051515152
 1 -5.35895771887189  6.03355609660966 -0.93008815051505
 1 -4.41645616671667  4.84239573187319 -1.35991572997300
 1  3.93858916541654 -4.48536276647665  2.11143978097810
 1  8.21900914561456 -1.65788644094409  1.77954811741174

