%nproc=4
%Mem=4GB
# td=(NStates=1) B3LYP/SVP 

TD

0 1
 8 -4.52057217801780 -4.88360844204420  1.75244060766077
 8  2.73119371747175 -4.79088363756376  1.39131706350635
 8  7.20969135053505 -1.41903944504450  1.81199141964196
 8  3.52542427522752 -3.04863398859886  0.18520137853785
 8  7.55873462546255 -0.69978135743574 -0.24449401870187
 8 -2.96618694749475  2.59547694519452 -0.28819372397240
 7 -0.21532591429143 -0.60251960176018 -0.51385002120212
 7  1.54117179987999  1.75493787258726 -0.17669933203320
 7 -3.48082502550255 -3.23007205400540  0.51224969626963
 7 -0.69753115601560  2.98186860506051  0.01056603270327
 6  0.71934316671667 -2.40157559585959 -1.34242632573257
 6  0.97149608340834 -1.02212216331633 -0.94233678897890
 6 -0.73408773387339 -2.66921081048105 -1.26003620302030
 6 -1.25445755195520 -1.51313495539554 -0.69121058695870
 6  3.79358730003000  1.44910939623962 -0.34896111251125
 6  2.42180287328733  0.76611794359436 -0.50777233583358
 6  2.26332333663366 -0.47750389618962 -0.93869611461146
 6  3.51870570747075  2.74113212141214  0.05542476957696
 6  1.55202635513551 -3.42267753355336 -1.85405560656066
 6 -5.55158449364937 -2.70182209180918  1.35811575157516
 6 -3.65339740264026 -1.94095915791579  0.19041282628263
 6  2.10650491069107  2.98596502470247  0.09855237823782
 6 -5.04548074437444 -1.57640314351435  0.41868050695070
 6  5.15090356845685  0.79546921692169 -0.48393144954495
 6 -2.63929489168917 -1.21586835843584 -0.42581299569957
 6 -1.46108404610461 -3.70338484078408 -1.87584082778278
 6 -4.46047351415142 -3.76277478317832  1.33200231483148
 6  2.05934641064106 -4.58161038073807 -0.88408126392639
 6  5.41312118841884 -0.24719078297830  0.69246735283528
 6  4.50839662586259  3.82132336363636  0.25716790059006
 6  1.38278952035204  4.13138754625463  0.31321144064406
 6 -6.97146827742774 -3.26481386118612  1.22635210131013
 6 -5.75617421992199 -0.59003373327333 -0.22716419081908
 6  0.03665867686769  3.98912358395840  0.28888751435144
 6 -0.93079404110411  5.28621971497150  0.51971660026003
 6 -2.19559488568857  4.81614773757376  0.31075247814781
 6  2.82643548484848 -4.13756037513751  0.28246964596460
 6 -5.46479113991399  0.45818104670467 -1.18221928892889
 6  6.80814338053805 -0.78028631273127  0.62703582618262
 6 -3.58540429972997  5.54142044024402  0.35786660176018
 6 -2.08027146344635  3.35093728502850 -0.00306938213821
 6 -0.47567170467047  6.58821268926893  0.79890498029803
 6 -4.16250478737874  5.61745014991499 -1.08608938463846
 1 -0.65670323522352  0.20380608620862 -0.21483203650365
 1  3.12251626622662 -1.17233923602360 -1.03207271587159
 1  2.46969822072207 -3.19007371427143 -2.10357279197920
 1  1.09407618691869 -4.00543246084608 -2.93269563606361
 1 -5.54405621182118 -2.11677006610661  2.34668682918292
 1  5.27154746494649  0.34422913941394 -1.44496764976498
 1  6.02138410401040  1.54942925222522 -0.32261356095610
 1 -3.15525362106211 -0.11335683948395 -0.47613051865187
 1  0.66587291899190  2.04471565456546 -0.42474194629463
 1 -1.41220681188119 -4.77691979617962 -1.36894770047005
 1 -2.55588921862186 -3.43231093309331 -2.07518683888389
 1 -1.12067201830183 -4.20226840124012 -2.83647725072507
 1 -2.62622638043804 -3.86236238463846  0.41563881088109
 1  1.35761156785679 -5.29583206570657 -0.45605932343234
 1  2.65551473727373 -5.11091379987999 -1.57702221612161
 1  4.63325774677468 -1.16405245634563  0.79595018121812
 1  5.14099829942994  0.21124556115612  1.57902237293729
 1  4.58979649994999  4.66889735713571 -0.40281026372637
 1  5.68786540934093  3.39006172537254  0.35645216841684
 1  4.23237265466547  4.06146165426543  1.37168847274727
 1  1.77079291129113  5.10127005660566  0.90060984788479
 1 -7.83272604420442 -2.68144413891389  1.37804249824983
 1 -6.87726337063706 -4.20794856075608  1.84035640354035
 1 -7.14909309330933 -3.60586835033503  0.12841443064306
 1 -6.75631297299730 -0.48160849214921  0.23879580748075
 1 -4.89367420922092  1.27419161606161 -0.77023087118712
 1 -6.35239706940694  0.65769339763976 -1.76218289678968
 1 -4.69833832933293  0.25784263046305 -1.81684289698970
 1 -3.50675055435544  6.48041069686969  1.01870957495750
 1 -4.03945162266227  4.93043217541754  0.88726086388639
 1  0.27510207550755  6.66828878877888  1.57958069056906
 1 -1.40934231753175  7.39125582108211  1.13938319471947
 1  0.00830001760176  7.17805630613061  0.04064039823982
 1 -3.70418071387139  6.40140602370237 -1.65718353445345
 1 -5.01034285738574  6.13549629062906 -1.05577071877188
 1 -4.34943946504650  4.57019851215122 -1.56867660606061
 1  3.14992029852985 -4.26758098829883  2.17019565656566
 1  8.11069831453145 -1.96526717901790  1.70885104770477

