%nproc=4
%Mem=4GB
# td=(NStates=1) B3LYP/SVP 

TD

0 1
 8 -4.41793191399140 -4.55239532073207  2.00937630123012
 8  2.78086868496850 -4.70147469666967  1.39011694349435
 8  7.01060144154415 -1.67937547864786  1.64380460096010
 8  3.74091582438244 -3.15883500870087  0.09835269366937
 8  7.62852160416042 -0.53949532883288 -0.19763933323332
 8 -2.99741006980698  2.51011840934093 -0.36174107870787
 7 -0.20207458915892 -0.61923127292729 -0.67845648184818
 7  1.52654033673367  1.71756413521352 -0.32848451055105
 7 -3.41713865686569 -3.05133418021802  0.69653812511251
 7 -0.78327973087309  2.97129754795480 -0.16062108600860
 6  0.69789102150215 -2.54450988928893 -1.50512259535954
 6  1.01166009980998 -1.18452840394039 -1.00687324262426
 6 -0.63425775087509 -2.68408229762976 -1.34948514791479
 6 -1.27127923412341 -1.51161480338034 -0.81270273617362
 6  3.77515545684568  1.43646813211321 -0.31067728412841
 6  2.43076376937694  0.79932126392639 -0.52989454805481
 6  2.23981098539854 -0.57033317911791 -0.84397664266427
 6  3.54622845974597  2.74061206940694  0.00239946704670
 6  1.73571472397240 -3.52718798459846 -1.94975517651765
 6 -5.55738507370737 -2.49949185878588  1.29808974897490
 6 -3.65898796169617 -1.81966702870287  0.03908769376938
 6  2.09395365556556  2.91865829402940  0.08111063406341
 6 -5.11248744504450 -1.51915741894189  0.32424106300630
 6  5.04823330143014  0.72618228822882 -0.27415047144714
 6 -2.64730569276928 -1.08341511311131 -0.54009442384238
 6 -1.40080801850185 -3.99876437873787 -1.62316556025603
 6 -4.47848531533153 -3.57011551725173  1.36135525012501
 6  2.06815729172917 -4.50748296799680 -0.86324918071807
 6  5.42352222852285 -0.16458252215222  0.85079318541854
 6  4.53248903510351  3.73046427772777  0.43147533133313
 6  1.28262950435043  4.07504191169117  0.28559867936794
 6 -6.87487861846185 -3.24144152395240  1.01528099419942
 6 -5.83808241074107 -0.45524025392539 -0.09905137953795
 6 -0.12457744674467  4.01463613521352  0.27404603020302
 6 -0.98403936563656  5.11965305830583  0.52099672827283
 6 -2.29383470967097  4.68575469826983  0.40086148904890
 6  2.93051589288929 -3.98473509260926  0.26635803480348
 6 -5.36141080188019  0.50254548314831 -1.23285435243524
 6  6.79749231543154 -0.80903918801880  0.65616873947395
 6 -3.54743050235024  5.41902820102010  0.49471028612861
 6 -2.06776021232123  3.27083927522752 -0.14238331353135
 6 -0.55622976047605  6.47558142614261  0.88022311211121
 6 -4.34675321222122  5.73838224312431 -0.79291006670667
 1 -0.51566913181318  0.34878058365837 -0.26232678597860
 1  3.12356637123712 -1.11562356445645 -1.08394790339034
 1  2.60275152605261 -2.98147285418542 -2.21522395709571
 1  1.20248702800280 -4.14999691729173 -2.88990135663566
 1 -5.58188999519952 -2.12544093319332  2.18946110661066
 1  5.15742605280528  0.01391610811081 -1.16113926692669
 1  5.77584955055505  1.50387469676968 -0.70832213181318
 1 -2.91461955765577 -0.07349285308531 -0.52170507610761
 1  0.44782111381138  1.94112529552955 -0.60130960306031
 1 -1.67108269946995 -4.62233433763376 -0.52752355805581
 1 -2.43123675337534 -3.99417711971197 -2.15322464266427
 1 -0.89285923702370 -4.72428060246025 -2.43263686668667
 1 -2.52241599939994 -3.42949909830983  0.66790403740374
 1  1.21177698439844 -5.17450993349335 -0.50342405990599
 1  2.79033821962196 -5.31651435993599 -1.33629814371437
 1  4.66331075207521 -0.81818786988699  1.01722230843084
 1  5.61744594419442  0.41310574717472  1.79119359005901
 1  4.68553607390739  4.58030849824983 -0.33360334303430
 1  5.50042666546655  3.39587230643064  0.41365788898890
 1  4.24998441584158  4.14694020212021  1.39222052595260
 1  1.87297312931293  5.09881981158116  0.27663745064506
 1 -7.51939471107111 -2.42973896839684  1.29123381738174
 1 -6.84192983728373 -4.12726049194919  1.71885425332533
 1 -6.85693387738774 -3.43852161566157  0.06649823902390
 1 -6.78717605930593 -0.33971430273027  0.39835176307631
 1 -4.87837267906791  1.33284748164816 -0.72102595069507
 1 -6.40781261096110  0.78093572187219 -1.85558223672367
 1 -4.69835833133313 -0.11429458325833 -1.91316252895290
 1 -3.39786966626663  6.25316797259726  1.07953565756576
 1 -4.31490916841684  4.83332246444644  1.33139527732773
 1 -0.22254768946895  6.76802876277628  1.96778951145115
 1 -1.53015439873987  7.25133182868287  0.85996525292529
 1  0.25907509510951  6.92632113261326  0.39003533773377
 1 -3.89996029182918  6.53908979207921 -1.58309612571257
 1 -5.33300512361236  6.16817955895590 -0.55361050275028
 1 -4.58405292639264  4.87652914521452 -1.43518325672567
 1  3.50332563906391 -4.45288951915192  2.09336797379738
 1  7.76497374207421 -2.24444509680968  1.59878004060406

