%nproc=4
%Mem=4GB
# td=(NStates=1) B3LYP/SVP 

TD

0 1
 8 -4.56575669646965 -4.66324640584058  2.03246861046105
 8  3.15165576367637 -4.99681423062306  1.13585151695170
 8  7.14285466686669 -1.37985552665267  1.80400062056206
 8  3.68978071087109 -3.13492261746175 -0.03247038863886
 8  7.57492624462446 -0.66923830313031 -0.19237880718072
 8 -2.99501983078308  2.44193159065907 -0.17180208480848
 7 -0.22645702740274 -0.56562591239124 -0.49903854005401
 7  1.55063274597460  1.79971235003500 -0.28519018111811
 7 -3.54550149314931 -3.13358240504050  0.73749222052205
 7 -0.78378978187819  2.85553597179718 -0.09843486738674
 6  0.66276750915092 -2.44128956725673 -1.26505858895890
 6  0.96182511631163 -1.13651360246025 -0.99226178147815
 6 -0.71875620072007 -2.64312820222022 -1.25394559395940
 6 -1.26039814601460 -1.47480112201220 -0.63824529042904
 6  3.77253519481948  1.42352683798380 -0.41646786318632
 6  2.54684537753775  0.73626495829583 -0.53909546814681
 6  2.18522552685269 -0.53405955175518 -0.88635088008801
 6  3.54621845874587  2.80958896709671 -0.00554132703270
 6  1.61329248174817 -3.47382264806481 -1.98013821482148
 6 -5.68856819201920 -2.59837174677468  1.23970391039104
 6 -3.70072213511351 -1.92481754375438  0.22430621562156
 6  2.16745100530053  2.92831926012601  0.14757728072807
 6 -5.09816601290129 -1.48235373857386  0.33904254315432
 6  5.17712619071907  0.78184785478548 -0.42570562696270
 6 -2.70900186238624 -1.11013778537854 -0.29802021642164
 6 -1.45008294599460 -3.86112061436144 -1.65490873457346
 6 -4.59924739153915 -3.64614312001200  1.42008112271227
 6  2.06787726372637 -4.52148436813681 -0.89140199599960
 6  5.41186106240624 -0.16689275317532  0.78195630173017
 6  4.59169495569557  3.76922815411541  0.51078326212621
 6  1.40542178357836  4.13482789028903  0.31293141264126
 6 -7.09574070467047 -3.13093047284728  0.88973843994399
 6 -5.83195179767977 -0.59773450335034 -0.32156363076308
 6 -0.03127811681168  3.98720339193919  0.15614424002400
 6 -0.93887484918492  5.15718681168117  0.39348397699770
 6 -2.25567089328933  4.70144626742674  0.30549195209521
 6  3.00638347964796 -4.07180379947995  0.17754915391539
 6 -5.33904856565657  0.56527175577558 -1.21839290629063
 6  6.74293685988599 -0.74791307540754  0.67425054765477
 6 -3.53626938623862  5.37323362156216  0.42569338443844
 6 -2.07973140944094  3.29564175547555 -0.08004707990799
 6 -0.57500163766377  6.62207607560756  0.73924901470147
 6 -4.24947348424842  5.58000640554055 -0.92035281098110
 1 -0.33021058595860  0.34880058565857 -0.23142369566957
 1  3.01705572017202 -1.21498350045005 -0.84816432503250
 1  2.59041029192919 -2.82895760266027 -2.25361779647965
 1  0.98243502280228 -3.88033995159516 -2.86855922242224
 1 -5.76650845704571 -1.97193558265827  2.32449460996100
 1  5.15756606680668  0.25136985348535 -1.28442159515952
 1  5.87557952355236  1.72167647694769 -0.53692499209921
 1 -2.99894799049905 -0.08226373017302 -0.29565247084709
 1  0.50454678637864  1.90121130413041 -0.46530600270027
 1 -1.38045363656366 -4.78121022522252 -0.88489929562956
 1 -2.48899252895289 -3.53167086908691 -1.71529084928493
 1 -1.29304925602560 -4.09500767516752 -2.77929153215322
 1 -2.60682444024402 -3.49018516691669  0.91307855485549
 1  1.39111491819182 -5.19184166666667 -0.58627234473447
 1  2.64181336713671 -5.20660336883688 -1.51661617551755
 1  4.78575299629963 -0.87910396149615  0.84364495069507
 1  5.32830703030303  0.45276971357136  1.87486195689569
 1  4.65214273457346  4.45291575897590 -0.34283426612661
 1  5.59393601640164  3.27268998819882  0.75133165636564
 1  4.13734315171517  4.35705121322132  1.34913621752175
 1  1.83437926992699  5.02915284488449  0.68457824472447
 1 -7.70260303190319 -2.21235723022302  0.75239993399340
 1 -7.49564520882088 -3.95972373827383  1.50495286318632
 1 -7.12247043104310 -3.50684844834483 -0.06759517031703
 1 -6.83732107380738 -0.65448577987799 -0.10360843294330
 1 -4.64350919271927  1.24199839673967 -0.70271411951195
 1 -6.15546737643764  1.09211683998400 -1.73866054455446
 1 -4.90316881238124 -0.07862101590159 -2.01408262096210
 1 -3.42356223552355  6.27264992079208  1.07091479547955
 1 -4.14345202270227  4.75781491369137  1.17260939873987
 1  0.05089965526553  6.75368732863286  1.63038577107711
 1 -1.35107649094910  7.21834853035303  0.88227748414841
 1  0.16749593719372  7.21295979647965  0.07465379957996
 1 -3.66235653145315  6.25181106420642 -1.54424224032403
 1 -5.25985780888089  5.98541128212821 -0.69405454715471
 1 -4.33945846694669  4.76642813511351 -1.48439817821782
 1  3.94514982148215 -4.68772300250025  1.76638527552755
 1  8.07598484318432 -1.65988664096410  1.75219538213821

