%nproc=4
%Mem=4GB
# td=(NStates=1) B3LYP/SVP 

TD

0 1
 8 -4.41218133893389 -4.63127320852085  2.11135649924992
 8  2.65020561866187 -4.65843039223922  1.31935986778678
 8  6.85008538993899 -1.48814635573557  2.02831305180518
 8  3.80575230803080 -3.26729585478548 -0.06930407200720
 8  7.65656440844084 -0.70738211751175  0.14303473417342
 8 -3.01239156795680  2.30448784628463 -0.17211211581158
 7 -0.21526590829083 -0.45477482728273 -0.56661529772977
 7  1.56573425612561  1.83227560636064 -0.52451411351135
 7 -3.36836377937794 -3.09796884368437  0.67181565286529
 7 -0.77055845874587  2.89542996119612 -0.04288931283128
 6  0.66837807020702 -2.42664810311031 -1.52258434153415
 6  0.98549748354835 -1.16195614671467 -1.03390594589459
 6 -0.76291061616162 -2.56442033143314 -1.39944014341434
 6 -1.33620572677268 -1.41876551845185 -0.68829029492949
 6  3.77449539083908  1.48294277957796 -0.37844406080608
 6  2.50959165216522  0.80077140894089 -0.62509406800680
 6  2.28200520482048 -0.57343348914892 -0.98058030303030
 6  3.55822965986599  2.76843485168517 -0.01102187508751
 6  1.56784793729373 -3.49480474627463 -2.04517471847185
 6 -5.54304363956396 -2.51835374497450  1.39806974697470
 6 -3.56803886678668 -1.87461252325232  0.06100988598860
 6  2.10364462466247  3.00053648184818 -0.08768624562456
 6 -4.97546374267427 -1.44911041424142  0.41224986388639
 6  5.13079155725573  0.68296796679668 -0.29705276167617
 6 -2.63839480168017 -1.04158092969297 -0.46939735413541
 6 -1.47669560726073 -3.79686418871887 -1.76910015371537
 6 -4.43104057085709 -3.61868037373737  1.39374848944894
 6  2.10767124312431 -4.50972319201920 -1.05891874767477
 6  5.34331420772077 -0.18055411931193  0.82044015011501
 6  4.59735552175218  3.85340657195720  0.24549673347335
 6  1.32695393679368  4.06078048554855  0.25057517701770
 6 -6.86152728332833 -3.08422580238024  1.04945441154115
 6 -5.76768537103710 -0.49764449434944 -0.01858333273327
 6 -0.08341333033303  4.05141981358136  0.16812543814381
 6 -1.00343130483048  5.11400249324933  0.46287091569157
 6 -2.23267859405941  4.61924804760476  0.27243864676468
 6  2.93690653195320 -4.14141076017602  0.07970936993699
 6 -5.34919958075808  0.44122935153515 -1.31723279027903
 6  6.76710927712771 -0.75744402850285  0.88179130173017
 6 -3.66729248854885  5.25723202140214  0.58949976507651
 6 -2.12259569586959  3.17966015731573 -0.08483755895590
 6 -0.50366450395040  6.50061392939294  0.85335042484248
 6 -4.27141567846785  5.53488189308931 -0.73851462716272
 1 -0.36385395029503  0.53280898649865 -0.21068162146215
 1  3.10273428802880 -1.35188719081908 -1.15082459105911
 1  2.29025027592759 -3.07951265816582 -2.46102853755376
 1  1.08733551285129 -4.01395331293129 -2.87856022252225
 1 -5.41117292349235 -2.18243663276328  2.48118027852785
 1  5.26002631283128  0.13008772527253 -1.43399655265527
 1  6.06756872247225  1.46212052135214 -0.37336863646365
 1 -2.76313440914091  0.16325082128213 -0.44601750735073
 1  0.54270060176018  1.94191537453745 -0.52490196229623
 1 -1.61865745694570 -4.60001210541054 -0.87375818151815
 1 -2.41112474217422 -3.67792549454946 -2.13321264146415
 1 -1.02290224132413 -4.48216639103910 -2.67967157015702
 1 -2.45224898269827 -3.46822297069707  0.88713596059606
 1  1.14157996469647 -5.17921040354035 -0.74179789728973
 1  2.78085727152715 -5.32457516601660 -1.61511602550255
 1  4.47699212021202 -0.94803085418542  0.72617320352035
 1  5.09258345794579  0.44075851245125  1.82783725442544
 1  4.47598511881188  4.61815228262826 -0.64521450415042
 1  5.65499212201220  3.38246096529653 -0.02718619541954
 1  4.76743616101610  4.36896240434043  1.22573387728773
 1  1.82517834983498  5.16199612921292  0.24209399629963
 1 -7.79577234883488 -2.34184017851785  1.37112180618062
 1 -7.09568521282128 -3.92938070397040  1.68096046394639
 1 -7.09930811481148 -3.44336209970997 -0.10373878467847
 1 -6.97830517221722 -0.38754908620862  0.30938286618662
 1 -4.79850469226923  1.40441463836384 -1.18960280838084
 1 -6.30527235693569  0.52547017531753 -1.87473415191519
 1 -4.57342583808381 -0.14669782358236 -1.72953416611661
 1 -3.42690256955696  6.41156381218122  1.14126183018302
 1 -4.24127180468047  4.74753388558856  1.18501063886389
 1  0.22887745304530  6.35300726062606  1.61274400690069
 1 -1.34484586788679  6.92982967846785  1.34409366576658
 1 -0.20106091849185  7.06967546804681 -0.09561322712271
 1 -3.73754405020502  6.48473435653565 -1.31166898299830
 1 -5.32523434653465  5.74800754175418 -0.52227736943694
 1 -4.15564008510851  4.63269476177618 -1.42723246164616
 1  3.28119342584258 -4.23854808500850  1.83716235323532
 1  7.82718996369637 -2.01466211851185  1.91258142074207

