%nproc=4
%Mem=2GB
# td=(NStates=1) B3LYP/6-31G(d,p) 

TD

0 1
 6  12.05940028262826  0.48794939543954 -0.94289040794079
 6 -12.10180249434944 -0.05542058365837  0.86072525142514
 6  13.48803821652165 -0.30311997199720 -0.86607260626063
 6 -13.04273077297730  1.07529192069207  1.19932064646465
 6  13.20641295549555 -1.72836850925093 -0.61698345714571
 6 -13.49425402150215  1.97465597769777  0.07077744484448
 6  11.10427222112211 -0.01274701020102  0.11410894869487
 6 -10.98159582738274  0.43174305660566 -0.19593722852285
 6  12.40025446284628 -2.08357065106511  0.66215019131913
 6 -12.17311719431943  2.56068637683768 -0.62021035693569
 6  11.23738344634463 -1.09102115661566  0.95437200560056
 6 -11.03915871007101  1.56561218301830 -0.75267414111411
 6  11.51806239393940  0.49070019511951 -2.36494497309731
 6  12.50658407180718  1.85754981008101 -0.55926744574457
 6 -13.00410800160016 -1.12146926562656  0.04697852775278
 6 -11.55249411741174 -0.65198837243724  2.04287243544354
 6  9.88704676727673  0.83226934053405  0.22797479797980
 6 -9.98708851575157 -0.54558710081008 -0.38315240304030
 6  10.30908508480848 -1.47966777847785  2.08384101900190
 6 -9.91659462966297  2.17419915901590 -1.69588105300530
 6  8.58671491119112  0.37633758995900  0.26219442564256
 6 -8.64907786618662 -0.31371123642364 -0.29954627752775
 6  7.43933250145015  1.30055885618562  0.47743035563556
 6 -7.57802669656966 -1.23815229032903 -0.51971236813681
 6  7.68330137983798  2.75064770197020  0.79810224722472
 6 -7.91755894409441 -2.72260227132713 -0.76202347994799
 6  6.19068296979698  0.68557294629463  0.49017117611761
 6 -6.18749735963596 -0.81205202780278 -0.31891400310031
 6  4.83797444814481  1.35767809970997  0.58765842484248
 6 -5.04536414821482 -1.64645062286229 -0.40425180678068
 6  3.72432114371437  0.62757032223222  0.53396534583458
 6 -3.78547393259326 -1.16032666536654 -0.17792022972297
 6  2.39280258165817  1.22400310801080  0.51450593849385
 6 -2.56829582898290 -1.83883894259426 -0.33742702280228
 6  2.43930830243024  2.78850821732173  0.62304667796780
 6 -2.61053159855986 -3.30864439093909 -0.63378472857286
 6  1.21822337083708  0.56034737633763  0.31849676667667
 6 -1.43886205930593 -1.01484005600560 -0.23874257935794
 6  1.06449082128213 -0.81794674187419  0.02730521082108
 6 -0.11610107050705 -1.48900514031403 -0.20156391239124
 1  14.01066117191719  0.16092852235224  0.08519656255626
 1  14.00104711851185 -0.04245262096210 -1.77418095649565
 1 -12.55756212121212  1.70527291749175  2.03827739253925
 1 -13.88586944454446  0.83825331763176  1.83699013711371
 1  14.11963258525853 -2.31523234093409 -0.70252369816982
 1  12.68878476017602 -2.33450735073507 -1.55301142444244
 1 -14.10036342454245  2.74059741974197  0.44760579817982
 1 -14.13566835063506  1.39862953715372 -0.41227524962496
 1  13.15831779557956 -1.83126563316332  1.46389827182718
 1  12.11811926642664 -3.21696538863886  0.85967282288229
 1 -11.88746853895389  3.67472519321932 -0.16170965396540
 1 -12.56708292219222  2.72802631043104 -1.67660156135614
 1  11.54493786428643 -0.58814189148915 -2.70990912361236
 1  12.13392027272727  1.03285794709471 -2.84746132013201
 1  10.52162973427343  1.00064317601760 -2.37766848634864
 1  12.71279223332333  1.93400030193019  0.58968630913091
 1  11.67904631153115  2.54205411631163 -0.78695285228523
 1  13.29902175847585  2.24686495639564 -0.96166843794379
 1 -13.22494172487249 -0.47877188618862 -0.80470657135714
 1 -13.87884005660566 -1.53938974317432  0.72329955065507
 1 -12.41486909010901 -1.94015242014201 -0.48312419491949
 1 -10.90955344624462 -0.13900954035404  2.68030768986899
 1 -10.76707323272327 -1.37228822952295  1.68571258745875
 1 -12.24014807880788 -1.14663913181318  2.83506203430343
 1  9.91712511911191  1.93428828892889  0.26201210911091
 1 -10.21666611131113 -1.67709281928193 -0.59006538453845
 1  9.60654473197320 -0.79932752745274  2.48350210781078
 1  11.09549036313631 -1.86743294119412  2.97422885288529
 1  9.77107917511751 -2.31042089208921  1.80496011761176
 1 -9.34104113941394  1.34393670627063 -2.05659815671567
 1 -9.44989979487949  3.04092761476148 -1.24683472967297
 1 -10.48649891489149  2.47265227062706 -2.69152912621262
 1  8.09807539833983 -0.72187296749675  0.19287233683368
 1 -8.19976337153715  0.67886208030803 -0.06078973147315
 1  8.22918615071507  2.85590062596260  1.60726010851085
 1  6.52058393909391  3.08391609580958  0.90661324102410
 1  8.00407464516452  3.22106076807681 -0.17679090199020
 1 -8.69860081228123 -3.23163022212221 -1.46656334993499
 1 -8.27690867916792 -3.20320350765076  0.30574671397140
 1 -7.00208476107611 -3.17034968626863 -0.76801568676868
 1  6.35321618611861 -0.42038726552655  0.21567955125513
 1 -6.16712869746975  0.40037197569757  0.02008173137314
 1  4.94311766906691  2.49485792989299  0.47555046184618
 1 -5.16671677197720 -2.69310282668267 -0.66523866496650
 1  3.82382264896490 -0.26000056995700  0.34867450585059
 1 -3.69213684488449 -0.03898756885689 -0.08085995269527
 1  2.99972067146715  3.13432382848285  1.53167182248225
 1  1.30525772657266  3.39425015681568  0.87641736923692
 1  2.67605466426643  3.28219869336934 -0.24702867246725
 1 -3.01000286988699 -3.58874723062306 -1.54436944774477
 1 -3.20618222402240 -3.83248524142414  0.22919757115712
 1 -1.59438040934093 -3.74013434783478 -0.37196942334233
 1  0.34153655445545  1.23073898909891  0.24257490269027
 1 -1.80113120172017 -0.08823083588359  0.13048532243224
 1  1.99641818631863 -1.24738378807881 -0.36501606580658
 1  0.14327483828383 -2.42024706700670 -0.62066292719272

