%nproc=4
%Mem=2GB
# td=(NStates=1) B3LYP/6-31G(d,p) 

TD

0 1
 6  12.17908225082508  0.44311491199120 -0.74247036593659
 6 -12.09627194129413 -0.07527256885689  0.89226840574057
 6  13.37412682538254 -0.46183584358436 -0.75166116511651
 6 -12.97370387028703  1.12234662616262  1.32682339673967
 6  12.94167648184819 -1.89449512191219 -0.65589734853485
 6 -13.31513610971097  2.00536904900490  0.17097746484648
 6  11.07765955985599  0.04096836133613  0.24458199599960
 6 -10.97107477527753  0.39058894119412 -0.14551218601860
 6  12.24490892829283 -2.22490478447845  0.66396037233723
 6 -12.11326120872087  2.53996430463046 -0.48562689858986
 6  11.12804251225123 -1.19874192869287  0.89380594899490
 6 -11.08493328752875  1.53387900970097 -0.87839671337134
 6  11.52380296799680  0.58828995409541 -2.14063254185419
 6  12.55297871127113  1.89100315541554 -0.36770828982898
 6 -13.01366895769577 -1.13600071877188  0.24761859175918
 6 -11.48630749874988 -0.58897207080708  2.15899404760476
 6  9.84382244484449  0.85458157175718  0.35962796329633
 6 -9.93150295719572 -0.67546008810881 -0.23675776357636
 6  10.10573474977498 -1.70474028572857  1.93087572247225
 6 -10.16091906210621  2.02569430853085 -1.92274373927393
 6  8.53688992869287  0.47824778097810  0.37323552975298
 6 -8.54770772917292 -0.36456632193219 -0.29803612651265
 6  7.40338890709071  1.38590739103910  0.52772538513851
 6 -7.50507940184018 -1.31537001210121 -0.31712210911091
 6  7.67085013471347  2.80582321952195  0.81307374437444
 6 -7.87935512371237 -2.69015902700270 -0.67929520712071
 6  6.21014491599160  0.81818620762076  0.43826598559856
 6 -6.24750336023602 -0.87044786738674 -0.31129324102410
 6  4.83665431613161  1.40598293019302  0.41510116911691
 6 -5.00221983378338 -1.60491646944694 -0.50524190579058
 6  3.64088279987999  0.81201876707671  0.18642059135914
 6 -3.71264664986499 -1.09621025372537 -0.24998743644364
 6  2.38499180058006  1.37881858955896  0.27142163006301
 6 -2.47516651605161 -1.81308636733673 -0.50851413151315
 6  2.29283365496550  2.83609297579758  0.38107248054805
 6 -2.37301784718472 -3.40119364586459 -0.72985433553355
 6  1.20485203370337  0.62899424102410  0.13305822282228
 6 -1.31272944604460 -1.03847241924192 -0.30248895399540
 6  1.08518289048905 -0.75654060126013 -0.01682920262026
 6  0.07540808040804 -1.49852609240924 -0.27052080808081
 1  14.21600170597060 -0.10246781728173 -0.01865382248225
 1  13.97978499229923 -0.05631400710071 -1.60654419281928
 1 -12.57200356535654  1.73917630783078  1.99245281008101
 1 -13.74358521612161  0.62230172247225  2.01198763686369
 1  13.73605422742274 -2.55934675237524 -0.82678612441244
 1  12.30769665136514 -2.21492539253925 -1.45172129542954
 1 -14.08435182338234  2.95179853985398  0.18719975757576
 1 -13.78829361316132  1.35422509670967 -0.43092711481148
 1  13.08252021582158 -2.19109161576158  1.42538442044204
 1  11.91241869636964 -3.29827351945194  0.76696355195520
 1 -11.72531232333233  3.37772549324932  0.19742625962596
 1 -12.39466568046805  3.11465497329733 -1.56241014221422
 1  11.26530990149015 -0.41383446074608 -2.39842797549755
 1  12.22750963166317  0.95177983928393 -2.80132670667067
 1  10.46864443574357  0.99160227192719 -2.03975469496950
 1  13.03202415651565  1.93716061796180  0.78194553505350
 1  11.57347575447545  2.61483139403940 -0.26812096909691
 1  13.45394725102510  2.31611188108811 -0.92632490359036
 1 -13.58994822552255 -0.73633764276428 -0.48661476217622
 1 -13.61256342894290 -1.55212101630163  1.11445866656666
 1 -12.60343794699470 -2.02421082598260 -0.18447432993299
 1 -11.16509900080008  0.40519488008801  2.74408406750675
 1 -10.92036856225623 -1.43366436713671  1.98443245944594
 1 -12.36726079007901 -0.91077554545455  2.51778030613061
 1  9.97031043764376  2.01971683178318  0.48897480538054
 1 -10.15383982868287 -1.74680979097910 -0.11786816481648
 1  9.53958803630363 -0.77409500420042  2.35554931253125
 1  10.64591540564056 -2.18806500440044  2.72880431043104
 1  9.45223729092909 -2.24885473547355  1.43613323492349
 1 -9.36903393869387  1.21235354795480 -2.12377487438744
 1 -9.65965076997700  2.96373989598960 -1.64473451965196
 1 -10.48078834383438  2.32588759415942 -2.85495546884688
 1  8.50133572437244 -0.51843262346235  0.00922397199720
 1 -8.16576997219722  0.62402659675968 -0.07282093459346
 1  8.10661389348935  3.01241627752775  1.81378076057606
 1  6.75259714041404  3.40291799599960  1.02169474917492
 1  8.16717095479548  3.44737339933993  0.01436821392139
 1 -8.57693864606461 -2.71027808690869 -1.67873456705671
 1 -8.36670765906591 -3.30968415571557  0.28768490779078
 1 -6.81351590419042 -3.13036568786879 -1.06181506670667
 1  6.21694255875587 -0.36684191099110  0.20892887618762
 1 -6.10570255485549  0.10584252275227 -0.03726400320032
 1  4.76255961326133  2.57307575167517  0.45355826262626
 1 -4.86462656295630 -2.68937245364536 -0.86668880998100
 1  3.73847411411141 -0.31161573147315  0.11217085548555
 1 -3.63492112331233 -0.09578324842484  0.04086221952195
 1  2.65209590899090  3.04835523162316  1.42925158045805
 1  1.42302950375038  3.58953968576858  0.48412814031403
 1  3.04439149794979  3.46373684718472 -0.44975894549455
 1 -2.89031090069007 -3.67319567546755 -1.74371938273827
 1 -2.85582718851885 -3.92955494839484  0.09657430883088
 1 -1.35013598489849 -3.66802713711371 -0.82688491489149
 1  0.27137953875388  1.35736165136514  0.23224386958696
 1 -1.57241833043304  0.04186217341734  0.16467874177418
 1  1.97200574507451 -1.26182523222322 -0.02623218741874
 1  0.11355186598660 -2.65279032133213 -0.42284314521452

