%nproc=4
%Mem=2GB
# td=(NStates=1) B3LYP/6-31G(d,p) 

TD

0 1
 6  12.13472781538154  0.46988758925893 -0.59397551645165
 6 -12.07584989908991 -0.08801384298430  0.91302048094809
 6  13.39995940864086 -0.43235289528953 -0.52781878087809
 6 -13.02774927482748  1.04135852735274  1.34784549894990
 6  13.09937225142514 -1.94521019341934 -0.58011977077708
 6 -13.46959155525552  1.94714322642264  0.13667403450345
 6  11.00953274717472 -0.07970370587059  0.24856239403940
 6 -11.07296496429643  0.41213109540954 -0.04159179397940
 6  12.30537497489749 -2.30412270627063  0.57585156145615
 6 -12.28654853745375  2.56862717091709 -0.53420175607561
 6  11.12872258025803 -1.31501355585559  0.87240380878088
 6 -11.05625041924192  1.56582220402040 -0.70869974367437
 6  11.63818440614062  0.58240936603660 -2.09104758335834
 6  12.70215362876288  1.91963601870187 -0.10556207520752
 6 -12.80933852465247 -1.25306242494249  0.16833066296630
 6 -11.53274214221422 -0.75484865846585  2.22035018321832
 6  9.85746380898090  0.86845295889589  0.57931993249325
 6 -9.90673047994799 -0.63026556865687 -0.19010309810981
 6  10.16494067036704 -2.01047085878588  1.84838747364736
 6 -10.11193416361636  1.96525826492649 -1.82110357525753
 6  8.53428966866687  0.55383533973397  0.44846305250525
 6 -8.63745670407041 -0.24780464576458 -0.24972129502950
 6  7.41918048624863  1.40504930523052  0.48187079967997
 6 -7.54182307620762 -1.21733020812081 -0.32491288818882
 6  7.63129617931793  2.93011564876488  0.83151558855886
 6 -7.96609379757976 -2.72409242034203 -0.58731600920092
 6  6.22362626412641  0.83853824282428  0.21304346334633
 6 -6.23137174707471 -0.77425824842484 -0.21149326102610
 6  4.89640029072907  1.49843217511751  0.20844050305031
 6 -4.93845345714572 -1.60796677447745 -0.33488487008701
 6  3.73126183778378  0.80116768196820  0.06495844514451
 6 -3.74476986218622 -1.04634526722672 -0.45130756845685
 6  2.37045034643464  1.41713242094209  0.01858634653465
 6 -2.49798879827983 -1.72683774247425 -0.38378165826583
 6  2.23963833543354  2.93375274177418  0.22344671797180
 6 -2.44619516491649 -3.18697222372237 -0.48701005110511
 6  1.19962151065107  0.67684902650265 -0.10104518751875
 6 -1.33802197529753 -1.01376994899490 -0.36662536763676
 6  1.10678505070507 -0.78238318551855 -0.26738425812581
 6  0.01736227582758 -1.53336957675768 -0.41440519651965
 1  13.75974608040804 -0.21444901540154  0.55978402130213
 1  14.11646866066607  0.14482610691069 -1.04962850125012
 1 -12.48801516651665  1.72874526472647  2.02460602540254
 1 -13.97448830643065  0.56184567686769  2.10143658175818
 1  14.04794541654165 -2.58350916861686 -0.66656010181018
 1  12.51596747844784 -2.01772567256726 -1.52712883618362
 1 -14.26771015921592  2.68088144814481  0.67486852445244
 1 -13.81407619141914  1.28430810501050 -0.82892691479148
 1  12.92891485528553 -2.34087659425943  1.48945082708271
 1  11.85579303380338 -3.36866055815582  0.44165102070207
 1 -12.04125391749175  3.40487820852085  0.04937145414541
 1 -12.45624183808381  3.07330083788379 -1.54084798599860
 1  11.14993836433643 -0.40099317661766 -2.46315444814481
 1  12.51946882758276  0.93121778307831 -2.69946652065206
 1  10.77584515581558  1.26021913361336 -2.24089480898090
 1  12.78300925502550  1.90830773267327  0.91499884038404
 1  11.97996640354035  2.67994790569057 -0.59420357735774
 1  13.69009086538654  2.25853612351235 -0.58390066116612
 1 -13.05526475717572 -0.94758876787679 -0.80421652235224
 1 -13.59637180978098 -1.72049785398540  0.71782900360036
 1 -12.12019962316232 -2.13196160106011 -0.11714759725973
 1 -10.92839533043304 -0.05724136353635  2.52263192229223
 1 -11.19446597199720 -1.70936193689369  1.86408042424242
 1 -12.36004006800680 -1.10270473837384  2.98453698179818
 1  10.27418082468247  1.81556641674167  0.75127103500350
 1 -10.07114155885589 -1.62523763376338 -0.43761013901390
 1  9.59519359685969 -1.21539913461346  2.09604336193619
 1  10.46273708780878 -2.02144834273427  2.87720915091509
 1  9.49176124332433 -2.80368021802180  1.48410803240324
 1 -9.54120115541554  1.13741605420542 -2.23405590249025
 1 -9.38259306420642  2.61855537753775 -1.52506255245525
 1 -10.77914817981798  2.39329433483348 -2.59735970927093
 1  8.51492708350835 -0.52433321352135  0.19268231783178
 1 -8.29230262546255  0.83037723182318 -0.00579423192319
 1  8.28132136423642  3.16613164906491  1.68112749524952
 1  6.84437631833183  3.40910861506151  0.67886046574657
 1  8.12591682938294  3.32624128612861 -0.09630285318532
 1 -8.85483643584358 -2.53750080918092 -1.46256294989499
 1 -8.37904889318932 -3.27102028932893  0.34637077637764
 1 -6.91306585918592 -3.08792144344434 -0.77628651385139
 1  6.19780064456446 -0.12906813361336 -0.08988100480048
 1 -6.02558454305430  0.28349028752875 -0.14020429722972
 1  4.86320967826783  2.55567401150115  0.49934284108411
 1 -4.93875397569757 -2.62974649104910 -0.36911905300530
 1  3.80274054075408 -0.12655722562256 -0.40327068866887
 1 -3.55928355955596  0.08976530643064 -0.53213508020802
 1  2.90987168656866  3.17940833693369  1.09823847914791
 1  1.22884008480848  3.31869260106011  0.30645037253725
 1  2.66270332913291  3.52748322182218 -0.42727669726973
 1 -3.01721359095910 -3.72982133803380 -1.38289330013001
 1 -2.89887149294929 -3.68263025592559  0.42354700610061
 1 -1.56104707600760 -3.74288462286229 -0.55139736613661
 1  0.18506090689069  1.20173608880888 -0.38860821562156
 1 -1.31208229682968  0.24985297249725 -0.26285401150115
 1  2.01148969346935 -1.14254330403040 -0.45091465566557
 1  0.03125363616362 -2.52937798009801 -0.39402026292629

