%nproc=4
%Mem=2GB
# td=(NStates=1) B3LYP/6-31G(d,p) 

TD

0 1
 6  12.04309865246525  0.54062466296630 -0.63167928682868
 6 -11.95393770787079  0.01638659705971  1.13657283618362
 6  13.34952436513652 -0.35035469546955 -0.45742174117412
 6 -12.78031453135314  1.18784317581758  1.55449616401640
 6  13.08266058025803 -1.82763843624362 -0.32424418321832
 6 -13.27130172627263  2.07644615671567  0.44132449954996
 6  10.91958375227523  0.07452171667167  0.49545708350835
 6 -10.83288095589559  0.54302418471847  0.12048441364136
 6  12.37480191759176 -1.99343163716372  0.98306228252825
 6 -12.01365124772477  2.65825613381338 -0.27887622352235
 6  11.06509621762176 -1.11041309580958  1.17398396679668
 6 -10.93651844604460  1.67883350515052 -0.58062693639364
 6  11.51813240094009  0.41794291939194 -2.11889036763676
 6  12.45746916031603  1.99929398449845 -0.37172869186919
 6 -12.83802139293929 -0.97999511821182  0.35618944884488
 6 -11.28105697369737 -0.66745991959196  2.27917606580658
 6  9.72054011661166  0.83945005860586  0.42028402890289
 6 -9.88732853975397 -0.52174471657166 -0.19836392419242
 6  10.22973715001500 -1.53143295499550  2.24019665456546
 6 -10.01386435663566  2.12244398349835 -1.78423988888889
 6  8.48631487118712  0.44635459165917  0.31826003220322
 6 -8.51949490789079 -0.32515238053805 -0.31555787868787
 6  7.28156672487249  1.31838063836384  0.51538415101510
 6 -7.52211110501050 -1.35275375047505 -0.51833223012301
 6  7.52246529622962  2.77214985218522  0.63690612761276
 6 -7.97957514571457 -2.79291930303030 -0.90231750935093
 6  6.04628853035303  0.77454184318432  0.26137829682968
 6 -6.20269887978798 -0.98327915051505 -0.51774388608861
 6  4.84246489718972  1.48308063996400  0.23277293629363
 6 -4.97101671347135 -1.79374535233523 -0.56878826042604
 6  3.65554426602660  0.83349091429143  0.01052300160016
 6 -3.75560094529453 -1.23636426912691 -0.61239367706771
 6  2.32234553595360  1.27480818851885  0.04300878877888
 6 -2.52386138553855 -1.91247630633063 -0.65929921002100
 6  2.12993736533653  2.83678304480448  0.18807318061806
 6 -2.49739028442844 -3.36826035253525 -0.96524787488749
 6  1.15395694419442  0.51305264686469 -0.18890397339734
 6 -1.36981515461546 -1.21899047104710 -0.53885259035904
 6  1.11520589278928 -0.92307725492549 -0.33278079777978
 6 -0.01236069646965 -1.75236147594759 -0.53474723072307
 1  13.80229033483348  0.21439386888689  0.39442748564856
 1  13.96417343114311 -0.27622599829983 -1.44920845924592
 1 -12.12304866986699  1.72191458165817  2.29831339613961
 1 -13.50707156475648  0.88422791509151  2.25126156425643
 1  14.01634225622562 -2.39270008770877 -0.51141458725873
 1  12.40388627032703 -2.14579847984798 -0.96334245754575
 1 -13.81392478067807  2.99004236423642  0.98128916651665
 1 -14.00929571337134  1.48394806900690 -0.28434245634563
 1  12.92598456225623 -1.93165567216722  1.86936881888189
 1  12.03791124562456 -3.05872956505651  0.90864772037204
 1 -11.57906769886989  3.36347406810681  0.32722923992399
 1 -12.25364157805781  3.32659616741674 -1.24060796199620
 1  11.43108647914791 -0.57226030333033 -2.39216734943494
 1  12.30564744544455  0.74082874417442 -2.85972254625463
 1  10.52217978927893  0.91743485518552 -2.39926064556456
 1  12.67733868796880  2.28830573247325  0.68485582608261
 1  11.54563297019702  2.56733664456446 -0.65061921892189
 1  13.29194105040504  2.22124239413941 -0.76924919601960
 1 -13.29400863156316 -0.40624463346335 -0.36528262896290
 1 -13.89038121072107 -1.14974077827783  0.91309853055306
 1 -12.51657926112611 -1.87703610851085  0.01854597209721
 1 -10.53539603050305 -0.21021666106611  2.83984364346435
 1 -10.66198272367237 -1.51342234293429  1.86702071827183
 1 -12.13547761176118 -1.20535500340034  2.86759528762876
 1  10.25117852445245  1.92032689278928  0.29320522842284
 1 -10.05535998069807 -1.62623773377338 -0.03139951795179
 1  9.54517859535954 -0.78863645834583  2.65744950255025
 1  10.79992080618062 -1.72361855975598  3.14651608160816
 1  9.64615668286829 -2.47590744074407  2.09066868846885
 1 -9.29521655695570  1.29023133573357 -1.94410690759076
 1 -9.16196100100010  2.95516903890389 -1.61346139233923
 1 -10.39377964296430  2.44000900630063 -2.72658263156316
 1  8.46576216701670 -0.73659443964396  0.31675472507251
 1 -8.17817121232123  0.69515370947095 -0.18093174567457
 1  8.26605983808381  3.06904194009401  1.30058944144414
 1  6.66350823152315  3.26808451265127  0.94988756845685
 1  7.67074131183118  3.13090175217522 -0.65288851175118
 1 -8.58812976517652 -2.83503056215622 -1.50502719631963
 1 -8.32373336163616 -3.46285947324733  0.03347948724872
 1 -7.03774832743274 -3.41925457675768 -1.19393827902790
 1  5.73564442894289 -0.34922014881488  0.14205218851885
 1 -5.84661664626463 -0.16483454495450 -0.31441171797180
 1  4.74856821412141  2.52760120422042  0.14665757255726
 1 -4.93939403970397 -2.87643115951595 -0.83567570867087
 1  3.81235150185019 -0.38133270317032 -0.08310867246725
 1 -3.70413804500450 -0.19105277537754 -0.39524139083908
 1  2.52321302070207  3.29449984608461  1.14130278557856
 1  1.12334953575358  3.05927665946595  0.19109883738374
 1  2.66655371417142  3.37592806630663 -0.61338530813081
 1 -3.35097696729673 -3.66020437633763 -1.70981599239924
 1 -2.79743134893489 -3.96016800970097 -0.03595894449445
 1 -1.47328830013001 -3.86636697109711 -1.38933115951595
 1  0.13926632743274  0.78814472967297 -0.52411176597660
 1 -1.45700678927893 -0.12005401820182 -0.33726145224523
 1  1.90537908240824 -1.50749979967997 -0.41755131933193
 1  0.08153866466647 -2.75450049234923 -0.95986684758476

