%nproc=4
%Mem=2GB
# td=(NStates=1) B3LYP/6-31G(d,p) 

TD

0 1
 6  12.19870421302130  0.44487508800880 -0.73450956985699
 6 -12.08111042514251 -0.18104314591459  0.90809998889889
 6  13.42785219791979 -0.47110677067707 -0.56783278227823
 6 -13.04491099099910  0.96646103760376  1.27339805420542
 6  13.05946826102610 -1.89261493389339 -0.44370612941294
 6 -13.41431602770277  1.99026753885389  0.23551391849185
 6  11.03036483038304 -0.02922865836584  0.27335487328733
 6 -11.01466913471347  0.41657153945395 -0.07567520232023
 6  12.29759419681968 -2.19885217921792  0.80767474377438
 6 -12.19117900050005  2.60204051225123 -0.30805914181418
 6  11.16143585158516 -1.17573962846285  1.02606917531753
 6 -11.01795658985898  1.63402902470247 -0.70467934163416
 6  11.52738332603260  0.27122824792479 -2.14663314191419
 6  12.55208862226223  1.84940899599960 -0.50766228522852
 6 -12.92141973277328 -1.27448456715672  0.15280911081108
 6 -11.54665353335334 -0.75488866246625  2.18370651885189
 6  9.84703276587659  0.84820093369337  0.53712571307131
 6 -9.84205401230123 -0.58189073117312 -0.24173826162616
 6  10.20549472577258 -1.59691950365036  2.10787342224222
 6 -9.92875584578458  2.15693743284328 -1.61945341024102
 6  8.59260550025003  0.47982793899390  0.39513771997200
 6 -8.55145810421042 -0.37861772707271 -0.20891721462146
 6  7.38727729592959  1.32111091139114  0.46977959055906
 6 -7.51287018091809 -1.35537401250125 -0.56779717661766
 6  7.71711476117612  2.85933857105711  0.46188862586259
 6 -7.88662585078508 -2.69010902200220 -0.69794707230723
 6  6.12632653415342  0.76456084508451  0.36048820782078
 6 -6.19700831073107 -0.83712453505351 -0.54278639033903
 6  4.88437908860886  1.54860719261926  0.33386304530453
 6 -5.01243085488549 -1.64572054985499 -0.55079646124612
 6  3.68394710631063  0.83847141234123  0.20962291159116
 6 -3.74261964716472 -1.07807844054405 -0.34680711841184
 6  2.39892319371937  1.45810651835184  0.13012750065007
 6 -2.51454045344534 -1.71685674437444 -0.56785006510651
 6  2.20215458705871  2.94732409890989  0.51160553385339
 6 -2.52109265466547 -3.15389891639164 -0.66191754185419
 6  1.23389493799380  0.63642498409841 -0.02515759875988
 6 -1.35400357345735 -0.95679425142514 -0.35276398149815
 6  1.09567393959396 -0.80583553075308 -0.16834435413541
 6 -0.00279974037404 -1.44212045184518 -0.42188594459446
 1  13.83747385318532  0.17913034253425  0.22781082398240
 1  13.87259427322732 -0.44881325702570 -1.79196273467347
 1 -12.74162052705270  1.49248163836384  2.16397996279628
 1 -14.04936579417942  0.60923041534153  1.83898033613361
 1  13.92770339233923 -2.51311212891289 -0.70956440224022
 1  12.42522840454046 -2.25519941994199 -1.32865898919892
 1 -14.12690607880788  2.81288464846485  0.54347538513851
 1 -13.86032081588159  1.47191686588659 -0.63136715881588
 1  12.94082604640464 -1.89706221282128  1.63829571157116
 1  12.05779323382338 -3.27167085918592  1.00851770737074
 1 -11.86592638473847  3.49404712541254  0.46784330133013
 1 -12.70499671357136  3.27481098889889 -1.07818171937194
 1  11.10436380688069 -0.79655273257326 -2.22639077177718
 1  12.24332121282128  0.64427908920892 -2.87055362936294
 1  10.59757732903290  0.88006111781178 -2.47117783728373
 1  12.93992494659466  2.12157905980598  0.33416075657566
 1  11.78709711661166  2.56046595749575 -0.83813797079708
 1  13.27722957925793  2.10352062196220 -1.21448371947195
 1 -13.60425965666567 -1.10534454345435 -0.70712681338134
 1 -13.60798297089709 -1.83487929212921  0.87766498719872
 1 -12.14793239643964 -2.04340274517452 -0.23626950945094
 1 -10.75619811071107 -0.25975161456146  2.83222288138814
 1 -11.16489301470147 -1.73573457415742  1.95938995519552
 1 -12.47502156615661 -0.95170963886389  2.96587511561156
 1  10.23130653725373  1.77853271337134  0.62592850075007
 1 -10.11877632233223 -1.63777888788879 -0.59213559155916
 1  9.63109718721872 -0.72475006970697  2.54669842744274
 1  10.62071288538854 -2.18133433133313  2.87710914091409
 1  9.51984405160516 -2.37230708070807  1.56654627622762
 1 -9.49436647194719  1.41296360896090 -1.78516101300130
 1 -9.27747255215522  2.81093461546155 -1.16474652085209
 1 -10.35174543954396  2.55939094449445 -2.50280025332533
 1  8.52774836563656 -0.68866964716472  0.29354240384038
 1 -7.92201559675968  0.63499769386939  0.15411175867587
 1  8.35983921602160  3.10828586448645  1.40188957145715
 1  6.85847772847285  3.63831153535354  0.50969354905491
 1  8.26611084878488  3.27415607760776 -0.37470069296930
 1 -8.47799875207521 -2.63159021812181 -1.77314400800080
 1 -8.39647063536354 -3.15530871817182  0.20799693899390
 1 -7.06269082168217 -3.21167381868187 -0.69240812601260
 1  5.99408027252725 -0.32943817061706  0.11397938123812
 1 -6.01499348394839  0.23013495199520 -0.19962023882388
 1  4.81310466776678  2.58125656975698  0.40901380818082
 1 -5.02413251355136 -2.80626414281428 -0.53786592769277
 1  3.59119938663866 -0.32269683958396  0.10427006540654
 1 -3.52908053925393  0.15201153105311 -0.24446631333133
 1  2.68957965736574  3.26633702980298  1.46098475377538
 1  1.12914011481148  3.24473520532053  0.62129185668567
 1  2.61141820062006  3.63256372987299 -0.36672064166417
 1 -3.00841271087109 -3.27595595149515 -1.66617162796280
 1 -3.15598720452045 -3.61663365626563  0.07189184058406
 1 -1.56960793209321 -3.85347568196820 -0.70070229662966
 1  0.10017241804180  1.02649856505651 -0.04272362716272
 1 -1.46247733633363  0.12144013121312 -0.02537026312631
 1  1.90261880638064 -1.50628967866787 -0.48845841004100
 1  0.03152366316632 -2.58337337963796 -0.60183104400440

