%nproc=4
%Mem=2GB
# td=(NStates=1) B3LYP/6-31G(d,p) 

TD

0 1
 6  12.01111545414541  0.54676527702770 -0.78909502840284
 6 -12.02804511861186  0.01111607000700  0.92638181708171
 6  13.41875128782878 -0.26921658165817 -0.69327532653265
 6 -12.92556905680568  1.13555794729473  1.48647936233623
 6  13.22518483268327 -1.82115778817882 -0.38863062186219
 6 -13.36185078117812  2.02960147224722  0.36541690879088
 6  11.02476427032703  0.05203946844684  0.33433097089709
 6 -10.93339100690069  0.50153003530353 -0.11409904470447
 6  12.34428886628663 -1.99130142414241  0.92139611591159
 6 -12.09193907650765  2.72208251645164 -0.29117745364536
 6  11.16757646564657 -1.11782383688369  0.92895946434643
 6 -11.06959175337534  1.62987860966097 -0.74094296799680
 6  11.55025561326133  0.29422054715472 -2.26625510411041
 6  12.32574598799880  2.00860491559156 -0.54938645764576
 6 -12.90931852265227 -1.06693381208121  0.15224905480548
 6 -11.38716758475848 -0.75196837043704  2.08432658085809
 6  9.84260232283228  0.88031414501450  0.50826282678268
 6 -9.91384119101910 -0.48610115221522 -0.36030011781178
 6  10.13185736203620 -1.58095790749075  1.99869250415042
 6 -9.97876084628463  2.26281802090209 -1.72199366426643
 6  8.59721596129613  0.46452640884088  0.41642984918492
 6 -8.51657461586159 -0.26670653595360 -0.46647297019702
 6  7.38462703090309  1.39968876917692  0.35042765536554
 6 -7.46929582348235 -1.28489696479648 -0.72503290019002
 6  7.73153620332033  2.90707334453445  0.41171360836084
 6 -7.81136832503250 -2.76822683378338 -1.04230150775078
 6  6.18781268276828  0.74881927092709  0.23787594659466
 6 -6.23263187308731 -0.90196101870187 -0.42925503720372
 6  4.83849450015002  1.35999833173317  0.34967462646265
 6 -5.07925753755376 -1.69672565036504 -0.50698207980798
 6  3.69109782138214  0.71461902710271  0.20649259855986
 6 -3.81267665286529 -1.26043667636764 -0.31686412411241
 6  2.34550785218522  1.21020172787279  0.27254174207421
 6 -2.59688868826883 -1.91201626032603 -0.35454873497350
 6  2.17604197579758  2.65802516901690  0.67630200350035
 6 -2.55551609700970 -3.43810733723372 -0.61470282038204
 6  1.24628617711771  0.44146548814881  0.13431834883488
 6 -1.43979215231523 -1.18436700870087 -0.15894459955996
 6  1.08993336553655 -0.91797674487449 -0.09130665036504
 6 -0.06076553695370 -1.62501874167417 -0.17324108010801
 1  13.88562866866687  0.22861529102910  0.18306634953495
 1  13.87987500130013  0.14863648794879 -1.50983452185219
 1 -12.40529689468947  1.74683707390739  2.03060662546255
 1 -13.77928878647865  0.74224371667167  1.82870930903090
 1  14.12922354435444 -2.35030584828483 -0.24082752855286
 1  12.65181106280628 -2.20670457045705 -1.24078020132013
 1 -14.02641602980298  2.92909626962696  0.63009404700470
 1 -13.85294007780778  1.54497417161716 -0.40407442954295
 1  12.66598856265627 -1.55302780938094  2.07575945794579
 1  12.33702115661566 -3.24744843694369  1.11927878347835
 1 -11.44271406350635  3.38404612531253  0.48076459345935
 1 -12.53591980588059  3.18461196899690 -1.19057295849585
 1  11.34313768426843 -0.62458553585359 -2.61483961666167
 1  11.99200608130813  0.98189285058506 -3.02265883988399
 1  10.24633220452045  0.53776688838884 -2.31406212571257
 1  12.67113806790679  2.20666756865687  0.39078641914191
 1  11.31216962386239  2.76188609950995 -0.90460461746175
 1  13.17575943224322  2.38548881878188 -1.10111238233823
 1 -13.40399963066307 -0.78583259225923 -0.61930803150315
 1 -13.64610678327833 -1.46765256945694  0.73157037773777
 1 -12.25737334053406 -1.80108851375138  0.07778189568957
 1 -10.48491098199820 -0.08387402680268  2.37469712881288
 1 -10.85863238863886 -1.52220322102210  1.68657267346735
 1 -12.04802886688669 -0.98786325422542  2.92244077217722
 1  10.15306871347135  1.83177803790379  0.64924083198320
 1 -10.21604604930493 -1.65270038003800 -0.44386076407641
 1  9.39869394689469 -0.77591518621862  2.22454621222122
 1  10.78443925802580 -1.88919511741174  2.96625805580558
 1  9.64786685388539 -2.56242609260926  1.74073369496950
 1 -9.57288432373237  1.31111342394239 -2.02266476337634
 1 -9.09086389128913  2.75804932693269 -0.99173922012201
 1 -10.61136140114012  3.06060106550655 -2.33636360966097
 1  8.58674426522652 -0.68005878607861 -0.11409836023602
 1 -8.29122251745174  0.90983517761776 -0.24411806430643
 1  8.09645287738774  3.21114615051505  1.42129151165117
 1  6.72205408610861  3.64330203440344  0.39138171787179
 1  8.59485372307231  3.43689235123512 -0.40229345224522
 1 -8.30540149234923 -2.79606666576658 -1.96991368496850
 1 -8.55245623392339 -3.13224641194119 -0.33937779847985
 1 -6.84113866646665 -3.22686533783378 -1.07639652485249
 1  6.30329119361936 -0.36140136693669  0.13724170747075
 1 -5.88914089868987  0.19137107560756 -0.16518679547955
 1  4.76684004130413  2.63958240234023  0.38449135593559
 1 -5.02687278757876 -2.83956747314731 -0.80557269836984
 1  3.73627389408941 -0.44119868976898  0.22190182858286
 1 -3.69211684288429 -0.08849251935194 -0.26909877657766
 1  2.66237693709371  2.99173957005701  1.58539719501950
 1  1.10374757555756  2.88141887368737  0.50707043454345
 1  2.66457351615162  3.42734320782078 -0.12088605820582
 1 -3.16645851545155 -3.78614697059706 -1.34212922372237
 1 -3.11817342314231 -3.92759475237524  0.22548720012001
 1 -1.64264523582358 -3.82569290369037 -0.58529075547555
 1  0.30886328712871  0.92774869006901  0.28765941114111
 1 -1.51592268086809 -0.24202621542154 -0.37937566366637
 1  2.04713325782578 -1.46862591229123 -0.03086265046505
 1  0.17825833663366 -2.74700974327433 -0.30743160406041

