%nproc=4
%Mem=2GB
# td=(NStates=1) B3LYP/6-31G(d,p) 

TD

0 1
 6  12.17665200780078  0.62771337183718 -0.77032315121512
 6 -12.15381769586959 -0.03199824142414  0.90533971287129
 6  13.38704811751175 -0.25826548654865 -0.63073907290729
 6 -12.98848534843484  1.22322671417142  1.31936265066507
 6  13.10181249544955 -1.82337801020102 -0.50141189999000
 6 -13.27523211931193  2.08469698179818  0.19802016911691
 6  11.04374616851685  0.05144940944094  0.23414095189519
 6 -10.96873454125413  0.37235711801180 -0.10393802860286
 6  12.37639207660766 -2.09878217221722  0.76008998529853
 6 -12.02857273987399  2.72371267946795 -0.53501183708371
 6  11.16301600960096 -1.13457551205120  0.92661923032303
 6 -11.04042883708371  1.62360798259826 -0.78269714341434
 6  11.55568615631563  0.48021914701470 -2.14384286288629
 6  12.64425783918392  2.04726878197820 -0.52131365036504
 6 -13.01636922772277 -1.06057317601760  0.13721755165517
 6 -11.47997686568657 -0.64539771337134  2.14933308150815
 6  9.89083714631463  0.96600271387139  0.38379037953795
 6 -9.88559836673667 -0.67008955105511 -0.30794488228823
 6  10.08573274957496 -1.59924973667367  1.82090472537254
 6 -10.14917788798880  1.99065080418042 -1.81802326722672
 6  8.60403664336434  0.52726268246825  0.36295450165017
 6 -8.56976993539354 -0.40245011031103 -0.26219254215422
 6  7.40713928212821  1.31615041534153  0.42137475007501
 6 -7.52750164406441 -1.30868934403440 -0.39625002190219
 6  7.61394444414441  2.83365600280028  0.67979041604160
 6 -7.84974216241624 -2.75628563966397 -0.81494877247725
 6  6.18726262776278  0.72810719971997  0.38931109010901
 6 -6.31077968786879 -0.86223704630463 -0.23062517421742
 6  4.85212586328633  1.31092342424242  0.44962462146215
 6 -5.09855946774678 -1.74446042384238 -0.29676105770577
 6  3.69980869246925  0.55289285448545  0.17498944824482
 6 -3.87226261146115 -1.12004263696370 -0.31888432613261
 6  2.42804610601060  1.15516622432243  0.29970445834583
 6 -2.53061206060606 -1.75727078577858 -0.45035831593159
 6  2.34653902550255  2.65558492499250  0.61866623992399
 6 -2.58043858925893 -3.34635816231623 -0.68084943504350
 6  1.16580812931293  0.46507784938494  0.21627654465447
 6 -1.38181635473547 -1.10650922292229 -0.31753045814581
 6  1.10727509970997 -0.93045799299930 -0.10301782148215
 6 -0.06075553595360 -1.51156739653965 -0.39017277327733
 1  13.99954005980598 -0.18179575007501  0.26001404430443
 1  14.13738075187519 -0.38056643234323 -1.59480301870187
 1 -12.26870323532353  1.66001839203920  2.05589915471547
 1 -13.81319217681768  1.05266475877588  1.89205564366437
 1  14.05931655365537 -2.37087790549055 -0.57517096289629
 1  12.58167404910491 -2.08290219021902 -1.28214433773377
 1 -13.97951133933393  2.85860922092209  0.65749678727873
 1 -13.86627141094110  1.67721739593959 -0.67056107820782
 1  12.94362632643264 -1.89209171577158  1.77770965296530
 1  11.89548700320032 -3.10756444854485  0.82717957355736
 1 -11.52033182528253  3.46777449814982  0.06075259225923
 1 -12.41055726962696  3.26176968476848 -1.47568146934693
 1  11.27497086758676 -0.37900097739774 -2.45222335503550
 1  12.30691757245725  0.80184484578458 -2.91758833283328
 1  10.78039561086108  0.98753186488649 -2.26822754225423
 1  12.71863281738174  2.34199110101010  0.63329066956696
 1  12.05485389228923  3.01533144404440 -1.02511666866687
 1  13.48889074537454  2.11162143204320 -0.94091636273627
 1 -13.19206843754375 -0.68198220722072 -0.98774487518752
 1 -13.81152332493249 -1.19074487868787  0.57997521822182
 1 -12.56275387858786 -2.09691809670967 -0.06897277977798
 1 -10.89577206810681  0.29846420702070  2.47355701480148
 1 -10.76164268966897 -1.35575657635764  1.88906292249225
 1 -12.13080714471447 -0.91426589448945  2.94465299339934
 1  10.15764917151715  1.98694355445545  0.54861076897690
 1 -10.20995544024402 -1.47660277027703 -0.40032641064106
 1  9.12174625212521 -0.93166076077608  1.97134089168917
 1  10.47580839493949 -2.05900209810981  2.79915134513451
 1  9.47796986418642 -2.30383023302330  1.09873949554955
 1 -9.41227826312631  0.94231654425443 -2.01168366526653
 1 -9.48840364526453  2.83856737873787 -1.41945199139914
 1 -10.42325259025903  2.50684568996900 -2.77451742504251
 1  8.32638822962296 -0.45133591379138  0.12542559215922
 1 -8.34351774697470  0.60261445554555  0.10704705220522
 1  8.40528376047605  2.92530756665667  1.37117650015001
 1  6.72948482918292  3.39732743694369  1.20197277697770
 1  8.18687292499250  3.12823148514851 -0.25392861576158
 1 -8.27214816701670 -2.70302736183618 -1.81480817441744
 1 -8.68011900020002 -3.17104029132913 -0.23051691239124
 1 -6.85606015861586 -3.36370902220222 -0.80684957015702
 1  6.21629249374937 -0.23588881568157  0.22101008430843
 1 -6.02585457005700  0.16436837533753 -0.08940921772177
 1  4.89201255855586  2.37902634673467  0.70981388818882
 1 -5.15251535183518 -2.83345686208621 -0.58299044014401
 1  3.94947521422142 -0.42818738863886 -0.11092145374537
 1 -3.62322995419542 -0.02307597769777 -0.09216108280828
 1  2.36478717811781  2.95743613971397  1.60036869216922
 1  1.21981918271827  2.90277100890089  0.33591331883188
 1  3.07166422522252  3.18475894939494 -0.13583755335533
 1 -3.26750862046205 -3.25343369926993 -1.68362337313731
 1 -2.96412801860186 -3.89061105400540  0.24731938333833
 1 -1.54970594189419 -3.71426176057606 -1.05621784818482
 1  0.31746414721472  1.02394831003100  0.67931857705770
 1 -1.63187427602760 -0.08850086288629 -0.00013773987399
 1  1.94250279477948 -1.66631568126813 -0.14554411861186
 1  0.07119763056306 -2.50702574487449 -0.59184004490449

