%nproc=4
%Mem=2GB
# td=(NStates=1) B3LYP/6-31G(d,p) 

TD

0 1
 6  12.17499184178418  0.57035763626363 -0.73531965086509
 6 -12.16643895799580 -0.09064410601060  0.82844202310231
 6  13.54197361006101 -0.26261592159216 -0.50149614861486
 6 -12.98363486338634  1.13244763626363  1.35639635403540
 6  13.14897721192119 -1.74871054345435 -0.30854261306131
 6 -13.33286788288829  2.19724823692369  0.27443781088109
 6  11.08964075797580  0.07349161366137  0.25502304010401
 6 -11.00049771757176  0.47378726102610 -0.05424305910591
 6  12.29839427682768 -1.96942923692369  0.80662463876388
 6 -12.06375625822582  2.67759806800680 -0.33925226112611
 6  11.17453716171617 -1.09807186168617  0.97164373277328
 6 -10.98766356055605  1.70923654545455 -0.63553242694269
 6  11.58241882958296  0.40104122922292 -2.10115859445945
 6  12.42301571497150  2.08761281638164 -0.64293581258126
 6 -12.99242683348335 -1.18432555125513  0.16749057895790
 6 -11.44412328032803 -0.74990816441644  2.11779992819282
 6  9.89415747834784  0.98245435903590  0.39735173567357
 6 -9.98284809170917 -0.52450499259926 -0.23448753655366
 6  10.14073825012501 -1.51919173087309  2.02301493639364
 6 -10.04894786498650  2.04703644274427 -1.71022248714872
 6  8.63564980468047  0.49152910911091  0.28828703490349
 6 -8.65926888528853 -0.20208007330733 -0.17990431333133
 6  7.46759532773277  1.28528732903290  0.41411402400240
 6 -7.56728562246225 -1.29385786088609 -0.47314771167117
 6  7.58200124982498  2.74287692489249  0.40957339433943
 6 -8.03186037423742 -2.64767477857786 -0.80655793339334
 6  6.19608350985099  0.62831722072207  0.37811997099710
 6 -6.24760337023702 -0.85088591119112 -0.30686279797980
 6  4.85998664936494  1.22363469536954  0.36164582358236
 6 -5.05983559535954 -1.55229120692069 -0.63052443404340
 6  3.75305401700170  0.50874844004400  0.12748469776978
 6 -3.76046143134313 -1.09378001070107 -0.46723916161616
 6  2.41053435483548  1.17568827652765  0.34674916281628
 6 -2.55129412881288 -1.85223028172817 -0.55589886998700
 6  2.31895626722672  2.70999036553655  0.49465383868387
 6 -2.51961250665067 -3.41032455895590 -0.88507985808581
 6  1.21599314781478  0.43039438103810  0.19905482248225
 6 -1.33232140524052 -1.19405797779778 -0.33647235233523
 6  1.08315268746875 -1.04254920212021  0.04039651995200
 6 -0.01316077647765 -1.66942318211821 -0.30700445644564
 1  13.81009111491149  0.28646107560756  0.55630367326733
 1  14.19533654745475  0.14346597089709 -1.29933347174717
 1 -12.34773113811381  1.66979937013701  2.00297386218622
 1 -13.88387924552455  0.65449494179418  1.86240267836784
 1  14.27853847584759 -2.09028984668467 -0.05786923272327
 1  12.74229011071107 -2.23714761476148 -1.31091721502150
 1 -13.91493488168817  2.96388974897490  0.76429746734673
 1 -13.87866265006501  1.63904357855786 -0.55834985708571
 1  12.88974093789379 -1.90495300190019  1.73810569256926
 1  11.96254370887089 -2.93849754185419  0.77140399599960
 1 -11.63673346544654  3.60906862756276  0.17329384638464
 1 -12.32162837673767  3.10945445324532 -1.35697959915992
 1  11.63039641014101 -0.59435251255126 -2.26346447914792
 1  12.23727060776078  1.02725738703870 -2.81615818981898
 1  10.60552812411241  0.57004011571157 -2.09258997849785
 1  12.89007996209621  2.48491539343934  0.37358469896990
 1  11.57323573047305  2.68643855475548 -0.93385754275428
 1  13.03125498179818  2.31184145404540 -1.34185645674567
 1 -13.38541777247725 -0.81108511751175 -0.96227232793279
 1 -13.88302047464746 -1.32602840704070  0.67942516321632
 1 -12.45146274947495 -2.07633603850385  0.07458157565757
 1 -10.84421691259126 -0.19501514091409  2.69679933903390
 1 -10.76065259065907 -1.56293729442944  1.67735175137514
 1 -12.27670173417342 -1.03360782868287  2.85580410851085
 1  10.14050745734574  2.02853771387139  0.50831673957396
 1 -10.14203864856485 -1.51636674667467 -0.07793417141714
 1  9.46473055055506 -0.59891748644865  2.31799555715572
 1  10.75089590369037 -1.89914611251125  2.76582801280128
 1  9.61403347054705 -2.44780463046305  1.53868348994899
 1 -9.25580261556155  1.32610492309231 -1.77652014891489
 1 -9.68547335223522  3.38222174417442 -1.46508655485549
 1 -10.69984024902490  2.31487649304930 -2.60184015731573
 1  8.54699028982898 -0.55583636383638  0.14167721732173
 1 -8.12961635683568  0.81150534463446  0.06688303580358
 1  8.15727895999600  3.03624866076608  1.14265364786479
 1  6.62397427812781  3.31532923712371  0.37911049074907
 1  7.98728296599660  3.29568823082308 -0.51453467636764
 1 -8.41095204740474 -2.78527558665867 -1.86850354395440
 1 -8.84645563386339 -3.09922310961096 -0.15188904960496
 1 -7.17238179077908 -3.45776842814281 -0.53159204440444
 1  6.19246011051105 -0.51437666446645  0.34718270157016
 1 -6.09704168876888  0.12562450095009 -0.22734301110111
 1  4.68073143044304  2.30465890999100  0.39873278007801
 1 -5.12289238953895 -2.52341585798580 -0.85204734583458
 1  3.70968123482348 -0.56649121902190  0.14430406880688
 1 -3.70064769596960  0.02745907580758 -0.36589845654565
 1  2.86890759015902  3.21446184228423  1.29417807310731
 1  1.24302150295030  3.13920465226523  0.82021174867487
 1  2.58386544534453  3.16448692219222 -0.57123109270927
 1 -3.15208707830783 -3.38788714461446 -1.78652366316632
 1 -3.09923152895290 -4.09730172307231 -0.05732108070807
 1 -1.61856282758276 -3.86636697109711 -1.03596582298230
 1  0.43770617141714  1.17488340354035  0.17902854805481
 1 -1.45442653125312 -0.02394440724072  0.04076635053505
 1  2.02635117961796 -1.64945399509951  0.21665210101010
 1  0.09807031783178 -2.75090013231323 -0.40939180008001

