%nproc=4
%Mem=2GB
# td=(NStates=1) B3LYP/6-31G(d,p) 

TD

0 1
 6  12.12592693529353  0.56752735323532 -0.78358447734773
 6 -12.06475878997900  0.05621057945795  0.80098927782778
 6  13.47667708040804 -0.19793945394539 -0.65486148514851
 6 -12.95495199509951  1.14190858235824  1.24196491089109
 6  13.29521183538354 -1.59262493489349 -0.75381714051405
 6 -13.30283487958796  2.15316382848285  0.19439980708071
 6  11.01634342824283 -0.03409914541454  0.08309584738474
 6 -10.99612728052805  0.42173205550555 -0.16826446124612
 6  12.36346078347835 -2.09542183618362  0.38844282058206
 6 -12.11525140774077  2.66511681988199 -0.62471080698070
 6  11.23356306430643 -1.14682673717372  0.81198776717672
 6 -11.11372616681668  1.60746636843684 -0.94787366106611
 6  11.60308089578958  0.60339146424642 -2.25940441904190
 6  12.46229964336434  2.07299135423542 -0.33784530353035
 6 -13.06078366916692 -1.09256637533753  0.21202503240324
 6 -11.48321718971897 -0.61571474507451  2.05528367656766
 6  9.80808887148715  0.87492360596060  0.27283928442844
 6 -9.98931873877388 -0.58801134323432 -0.27706179397940
 6  10.33942811911191 -1.83313312501250  1.91175381028103
 6 -10.17306027622762  1.91540327942794 -2.03306477137714
 6  8.59342558225823  0.40082003820382  0.49192739893989
 6 -8.58782174057406 -0.28007787308731 -0.43199952285229
 6  7.34228279647965  1.20705950625063  0.55225783838384
 6 -7.59077797169717 -1.26193466856686 -0.48149854675468
 6  7.65220827052705  2.71225386258626  0.69725216221622
 6 -7.83820100830083 -2.78989900100010 -0.51963924152415
 6  6.16861076257626  0.55797018601860  0.44601676067607
 6 -6.23114172407241 -0.93008383098310 -0.33116522822282
 6  4.87456810751075  1.26224855675568  0.56063572257226
 6 -5.03376298809881 -1.71177715551555 -0.35421680328033
 6  3.65713442504250  0.57328489368937  0.38723067236724
 6 -3.81707709290929 -1.07946857955796 -0.30839327702770
 6  2.39300260166017  1.24865557325733  0.40090457835784
 6 -2.60265926532653 -1.79471453015302 -0.39648292839284
 6  2.26323069466947  2.73381274777478  0.71088546184618
 6 -2.57096764216422 -3.30626415291529 -0.32783413351335
 6  1.18539008750875  0.60215155675568  0.26467138413841
 6 -1.33499167226723 -1.04532310431043 -0.30238894399440
 6  1.06983135533553 -0.81068601580158 -0.04887240694069
 6 -0.02876233663366 -1.59437567736774 -0.18784254025403
 1  13.91889199499950  0.14811724122412  0.15996403930393
 1  14.09748676247625  0.04213583788379 -1.55929946834683
 1 -12.37741410641064  1.93594598479848  2.00361392619262
 1 -13.91642249984999  0.94077356965697  1.77482392049205
 1  14.09627024902490 -2.08172899059906 -0.73266671247125
 1  12.78891477317732 -1.88121202120212 -1.69169529282928
 1 -13.91247463566357  3.01655501550155  0.47477851545155
 1 -14.20378516231623  1.61429110331033 -0.30029405150515
 1  12.93533549734973 -2.30674318091809  1.39795167716772
 1  12.01054850935093 -3.15559925202520  0.04846170177018
 1 -11.75455524762476  3.57648536923692 -0.04197768076808
 1 -12.41983819771977  2.99834334213421 -1.60087398859886
 1  11.55947931843184 -0.42895597289729 -2.70466859955996
 1  12.04160104080408  1.38005266656666 -2.94510108410841
 1  10.60061763306331  0.88684179587959 -2.03593431293129
 1  12.72534348844884  2.01026792869287  0.66333367386739
 1  11.81976038293829  2.94101401230123 -0.49734389138914
 1  13.48764062036204  2.36338660856086 -0.88563083418342
 1 -13.50180941164117 -0.80606461546155 -0.60987708840884
 1 -13.81829400200020 -1.39443524772477  0.82233945464546
 1 -12.36391399459946 -1.97443584848485  0.02259637713771
 1 -10.65720821172117  0.01162552315231  2.50488014711471
 1 -10.87020354575458 -1.64101510221022  1.74601861806181
 1 -12.29521358535854 -0.84199866776678  2.76569509760976
 1  10.12386579317932  2.00188504860486  0.25621152905290
 1 -10.32269671437144 -1.61185629562956 -0.33344972297230
 1  9.66725080258026 -1.01350894559456  2.29181293889389
 1  10.96056687078708 -2.16309250715072  2.68123955395540
 1  9.81855392259226 -2.76257610761076  1.68277789938994
 1 -9.35749278457846  1.09792210481048 -2.15177767466747
 1 -9.65505030993099  2.92988651065107 -1.88804885108511
 1 -10.30333059805981  2.26975198059806 -2.99654962826283
 1  8.50719631043104 -0.57507828802880  0.28766181578158
 1 -8.37541093629363  0.70676487058706 -0.26197985048505
 1  8.10109334143414  2.71710674657466  1.68018740124012
 1  6.69282116281628  3.21204890909091  0.82835541524152
 1  8.25414965266527  3.50708937093709 -0.05318854175418
 1 -8.47356830903090 -2.97541460056006 -1.40289698329833
 1 -8.30549153745375 -2.96702989028903  0.47987412671267
 1 -6.89025357795780 -3.34981763306331 -0.76420530573057
 1  6.00672153665367 -0.50760598739874  0.25018300160016
 1 -5.88445042964296  0.39559149764977 -0.20135041184118
 1  4.68898225552555  2.31738018211821  0.79896280308031
 1 -5.02796289658966 -2.80307382378238 -0.41211335243524
 1  3.56735700240024 -0.45695026492649  0.57715735413541
 1 -3.87884551575157  0.00401673157316 -0.43608547524752
 1  2.62714341374137  2.85577597369737  1.87544619991999
 1  1.10245744654465  2.85215594739474  0.62875260276028
 1  2.79233629242924  3.35920639413941  0.17139316971697
 1 -3.31974384398440 -3.78573692959296 -1.16091110191019
 1 -2.97649925572557 -3.53922591549155  0.78615326672667
 1 -1.48422939423942 -3.56007634203420 -0.44621684808481
 1  0.15017741854185  1.22259817501750  0.43275392059206
 1 -1.58108919751975  0.07193518071807 -0.35012273837384
 1  2.04119266376638 -1.40086913661366  0.21925236103610
 1  0.15086559735974 -2.63063810611061 -0.29937079797980

