%nproc=4
%Mem=2GB
# td=(NStates=1) B3LYP/6-31G(d,p) 

TD

0 1
 6  12.15647999059906  0.52507310781078 -0.64882100100010
 6 -12.15750806490649 -0.14455949754976  0.87157633653365
 6  13.47456686938694 -0.21182084208421 -0.42905890489049
 6 -12.95839233913391  1.04687907940794  1.36235695009501
 6  13.21033334753475 -1.73969964236424 -0.32753451225123
 6 -13.30255485158516  2.15525403750375  0.32830319741974
 6  11.07315910981098 -0.04956069156916  0.29777731553155
 6 -11.00280794859486  0.51906178847885 -0.06714434923492
 6  12.36277071447145 -1.97582987698770  0.90125410171017
 6 -12.05586546914691  2.75752606080608 -0.22161049694970
 6  11.17364707270727 -1.19562161666167  1.02081865026503
 6 -10.93488828302830  1.75285090689069 -0.59557843154315
 6  11.76331691939194  0.36843796889689 -2.04264274287429
 6  12.45450886428643  2.04950900600060 -0.29650116911691
 6 -12.97226481728173 -1.08217533623362 -0.03752992309231
 6 -11.39350821882188 -0.80028320192019  2.11743989218922
 6  9.89197726032603  0.86467258085809  0.39604160466047
 6 -9.90302010891089 -0.58517105920592 -0.27878196599660
 6  10.10954513081308 -1.80029984168417  1.89523215811581
 6 -9.83513648384839  2.20171191029103 -1.50677214211421
 6  8.57557379707971  0.51092104830483  0.29268747494749
 6 -8.62519547794779 -0.30288015331533 -0.32820914381438
 6  7.30721929012901  1.36708550885089  0.28101071367137
 6 -7.55402429632963 -1.31903037813781 -0.40278067496750
 6  7.41116416611661  2.87160979817982  0.36620905790579
 6 -7.89972716091609 -2.79110912201220 -0.80722800040004
 6  6.22182608410841  0.78734312331233  0.13369552855286
 6 -6.20484909480948 -0.94463528612861 -0.21316342804280
 6  4.90514116481648  1.39862219411941  0.19299895889589
 6 -4.99231884368437 -1.72537851565157 -0.32937431903190
 6  3.71060977257726  0.62033959915992  0.19262121142114
 6 -3.76764214941494 -1.16822745544554 -0.26804924262426
 6  2.35009831123112  1.25704641234123  0.12800728862886
 6 -2.48976797619762 -1.88748380708071 -0.37021030113011
 6  2.14934930653065  2.80443981048105  0.21145551885189
 6 -2.66431697709771 -3.35777930443044 -0.78145949604960
 6  1.21382293079308  0.53056439803980 -0.11435651865187
 6 -1.43382155525553 -1.14923349534953 -0.20793949904990
 6  1.02749712191219 -0.90177512471247 -0.31634915461546
 6 -0.08150761116112 -1.62883912371237 -0.38723247924792
 1  13.79746985278528  0.11822425192519  0.70826886978698
 1  14.31621863566357 -0.01275965166517 -1.14537807620762
 1 -12.53802016701670  1.53371576177618  2.08246181098110
 1 -14.14144500210021  0.62164165646565  1.74760119821982
 1  14.21926254825483 -2.36923774147415 -0.14160760656066
 1  12.52026790849085 -2.08242214221422 -1.08021414471447
 1 -14.09048243644364  2.89221258125813  0.76712775037504
 1 -13.81679646344635  1.66790646484649 -0.35191921402140
 1  12.88720068386839 -1.93170567716772  1.81385326732673
 1  11.90178763326333 -3.01942563466347  0.68358521412141
 1 -11.40303009510951  3.36070379107911  0.31913843084308
 1 -12.34251046494649  3.34890839863986 -1.16528042924292
 1  11.71490486098610 -0.61234431173117 -2.48858699139914
 1  12.39534641534153  0.91756641794179 -2.75201177517752
 1  10.77740531183118  0.81174428612861 -2.40677139663966
 1  12.88766972107211  1.70856775867587  0.75152249274927
 1  11.58219662656266  2.73829374027403 -0.24967912491249
 1  13.18440029632963  2.47972824272427 -1.01960423152315
 1 -13.36105533623362 -0.46438044704470 -0.88063416411641
 1 -13.79361153375338 -1.63200900510051  0.60689791049105
 1 -12.17146474967497 -1.85469387428743 -0.71103698619862
 1 -10.73229572047205 -0.11352699209921  2.54236389548955
 1 -10.99737626302630 -1.79837083778378  1.59839385558556
 1 -12.27336140014001 -0.84756922482248  2.87512604070407
 1  10.17706111271127  1.91655651575157  0.40744665256526
 1 -10.34058850355036 -1.54737984798480 -0.20939731773177
 1  9.30900497799780 -1.01653924862486  2.06905066266627
 1  10.58142895699570 -2.05365156305631  2.98745017501750
 1  9.55609767696770 -2.66041589158916  1.56514613621362
 1 -9.26182321762176  1.58305061766177 -2.02581507840784
 1 -9.13525833073307  3.06242976497650 -1.12290233643364
 1 -10.19919018401840  2.76742174757476 -2.38208818211821
 1  8.43286887768777 -0.55961674187419  0.02789583918392
 1 -8.28059145434543  0.70135432953295 -0.29631328382838
 1  7.90408364046405  3.24605964186419  1.24375375787579
 1  6.55643752445245  3.57779548374837  0.40284286398640
 1  7.92359659735974  3.49139780178018 -0.47756097899790
 1 -8.82219317151715 -2.81163822292229 -1.49260595419542
 1 -8.17857884618462 -3.55324851215121  0.20883702300230
 1 -6.97662221482148 -3.36370902220222 -1.26362524772477
 1  6.09999086358636 -0.25704093089309  0.02469045234523
 1 -6.13863584818482  0.12570450895090  0.01809153235324
 1  4.76725008230823  2.47618606270627  0.46719962676268
 1 -5.13373347364736 -2.81533504990499 -0.36864900600060
 1  3.84675494219422 -0.46781135103510  0.03684332273227
 1 -3.84748237943794 -0.12134580468047 -0.16361822852285
 1  2.46457715711571  3.32736313241324  1.24220287558756
 1  1.09996719751975  3.18293902570257  0.19561928942894
 1  2.77817487628763  3.30461093459346 -0.56147011661166
 1 -3.52311418101810 -3.49748810471047 -1.60266527732773
 1 -3.19420102590259 -3.81955394829483  0.19323397479748
 1 -1.73659463076308 -3.93204353875388 -1.24248647504750
 1  0.32955535633563  1.10728664386439  0.03400404560456
 1 -1.61121220982098  0.00613860106011  0.12645491939194
 1  2.00099864436444 -1.33812286198620 -0.45793535773577
 1  0.07163767456746 -2.68329337163716 -0.48288914981498

