%nproc=4
%Mem=2GB
# td=(NStates=1) B3LYP/6-31G(d,p) 

TD

0 1
 6  12.18027236983698  0.54542514301430 -0.70944706360636
 6 -12.18492080618062 -0.14786982858286  0.77699687858786
 6  13.49870928362836 -0.35211487148715 -0.59023502250225
 6 -13.23728022792279  0.91058545004500  1.18914962936294
 6  13.20746306050605 -1.90322599499950 -0.60562232103210
 6 -13.54803940004000  1.91189970207021 -0.01460109300930
 6  11.01187298119812 -0.09726546204620  0.15527306510651
 6 -11.10248791659166  0.43474335663566 -0.09808744354435
 6  12.34475891329133 -2.27218951295130  0.59454343064306
 6 -12.29275915851585  2.58017832603260 -0.59408774467447
 6  11.18886859485949 -1.33140519501950  0.75384195259526
 6 -11.13536833103310  1.58736435823582 -0.75136401010101
 6  11.65256584428443  0.61373249834984 -2.20725920452045
 6  12.52311572497250  1.88605266036604 -0.24331585058506
 6 -12.95981357215722 -1.30392751145115  0.11354518441844
 6 -11.47448631663166 -0.64521769536954  2.17995614381438
 6  9.87700576317632  0.82423853745375  0.41529352985299
 6 -9.95365517241724 -0.47214975707571 -0.25880996879688
 6  10.29542371867187 -1.86035584728473  1.78790142504250
 6 -10.12177514771477  2.10560229932993 -1.70594205910591
 6  8.57684392409241  0.47338729492949  0.38125633183318
 6 -8.55337829622962 -0.18626849214921 -0.22001832473247
 6  7.37060562876288  1.37285608590859  0.56230884348435
 6 -7.48776767066707 -1.27298577367737 -0.30441083798380
 6  7.73501655135514  2.84325696289629  0.85705814281428
 6 -7.84319150735074 -2.66529654075407 -0.60894817241724
 6  6.17722162366237  0.81386577557756  0.30611277027703
 6 -6.21910051995199 -0.80291111371137 -0.31727383908391
 6  4.89640029072907  1.57175950785079  0.30342000100010
 6 -5.03703331513151 -1.68568454625463 -0.39631101270127
 6  3.76044475607561  0.75145271047105  0.19240118941894
 6 -3.80398578377838 -1.00001063376338 -0.23003544124412
 6  2.44033733513351  1.30735144284428  0.16495098299830
 6 -2.52892189158916 -1.79542460116012 -0.20466374647465
 6  2.30365473707371  2.85519488598860  0.24484885818582
 6 -2.52451299669967 -3.28034156065607 -0.47831918201820
 6  1.35401695019502  0.60340168176818  0.05307022402240
 6 -1.34563273637364 -1.07640621262126 -0.21988069316932
 6  1.16269064126413 -0.75401034823482 -0.07177469716972
 6  0.00687122672267 -1.53517975777578 -0.24089784578458
 1  14.01126123192319  0.01105353485349  0.30565860876088
 1  14.30595760956096  0.09808143244324 -1.39015255365536
 1 -12.92996936193619  1.59082147234724  2.17989155395540
 1 -14.16862772037204  0.53644313661366  1.45698213631363
 1  14.21897251925193 -2.38723954165417 -0.70692413821382
 1  12.63237911961196 -2.02643654365436 -1.63501962526253
 1 -14.29507289548955  2.68010137013701  0.43409444704470
 1 -14.05854063786379  1.19999967416742 -0.83704772687269
 1  12.87342930673067 -1.93221572817282  1.64690657265727
 1  12.03989144364436 -3.29567325942594  0.32715957155716
 1 -12.16475626772677  3.46190391109111  0.12691920892089
 1 -12.47832404630463  3.20996450425043 -1.35237913911391
 1  11.28711208170817 -0.34739781708171 -2.62835096779678
 1  12.40179706040604  1.21813647494749 -2.84010058405841
 1  10.84913248454845  1.30052316401640 -2.00666138563856
 1  12.73149410351035  1.63940084198420  0.85445278577858
 1  11.71257966486649  2.61034094499450 -0.53512766976698
 1  13.55560741704170  2.00541081098110 -0.89564183528353
 1 -13.53148237893789 -0.57624163316332 -0.76712281298130
 1 -13.75609778237824 -1.53812961716172  0.70475769646965
 1 -12.30365796899690 -2.02649105400540 -0.33260914341434
 1 -11.09742223312331  0.31776613721372  2.73168282738274
 1 -10.53723024842484 -1.45468646934694  2.06406042224222
 1 -12.42002606660666 -1.18082255015502  2.70408893699370
 1  10.16267967456746  1.90296515661566  0.57099300720072
 1 -10.23380782548255 -1.59646475647565 -0.47310368836884
 1  9.74813889138914 -1.11589918461846  2.25288904650465
 1  10.88741955605561 -2.39411560946095  2.47658908890889
 1  9.39385145234523 -2.50305015501550  1.37245686728673
 1 -9.43684071937194  1.40431274387439 -2.19633213011301
 1 -9.49420422532253  2.88653217521752 -1.35990603680368
 1 -10.60478074307431  2.49024402980298 -2.53345331863186
 1  8.20804639543954 -0.56067684788479  0.14333738333833
 1 -8.32539593479348  0.72225641974197  0.10774712221222
 1  8.34578781088109  3.00248528442844  1.91880126262626
 1  6.70960284098410  3.21034873907391  1.15805838553855
 1  8.19250348804881  3.46874553655366  0.07764454155416
 1 -8.24462541474148 -2.64321138023802 -1.82120881448145
 1 -8.84062505080508 -3.02323551085109 -0.07676153685369
 1 -7.03464801740174 -3.39727237853785 -0.11598048324832
 1  5.99239010351035 -0.28406363316332  0.09009699299930
 1 -6.01928391299130  0.24408634713471 -0.10263053985399
 1  4.89997335463546  2.72550099419942  0.48077098389839
 1 -5.32381248154816 -2.68583209960996 -0.51205334643464
 1  3.80215048174817 -0.39215378527853  0.31971160956096
 1 -3.91675930713071 -0.01876554665467 -0.21623349004900
 1  2.76503720312031  3.20456085218522  1.12030068536854
 1  1.43796099689969  3.16732746454645  0.22034176167617
 1  2.94772183098310  3.37723819731973 -0.45139910951095
 1 -3.04824669426943 -3.67901625752575 -1.46732174297430
 1 -3.22882448824882 -3.91131312421242  0.33817846924692
 1 -1.54048501980198 -3.62641297569757 -0.44350657705771
 1  0.29251165196520  1.20576649184919  0.44985563076308
 1 -1.55354644324433  0.01418940614061 -0.16365409150915
 1  2.06583512801280 -1.39469851955195 -0.16582614681468
 1  0.23786429722972 -2.59939498179818 -0.26667752865287

