%nproc=4
%Mem=2GB
# td=(NStates=1) B3LYP/6-31G(d,p) 

TD

0 1
 6  12.18840318291829  0.42518311881188 -0.59872599149915
 6 -12.09792210631063 -0.23343838543854  0.89652883178318
 6  13.53124253695370 -0.44524418441844 -0.40481648064806
 6 -13.08421492139214  0.93150754225423  1.47382809720972
 6  13.19324163836384 -2.00216588898890 -0.17695945474547
 6 -13.41532612871287  1.94438295039504  0.30173054015402
 6  11.06047784168417  0.02348661316132  0.30665820362036
 6 -11.05836350415041  0.39299918221822 -0.00471810661066
 6  12.27698213561356 -2.02664495849585  1.04192816911691
 6 -12.12707258985898  2.61256156435644 -0.22302063796380
 6  11.13378308630863 -1.05147720222022  1.19618618701870
 6 -11.03503829802980  1.69046466826683 -0.48677755145515
 6  11.70967155485549  0.14240536563656 -2.13003148174817
 6  12.65275868926893  1.94696875197520 -0.39765128412841
 6 -12.95337292809281 -1.22149926862686  0.05421925182518
 6 -11.52012088008801 -0.89470264386439  2.17079522772277
 6  9.87549561216122  0.80580669426943  0.26899890039004
 6 -10.01676148304830 -0.58063060516052 -0.31137522532253
 6  10.04580875717572 -1.55602541424142  2.07723035793579
 6 -9.88817178737874  2.28656039513951 -1.37262872777278
 6  8.57377361706171  0.42525248144814  0.24966317251725
 6 -8.63189614801480 -0.40639050435044 -0.22353867676768
 6  7.40744931313131  1.32862166246625  0.19844245684568
 6 -7.53807270117012 -1.30624910001000 -0.36134653155316
 6  7.74023707340734  2.77810044724472  0.43817625462546
 6 -7.95212240044004 -2.71032104320432 -0.80922820042004
 6  6.16720062156216  0.85962035103510  0.19763192219222
 6 -6.26461507140714 -0.95229605220522 -0.30180229192919
 6  4.89338998969897  1.54535686758676  0.11365102410241
 6 -5.02280189198920 -1.60504648244824 -0.61207258885889
 6  3.69994870647065  0.86177374257426 -0.06216426712671
 6 -3.83136852205221 -1.09386001870187 -0.52951538923892
 6  2.39437273867387  1.43247395509551  0.10520500840084
 6 -2.52705170457046 -1.75189024772477 -0.61016429652965
 6  2.26847121872187  2.88600796729673  0.31374574787479
 6 -2.52862340774077 -3.22949647614761 -0.91643299339934
 6  1.23467501600160  0.68743008460846  0.01122603960396
 6 -1.40420859395940 -0.99385795779578 -0.37064576967697
 6  1.13911828402840 -0.72229717691769 -0.28094561426143
 6 -0.04767422782278 -1.39208544834483 -0.37699145514551
 1  13.93520362616262 -0.09880745124512  0.63792183508351
 1  14.26293330713071 -0.18581695739574 -1.21001453985399
 1 -12.56086245124512  1.52465485568557  2.32937650245025
 1 -13.98108896649665  0.46209570187019  1.93064950305030
 1  14.22808343034304 -2.53949476717672  0.13840039423942
 1  12.69874575627563 -2.57870177017702 -1.05552167546755
 1 -14.18248163636364  2.67327068706871  0.35790682828283
 1 -13.84530931473147  1.46652632683268 -0.58029205130513
 1  12.92339430323032 -1.92413492009201  1.88307018901890
 1  12.06031348584859 -3.01712540464046  1.13983083868387
 1 -11.81022081418142  3.34611233193319  0.56738325532553
 1 -12.50683689758976  3.09714322212221 -1.16488038923892
 1  11.56337970847085 -0.87052012931293 -2.47121525422542
 1  12.46200308100810  0.38935359665967 -3.03091966596660
 1  11.04984255555555  0.72975608730873 -2.28785950545055
 1  13.00862181628163  2.02696959885989  0.59547688818882
 1  11.70203861076108  2.65195510641064 -0.68409256625663
 1  13.48244010031003  2.18537880778078 -1.09758202930293
 1 -13.22730196089609 -0.55296930593059 -0.87664376507651
 1 -14.03203537613761 -1.58313411761176  0.56568378907891
 1 -12.30250785398540 -2.07478588348835 -0.21556743924392
 1 -10.64213670457046 -0.29100473987399  2.70002966206621
 1 -11.22798932433243 -2.02025302600260  1.76350036623662
 1 -12.28282234623462 -0.88980344824482  2.88812734083408
 1  10.24927833443344  1.98156301640164 -0.10302439453945
 1 -10.34691913661366 -1.64511962196220 -0.37327370537054
 1  9.44659873737374 -0.70029762446245  2.51755551315131
 1  10.53374418851885 -2.17875407330733  2.90745217521752
 1  9.10373244044404 -2.42291214121412  1.81156077767777
 1 -9.15747278257826  1.41246355895590 -1.69769226612661
 1 -9.09902470737074  2.84260778277828 -0.74725477167717
 1 -10.25058532353235  2.80536554195419 -2.23633360666067
 1  8.40091568236824 -0.71419219941994  0.26952000160016
 1 -8.40212360756076  0.83427762186219 -0.29087273977398
 1  8.31869510161016  2.77096213211321  1.30112949544954
 1  6.75438731943194  3.38966667086709  0.72326490619062
 1  8.28987322502250  3.28779744174417 -0.36922014491449
 1 -8.42987393959396 -2.62922998209821 -1.72946964056406
 1 -8.62438342664266 -2.88083127042704 -0.04693855455545
 1 -7.15604015661566 -3.51267391869187 -0.81125001020102
 1  6.10920178467847 -0.13557878467847  0.14490247354735
 1 -6.22267425202520  0.09850178867887 -0.04419469626963
 1  4.88143150045005  2.62646109020902  0.24696760356036
 1 -5.09092919321932 -2.68408192459246 -0.82238437953795
 1  4.08110837753775 -0.38789335923592 -0.01888224982498
 1 -3.66509414061406  0.00213654355436 -0.34434630133013
 1  2.73163386278628  3.18295869196920  1.21576023132313
 1  1.42200940174017  3.28074880668067  0.37192692019202
 1  2.76323338213821  3.55078555205520 -0.45837980758076
 1 -3.27175904550455 -3.49458781468147 -1.68990400120012
 1 -3.09249085488549 -3.41903389628963 -0.07860320892089
 1 -1.55628659996000 -3.64110444484449 -0.98444067046705
 1  0.33335573637364  1.24402031723172  0.06432707790779
 1 -1.66350743934393 -0.05676768956896 -0.12757048314831
 1  1.99102764726473 -1.49200825052505 -0.51367093129313
 1 -0.13544303350335 -2.50040508280828 -0.53405426632663

