%nproc=4
%Mem=2GB
# td=(NStates=1) B3LYP/6-31G(d,p) 

TD

0 1
 6  12.13864820742074  0.34323492399240 -0.56277239613961
 6 -12.11093340744074 -0.14862990459046  1.11083026192619
 6  13.54331374407441 -0.55696535653565 -0.31362736173617
 6 -12.99904640454045  0.93423781528153  1.51524223862386
 6  13.04919723392339 -2.05638131053105 -0.26582834163416
 6 -13.47552214831483  1.92512102420242  0.50391075817582
 6  11.09709150305031 -0.01428716421642  0.36494403220322
 6 -11.07313498129813  0.38108799109911  0.02090445564556
 6  12.14771920932093 -2.23032532653265  1.06413038933893
 6 -12.25748563116312  2.52604291249125 -0.23264160006001
 6  11.04433414141414 -1.26072812731273  1.10261683008301
 6 -11.12637743194319  1.57763338513851 -0.57578645234523
 6  11.71987257495750  0.11273239833983 -1.99730820942094
 6  12.59661307470747  1.93553760886089 -0.38908042704270
 6 -13.05654324512451 -1.34923204190419  0.44349817971797
 6 -11.25580444844484 -0.73838701230123  2.27175532373237
 6  9.96885494809481  0.93122923652365  0.47287928842884
 6 -9.99537934483448 -0.55814835693569 -0.33599768756876
 6  10.05376955325533 -1.55356516821682  2.28552118701870
 6 -10.19734270447045  2.13635537463746 -1.60244170907091
 6  8.68744498419842  0.51257121332133  0.35906411261126
 6 -8.65720867926793 -0.32091195649565 -0.22512883578358
 6  7.47470603880388  1.46904570487049  0.33335594819482
 6 -7.54515340924092 -1.29748822392239 -0.49486988388839
 6  7.79500254995500  2.95535817301730  0.54087652465247
 6 -7.94433162136214 -2.58463847494749 -0.92429970757076
 6  6.16206010751075  1.00645503450345  0.13105526452645
 6 -6.17016562646265 -0.79580040264026 -0.49869198089809
 6  4.93610426112611  1.78596092799280  0.16879653865387
 6 -5.02744235603560 -1.65860183798380 -0.69860124172417
 6  3.81091980358036  1.01395896109611 -0.01806985768577
 6 -3.74550993619362 -1.10663129582958 -0.55049748744874
 6  2.35363866526653  1.37999870757076  0.02787727562756
 6 -2.50067906730673 -1.74104916361636 -0.54288756885689
 6  2.16461083268327  2.91532089858986  0.24941931523152
 6 -2.46660720612061 -3.28042156865687 -0.97056840694069
 6  1.30940248874888  0.62763410501050 -0.27705278827883
 6 -1.34915308840884 -1.04768334033403 -0.50885959105911
 6  1.12330670287029 -0.78982392959296 -0.51232875257526
 6  0.01784232383238 -1.60556679647965 -0.64494825082508
 1  13.79899000480048 -0.25323289378938  0.68728677157716
 1  14.27984499829983 -0.25899427512751 -1.28022156055606
 1 -12.23830019501950  1.43548593879388  2.16305987078708
 1 -13.81664252185219  0.66073556585659  2.12481891999200
 1  13.81677229922992 -2.72051286898690 -0.32042548834884
 1  12.55636151785179 -2.38910281028103 -1.22072819611961
 1 -14.12978636683668  2.69976333633363  0.87800883848385
 1 -14.10325510931093  1.33219289348935 -0.25007903000300
 1  12.79907187098710 -1.92509501610161  1.99603148514852
 1  11.65078253275327 -3.15343903600360  1.05028188378838
 1 -11.81213100520052  3.34857257795780  0.52529904690469
 1 -12.46501271517152  3.24697820562056 -1.25093899509951
 1  11.69727309780978 -0.91958503580358 -2.08764689738974
 1  12.40738761946195  0.35071973327333 -2.83961053505351
 1  10.77779535083508  0.63988710041004 -2.39720043954395
 1  12.73645459955996  2.17598450035003  0.73414075457546
 1  11.77861626852685  2.54518442934293 -0.92504666166617
 1  13.69167102340234  1.74949521942194 -1.00409268036804
 1 -13.67068629932993 -0.81108511751175 -0.38227432813281
 1 -13.71265343794379 -1.67019282348235  1.24441166186619
 1 -12.18649625282528 -2.10760916581658  0.08205232273227
 1 -10.50464295519552  0.02042640324032  2.67419707880788
 1 -10.62320884628463 -1.59456045674567  2.10127414361436
 1 -11.92590665466547 -1.04442891079108  3.21688021612161
 1  10.30648405500550  1.88122298239824  0.45088099599960
 1 -10.31799624432443 -1.61063617361736 -0.48114449244925
 1  9.53331740924092 -0.55525312001200  2.50668442604260
 1  10.75590640474047 -2.03809000690069  3.00118154815481
 1  9.28921098829883 -2.31032088208821  2.10889051065107
 1 -9.20645768106811  1.42833514611461 -2.05719821672167
 1 -9.72891769666967  2.90168369036904 -1.29758980518052
 1 -10.78076834183418  2.49876488188819 -2.50467044034403
 1  8.47510310111011 -0.64801558175818  0.44378742834283
 1 -8.11930532573257  0.43032722682268  0.27510385788579
 1  8.22352558465846  3.21035607150715  1.45606498899890
 1  6.85524740544054  3.50206791099110  0.46219879957996
 1  8.38178241594160  3.33888255025503 -0.14731795469547
 1 -8.25903685588559 -2.57122418151815 -2.12730942454245
 1 -8.66197718601860 -3.23568675597560 -0.36527038773877
 1 -7.17004155675568 -3.31062371367137 -0.79006789198920
 1  6.20112097659766 -0.02874810161016 -0.01132314901490
 1 -6.04587657225723  0.31315325382538 -0.08487876467647
 1  4.96709006630663  2.80313875797580  0.29637254405441
 1 -5.12740284058406 -2.72664618101810 -0.87079922102210
 1  3.95331559825983  0.08699412951295 -0.14910527212721
 1 -3.38494612581258  0.08585491539154 -0.25730759745975
 1  2.36114681408141  3.22175257135714  1.24581323662366
 1  1.20800800160016  2.99075980778078 -0.07178745124513
 1  3.00294735353535  3.47349782328233 -0.39839380898090
 1 -3.11809367896790 -3.55334369026903 -1.93664867566757
 1 -3.13602520832083 -3.67417941084108 -0.35192054065407
 1 -1.53209418071807 -3.70691102550255 -0.87890011641164
 1  0.28143054385439  1.12511842704270 -0.17559691449145
 1 -1.29110019861986 -0.05981799459946 -0.14390211631163
 1  2.05843438793879 -1.23856290599060 -0.61996156035604
 1  0.10667117791779 -2.70647568986899 -1.13673453435343

