%nproc=4
%Mem=2GB
# td=(NStates=1) B3LYP/6-31G(d,p) 

TD

0 1
 6  12.00841518411841  0.54406500700070 -0.86598271717172
 6 -12.04311662576258  0.09013397179718  0.83055223412341
 6  13.34361377407741 -0.22642230223022 -0.94457045604560
 6 -12.99557605750575  1.30787517901790  1.19401011541154
 6  13.16531884608461 -1.78018369076908 -0.78848060686069
 6 -13.40510510661066  2.02833134523452  0.00919128622862
 6  10.91451324522452  0.00812507700770  0.15867340514051
 6 -10.97812548034803  0.46017589988999 -0.11580921572157
 6  12.40473491089109 -2.15148744274427  0.53185716201620
 6 -12.12541242384238  2.71402171037104 -0.81368970487049
 6  11.16718642664266 -1.16196825132513  0.71103767216722
 6 -11.08172296649665  1.55743136493649 -0.86309518321832
 6  11.41708229592959  0.56344746984698 -2.25128360696070
 6  12.43280669406941  2.09299335443544 -0.57456897589759
 6 -12.99379697049705 -0.97488460716072  0.17581141104110
 6 -11.55048391639164 -0.48734190779078  2.17286543474347
 6  9.81456951955196  0.85510162376238  0.43892589308931
 6 -9.93695350225022 -0.57978052015202 -0.33843793159316
 6  10.28936311261126 -1.69067887958796  1.87803043794379
 6 -10.07065003520352  1.81841358045805 -2.03724518941894
 6  8.55656189588959  0.49905986218622  0.43575178137814
 6 -8.54791775017502 -0.33844370967097 -0.31315763866387
 6  7.35364393259326  1.29519832013201  0.64087670027003
 6 -7.50639953385339 -1.34406288138814 -0.38101849874987
 6  7.57382043174317  2.74041667886789  0.87567000400040
 6 -7.82702989118912 -2.72305231633163 -0.60596787438744
 6  6.18227212871287  0.73994838383838  0.58705086408641
 6 -6.21860046994699 -0.90924174677468 -0.23006511821182
 6  4.90384103480348  1.32636496839684  0.65678533753375
 6 -5.03284289608961 -1.77883386118612 -0.26450783238324
 6  3.70520923252325  0.66912447764776  0.42713466276628
 6 -3.71718710391039 -1.17804843754375 -0.27120955865587
 6  2.37629093049305  1.24902561026103  0.51022551045105
 6 -2.43700269966997 -1.71835689438944 -0.39861314141414
 6  2.18014238583858  2.67263663016302  0.87591196449645
 6 -2.49693023842384 -3.23771729822982 -0.69940129022902
 6  1.33519506800680  0.42941428302830  0.26057097409741
 6 -1.30661883498350 -1.08631720372037 -0.16169487458746
 6  1.23657803000300 -0.93025797299730 -0.09104662436244
 6  0.04537507710771 -1.59782602240224 -0.28775253125313
 1  13.70565067086709  0.09700212971297  0.21712975587559
 1  14.04723173697370  0.30152177647765 -1.64027756615662
 1 -12.53630999599960  1.95031742194219  1.80428399319932
 1 -13.98716957455746  0.98452794509451  1.71663810191019
 1  14.09583020502050 -2.29148996669667 -0.77385083088309
 1  12.47870375207521 -2.12266616661666 -1.69887601090109
 1 -14.17090047824782  2.79967332733273  0.20382141974197
 1 -13.91058584238424  1.48040771497150 -0.62440646274627
 1  13.05083704750475 -2.07360986758676  1.41089297129713
 1  12.15654310881088 -3.33206689878988  0.59186604220422
 1 -11.82798259035904  3.45791351205121 -0.18623210621062
 1 -12.49113532743274  3.11671517931793 -1.77235113631363
 1  11.10161353185318 -0.56208928622862 -2.36944507720772
 1  12.16330321102110  0.92584724602460 -3.08722529652965
 1  10.36023359465946  1.02648576027603 -2.44050476997700
 1  12.62027298139814  2.25237213911391  0.43641098159816
 1  11.54710311721172  2.81685159605961 -0.85124928192819
 1  13.38842069836984  2.29060933083308 -1.25427769886989
 1 -13.52561179187919 -0.63581759075908 -0.68415451615162
 1 -13.70404257685769 -1.38145394959496  1.02367958865887
 1 -12.52204980818082 -1.92189059395940  0.05089920742074
 1 -10.96573906480648  0.32211657225723  2.73690334943494
 1 -11.02803932933293 -1.20387138783878  1.81295531173117
 1 -12.23478754275428 -0.96006047394739  2.93140166826683
 1  10.02923633023302  1.87945280538054  0.51519742764276
 1 -10.36611105580558 -1.64237934793479 -0.39535591359136
 1  9.53672775027503 -0.85151274597460  2.26940069766977
 1  11.01505231933193 -2.09228542644264  2.69452088208821
 1  9.47386945414542 -2.35240509050905  1.27258688028803
 1 -9.57085412071207  0.82838515111511 -2.11641413831383
 1 -9.36151095599560  2.77169069106911 -1.65431547774777
 1 -10.81740200520052  1.79666467186719 -3.16590656395640
 1  8.28081367216722 -0.59352013221322  0.06990003960396
 1 -8.03558695389539  0.58682287638764 -0.02355600810081
 1  8.47341057315731  2.74421945784578  1.69513889638964
 1  6.67619950065006  3.29323702790279  1.25695827552755
 1  8.01742598029803  3.30730939293929 -0.13112633553355
 1 -8.33316426862686 -2.79825688478848 -1.52378907250725
 1 -8.80349133743374 -2.98454164146415  0.24164030333033
 1 -7.07113166576658 -3.58887153845385 -0.47446633183318
 1  6.28269913441344 -0.32350757755776  0.19894787808781
 1 -5.97002898749875  0.17034897339734 -0.36784706150615
 1  4.65538889618962  2.32482092619262  0.93461636843684
 1 -5.08018811911191 -2.89245276167617 -0.18841098219822
 1  3.74345461216122 -0.41515608550855  0.01062070047005
 1 -3.72767039823982 -0.05400907100710 -0.01745361206121
 1  2.85004570397040  2.72418281438144  1.84275293059306
 1  0.96586378717872  2.66147687948795  1.06180590809081
 1  2.72981003980398  3.31086155965597  0.31019705010501
 1 -3.11630349995000 -3.49814817071707 -1.59248425922592
 1 -2.69788139393939 -3.87129912281228  0.09938458985899
 1 -1.50466143744374 -3.77379771417142 -1.13163538993899
 1  0.43593599439944  0.71387730293029  0.58148879407941
 1 -1.22241332993299  0.01872986018602  0.22953522742274
 1  2.06913545804580 -1.43127217691769 -0.21613117731773
 1  0.11213172397240 -2.55293033533353 -0.49173003390339

