%nproc=4
%Mem=2GB
# td=(NStates=1) B3LYP/6-31G(d,p) 

TD

0 1
 6  12.13569791239124  0.45090569106911 -0.62317843674367
 6 -11.95828814291429 -0.12692773437344  0.96891607050705
 6  13.42919233193319 -0.41803146314631 -0.52797879687969
 6 -12.88298479837984  1.09997438893889  1.42522323672367
 6  13.04918723292329 -1.95181085348535 -0.31069282808281
 6 -13.21602619871987  2.05869438153815  0.28169853695370
 6  10.92914470837084 -0.01703743924392  0.30010754855486
 6 -10.89108677647765  0.41376125842584  0.00126249144914
 6  12.31475591299130 -2.06274856885689  1.07101107740774
 6 -12.03597347994799  2.71359166736674 -0.22895123102310
 6  11.13960366836684 -1.19562161666167  1.11112768116812
 6 -11.06869166336634  1.63306892869287 -0.61190006370637
 6  11.60100068776878  0.37894902000200 -2.15986446504650
 6  12.50525393879388  1.97367142224222 -0.33151467046705
 6 -12.91746933773377 -1.14525164386439  0.28067189708971
 6 -11.31973084108411 -0.75531870547055  2.21998014621462
 6  9.70956901950195  0.87279339293929  0.36686868736874
 6 -9.84001380828083 -0.60944348644864 -0.31465555335534
 6  10.12726690299030 -1.55608542024202  2.24189682458246
 6 -10.16111908210821  2.03921566066607 -1.63032449734974
 6  8.42178841854185  0.41656161236124  0.26617482368237
 6 -8.50283324172417 -0.27931779707971 -0.21375769866987
 6  7.29322789098910  1.36233503380338  0.33414602720272
 6 -7.47944683858386 -1.30342881798180 -0.43371376827683
 6  7.60618366806681  2.88300093729373  0.31923436043604
 6 -7.94532172037204 -2.70169018011801 -0.69786706430643
 6  6.09316321782178  0.75657004600460  0.32552471147115
 6 -6.13290190009001 -0.84192501510151 -0.27237934963496
 6  4.74344499519952  1.49519185108511  0.42124178317832
 6 -5.01673128492849 -1.70517649544954 -0.45410679227923
 6  3.61784049564957  0.83650121532153  0.18324027332733
 6 -3.73018840404040 -1.07799843254325 -0.46599903760376
 6  2.32033533493349  1.41267197489749  0.20456494439444
 6 -2.47017601700170 -1.85189024772477 -0.68661194129413
 6  2.19697406900690  2.84001336783678  0.32730710401040
 6 -2.47159770517052 -3.34530805730573 -1.11023237333733
 6  1.17066861536154  0.54143548514852 -0.10006508950895
 6 -1.31708988208821 -1.15484405640564 -0.51281998709871
 6  1.16449082128213 -0.85149009620962 -0.43613113281328
 6  0.01549208880888 -1.61548778857886 -0.58305206120612
 1  14.08534864066407 -0.18815638613861  0.26701474437444
 1  13.96108312211221 -0.34383275897590 -1.47494103250325
 1 -12.39697606260626  1.62582497269727  2.19209277407741
 1 -13.97477833543354  0.65106459875988  1.85898233633363
 1  13.95143576557656 -2.48084890259026 -0.25205865166517
 1  12.37348323002300 -2.44372827282728 -1.18073419671967
 1 -13.99079246744674  2.73702706270627  0.64142518011801
 1 -13.72091687548755  1.41770144434443 -0.46235025712571
 1  13.05498746254626 -1.89623212981298  1.92272415441544
 1  11.89366682118212 -2.99401309340934  1.22978983458346
 1 -11.42476226832683  3.27543526422642  0.56356287328733
 1 -12.01246746064607  3.39438294609461 -1.16969087028703
 1  11.52966633713371 -0.59439251655166 -2.50014814751475
 1  12.35438231893189  0.99593425472547 -2.59703627762776
 1  10.66155372667267  0.89410252195220 -2.09909062856286
 1  12.61134208830883  2.11593849574958  0.84521186168617
 1  11.82610101700170  2.70565047594759 -0.61735589258926
 1  13.39730158645865  2.30997126702670 -1.02618488958896
 1 -13.23417264796480 -0.64127813681368 -0.53934003470347
 1 -13.71591376397640 -1.27994379857986  0.99553677437744
 1 -12.41137874107411 -2.05059346424642 -0.00671655415542
 1 -10.78829132003200 -0.06122176157616  2.62182184128413
 1 -10.80768729412941 -1.42075307600760  1.84485850205021
 1 -12.15476954095410 -1.28852332023202  2.90960948904890
 1  9.81763517011701  2.04343920402040  0.22044795269527
 1 -10.16253069776978 -1.59325443544354 -0.56721309930993
 1  9.41685576307631 -0.59198679337934  2.51458521612161
 1  10.70033084718472 -2.00902710061006  3.15686711671167
 1  9.47737980518052 -2.42722257225723  1.76456607820782
 1 -9.31694873017302  1.32826513911391 -1.97497999489949
 1 -9.45169997489749  2.67443096509651 -1.28583863006301
 1 -10.60248051305131  2.79293429882988 -2.39598957225723
 1  8.25665125592559 -0.60926170637064  0.39342239183918
 1 -7.79571296649665  0.71831602570257  0.15764211171117
 1  8.32873610571057  3.30363539943994  1.04375375787579
 1  6.58081996269627  3.19827753195320  0.31850443014301
 1  7.98290252795280  3.29572823482348 -0.67694091699170
 1 -8.34991594379438 -2.70873793289329 -1.69801649524952
 1 -8.63379436773677 -2.96006919421942  0.05438157745775
 1 -7.17090164276428 -3.44167681898190 -0.56547543274327
 1  6.12215307980798 -0.25039026582658  0.42100008330833
 1 -6.19990197479748  0.15617755625563 -0.14047432423242
 1  5.01542489978998  2.59525796989699  0.79558246504650
 1 -5.06487658795880 -2.74500801720172 -0.60804294539454
 1  3.50246051275128 -0.11045561546155  0.27766740514051
 1 -3.72208984018402 -0.10643431353135 -0.14923679037904
 1  2.51114181358136  3.22303269936994  1.11820047534753
 1  1.06243344414441  2.98757948974897  0.10500022752275
 1  2.84843190199020  3.30829130263026 -0.35538950855086
 1 -3.22882475207521 -3.57899625552555 -2.00629564036404
 1 -3.10830243604360 -3.86964895779578 -0.29008435703570
 1 -1.42409338063806 -3.58218855325533 -1.47626985338534
 1  0.29229162996300  1.03501941714171 -0.14485384018402
 1 -1.50634172277228 -0.13283529632963 -0.12278000410041
 1  2.08563710821082 -1.24608365806581 -0.59165873007301
 1  0.29090960176018 -2.74060910321032 -0.84092495339534

