%nproc=4
%Mem=2GB
# td=(NStates=1) B3LYP/6-31G(d,p) 

TD

0 1
 6  12.13448779137914  0.52982358285829 -0.67300341924192
 6 -12.03063537763776 -0.00049509110911  0.95818499739974
 6  13.45181459415942 -0.31983164316432 -0.41843784278428
 6 -12.99937643754375  1.19635402690269  1.42523323772377
 6  13.16492880708071 -1.72718839123912 -0.50787254605461
 6 -13.51197579367937  1.91269978207821  0.16726709380938
 6  11.11500329422942 -0.01425716121612  0.27175471327133
 6 -11.07271493929393  0.32359224152415 -0.02154978977898
 6  12.37350178757876 -2.07946024002400  0.74940891719172
 6 -12.28620850345034  2.61603191139114 -0.49571790769077
 6  11.17135684368437 -1.18237029152915  0.95034160256026
 6 -11.12548734293429  1.49695531733173 -0.78400727442744
 6  11.66152674037404  0.60226135123512 -2.15580405900590
 6  12.58911232463246  2.00022407750775 -0.23134465346535
 6 -12.94883247404741 -1.16117323602360  0.47240107000700
 6 -11.31808067606761 -0.49490266386639  2.29715786398640
 6  9.94950301290129  0.89803591719172  0.27991999249925
 6 -10.00194000090009 -0.72674521662166 -0.25455954375438
 6  10.18090226652665 -1.74722453415342  1.91915455035504
 6 -10.24232720292029  1.97299903900390 -1.97797926282628
 6  8.60955719541954  0.41433138933893  0.26919512571257
 6 -8.65003796219622 -0.29360922622262 -0.27415373827383
 6  7.39496806500650  1.29004780508051  0.35976858945895
 6 -7.53278217211721 -1.20317879297930 -0.57887828472847
 6  7.67785083478348  2.68101073827383  0.72946538353835
 6 -7.89995718391839 -2.69831984308431 -0.82026930453045
 6  6.15464936643664  0.67099148814881  0.17278943794379
 6 -6.19217782768277 -0.78048887148715 -0.40386249794979
 6  4.87719837053705  1.36753908580858  0.28384804380438
 6 -5.01700131193119 -1.55637161496150 -0.44335571717172
 6  3.74549326092609  0.62571013621362  0.13083503280328
 6 -3.77746313151315 -1.04813544624462 -0.42561499919992
 6  2.42859616101610  1.26146685438544  0.32464695259526
 6 -2.57693669306931 -1.77226228492849 -0.52075535563556
 6  2.40817518911891  2.81309067556756  0.51436580988099
 6 -2.65860640604060 -3.19380290679068 -0.70685203530353
 6  1.25128667716772  0.55924726632663  0.06935185218522
 6 -1.41429960306031 -1.08200677267727 -0.34021272637264
 6  1.06546091829183 -0.88333328052805 -0.04837235693569
 6 -0.00684014441444 -1.55338157795780 -0.28603235923592
 1  13.87776788258826 -0.12407997849785  0.54985302820282
 1  14.14917193099310  0.12114373867387 -1.26634017241724
 1 -12.48169453445344  2.01457384758476  1.96185975077508
 1 -13.74922578017802  0.54644413671367  2.07759419751975
 1  13.91010163216322 -2.30076089378938 -0.40467391319132
 1  12.69620550225022 -2.09607350735073 -1.39885600890089
 1 -14.32837622582258  2.70980434043404  0.49857089468947
 1 -14.04413919771977  1.42472214641464 -0.63900792289229
 1  12.85433739753975 -2.23133564016402  1.70440232223222
 1  11.85583303780378 -3.26850054215421  0.63421027662766
 1 -11.62626241834183  3.42100982168217 -0.11933541654165
 1 -12.66907312121212  3.06958046584658 -1.36996089728973
 1  11.52716608710871 -0.43509658695870 -2.59600773347335
 1  12.28782566326633  1.12850751205121 -2.77760433443344
 1  10.85068263956396  1.33056616831683 -2.19761048054805
 1  12.75574652875288  2.00579748164817  0.67912525302530
 1  11.69786819371937  2.78601851275128 -0.24592874987499
 1  13.37935979227923  2.22236250615061 -1.00962323342334
 1 -13.13914314501450 -0.89864387338734 -0.63360946164616
 1 -13.73443561616162 -1.56780258445845  1.20321754245425
 1 -12.39700730393039 -2.14529293419342  0.17387150465047
 1 -10.66689918081808  0.17051141174117  2.69955961506151
 1 -10.64591111651165 -1.52752375307531  2.40656467266727
 1 -12.06625068906891 -0.80059452735274  3.13147167526753
 1  10.20840424702470  1.89047390749075  0.34462036993699
 1 -10.24317876257626 -1.57175228522852 -0.55754213221322
 1  9.29726380388039 -0.94131172587259  2.11577533513351
 1  10.43521433553355 -2.23499969786979  2.89513094309431
 1  9.75112717991799 -2.68080793079308  1.50287990959096
 1 -9.54043107840784  1.07894020662066 -2.06151864876488
 1 -9.86942174707471  3.11290481248125 -1.71414146034603
 1 -10.91325159015902  2.12673767916792 -3.09748972227223
 1  8.49620521132113 -0.68832961316132  0.21328437803780
 1 -8.53746714191419  0.68901309540954 -0.10600425292529
 1  8.48223145524553  2.65624065996600  1.46569595209521
 1  6.78645052575258  3.24097180138014  0.93191577127713
 1  8.21244548224823  2.99466812881288 -0.07107032993299
 1 -8.52020297249725 -2.61677873697370 -1.75853254685469
 1 -8.43404439273927 -3.33429661696170  0.05309144844484
 1 -7.07609216181618 -3.48861151245124 -1.07956684188419
 1  6.28057892239224 -0.35979120592059  0.06658464176418
 1 -6.00960294489449  0.33888582708271 -0.15147542434243
 1  4.72488584588459  2.40745919001900  0.59191209800980
 1 -5.03651375167517 -2.64391790819082 -0.59999214031403
 1  3.78945921262126 -0.43276784668467 -0.17194755635564
 1 -3.89076670787079  0.06077240714071 -0.32086395309531
 1  2.85832653205320  3.16489688578858  1.52241089638964
 1  1.41789899069907  3.04214494629463  0.51172089958996
 1  2.92733979277928  3.08050852435243 -0.34501847144714
 1 -3.30403227282728 -3.58692704860486 -1.59382439323932
 1 -3.02017362316232 -3.75267726062606  0.16529118051805
 1 -1.61813278457846 -3.67420775517552 -1.00659288568857
 1  0.38084048484848  1.17845376057606 -0.11626098089809
 1 -1.38824991359136  0.07422540974097 -0.28853657975798
 1  2.09278782328233 -1.20606965666567  0.06633706950695
 1  0.25378588938894 -2.48029307160716 -0.46124698559856

