%nproc=4
%Mem=2GB
# td=(NStates=1) B3LYP/6-31G(d,p) 

TD

0 1
 6  12.20938528112811  0.54012461296130 -0.65244136303630
 6 -12.24330664476448 -0.05666070767077  0.84017319621962
 6  13.56779619231923 -0.22816247624762 -0.43307930693069
 6 -13.10403690359036  1.10743513501350  1.20275098949895
 6  13.31766408060806 -1.70400607300730 -0.46873863266327
 6 -13.39726432253225  2.04238275037504  0.01397176427643
 6  11.05905769966997 -0.04834056955696  0.25724326212621
 6 -11.01991965976598  0.45742562486249  0.02672503770377
 6  12.46834127152715 -2.03816611061106  0.74135811211121
 6 -12.18034791739174  2.60585089328933 -0.53036137203720
 6  11.20123983198320 -1.20987304180418  0.89101566996700
 6 -11.07560235443544  1.61736735853585 -0.70889976367637
 6  11.72297288498850  0.53167429252925 -2.17414589318932
 6  12.48698211161116  2.18138219331933 -0.37854937393739
 6 -12.97330492129213 -1.00613773247325  0.12369619951995
 6 -11.72789165716572 -0.70389356295630  2.21686983518352
 6  9.85837389999000  0.77895400900090  0.43074507500750
 6 -9.96792659955996 -0.48238078017802 -0.12450653845385
 6  10.17518169446945 -1.70620043174317  1.95389802470247
 6 -9.97907087728773  2.17625936503650 -1.60486195109511
 6  8.56990323002300  0.29583954015402  0.35921412761276
 6 -8.55435839423942 -0.35436530183018 -0.15807213011301
 6  7.45686425462546  1.24832363266327  0.38938155075508
 6 -7.54722361626163 -1.26686516161616 -0.29106950385038
 6  7.65081813151315  2.83276591379138  0.53268570557056
 6 -7.95895308350835 -2.76019603070307 -0.44808208580858
 6  6.22604650615061  0.74737912691269  0.27063922292229
 6 -6.24213282318232 -0.77294811741174 -0.21930404210421
 6  4.90406105680568  1.33085541744174  0.37863752275228
 6 -5.10503011481148 -1.54726070387039 -0.46400778237824
 6  3.71600031163116  0.72324989018902  0.27446939623962
 6 -3.87770315551555 -1.15064569726973 -0.37952038973897
 6  2.38335163656366  1.25757646534653  0.21589607750775
 6 -2.54361336073607 -1.84763982268227 -0.52774605470547
 6  2.18219259085909  2.66097546404640  0.46253062636264
 6 -2.60312085748575 -3.34227775427543 -0.74926627672767
 6  1.33620516901690  0.46340768236824  0.01389630663066
 6 -1.33047122022202 -1.16529510151015 -0.43811251635164
 6  1.15157953015302 -0.96903185038504 -0.34859237893789
 6  0.05145568516852 -1.64243048284828 -0.53465722172217
 1  14.15416552235224  0.15059748924892  0.61979002190219
 1  14.15973298709871  0.13271489578958 -1.26342988138814
 1 -12.44064042904290  1.81375376557656  1.85600916571657
 1 -13.89513037063706  0.68180767306731  1.96825326342634
 1  14.16013663566357 -2.13835465316532 -0.64191763756376
 1  12.94941082278228 -1.82859675967597 -1.48185430873087
 1 -14.12236562476248  2.81072443244324  0.42244328192819
 1 -13.99443422722272  1.50669034323432 -0.92306632873287
 1  13.18799076287629 -1.95037754435443  1.52484436643664
 1  11.97487494199420 -3.10409410151015  0.96337319291929
 1 -11.70166995909591  3.51794951565156  0.04893141014101
 1 -12.30752696659666  2.96564007180718 -1.41806570777078
 1  11.64555792629263 -0.43776685398540 -2.77569570227023
 1  12.32768964966497  1.00378503980398 -2.81030760476048
 1  10.74649222052205  1.05685879757976 -2.18018873837384
 1  12.70070102420242  2.36557345924592  0.60339768026803
 1  11.58078648554855  2.96156606750675 -0.55008916591659
 1  13.42581443774377  2.54055432533253 -1.07777004810481
 1 -13.62531176187619 -0.65254926392639 -0.75010111081108
 1 -13.63092526512651 -1.59516532073207  0.92105932663266
 1 -12.49209681288129 -1.94033243814381 -0.28865474797480
 1 -11.35623811471147  0.13235759635964  2.73466312541254
 1 -10.96637316271627 -1.37215821652165  1.99116313251325
 1 -12.70922498649865 -1.06525099299930  2.70375890399040
 1  10.13081648824883  1.81963682378238  0.84194010191019
 1 -10.25374981968197 -1.44129923992399 -0.16027240524052
 1  9.23967804530453 -0.95513310801080  2.33996775437544
 1  10.67012782688269 -1.89457565546555  2.81465289528953
 1  9.65697776497650 -2.58740859085909  1.46540616221622
 1 -9.26079311461146  1.29777208980898 -1.90008250515052
 1 -9.35968077297730  2.82844636663666 -0.94335438163816
 1 -10.26245651065107  2.67886289168917 -2.50510048334833
 1  8.34476006680668 -0.66578735893589  0.11257430703070
 1 -8.33050644584458  0.58255244934493  0.16679302680268
 1  8.15285851795180  2.99709474537454  1.62494187668767
 1  6.76819870057006  3.38852655685569  0.42198477817782
 1  8.41435567326733  3.07021568356836 -0.20549377227723
 1 -8.25899685188519 -2.94984204330433 -1.53742043564356
 1 -8.55596658495850 -3.11703489078908  0.34629076837684
 1 -7.23332788538854 -3.65475812711271 -0.07693657885789
 1  6.20438130263026 -0.34639986678668  0.49464744804480
 1 -6.16192817741774  0.34430636913691 -0.16673695049505
 1  4.95647900520052  2.44051249534953  0.37165007180718
 1 -5.25394549484948 -2.46212972937294 -0.74328646974697
 1  3.74127439413941 -0.30785535543554  0.16222586098610
 1 -3.92450008120812  0.04165049494949  0.13135126842684
 1  2.85819651905190  2.92876327242724  1.32669132443244
 1  1.11484868566857  2.88255898769877  0.51672139963996
 1  2.48763582238224  3.44141461496150 -0.33693766336634
 1 -3.23993586318632 -3.60612896879688 -1.70080509130913
 1 -2.84742634843484 -3.76595858875888  0.27046169756976
 1 -1.63709468076808 -3.66720705510551 -1.12374460086009
 1  0.24565696649665  0.88223413861386 -0.05014436923692
 1 -1.69121020962096 -0.17636964976498 -0.33368109420942
 1  2.01044958945895 -1.59168821852185 -0.62431199539954
 1  0.08810932173217 -2.80891593389339 -0.61546240714071

