%nproc=4
%Mem=2GB
# td=(NStates=1) B3LYP/6-31G(d,p) 

TD

0 1
 6  12.20456479907991  0.52549314981498 -0.56775289418942
 6 -12.16183849794979 -0.16433147474747  0.89126830573057
 6  13.45588500120012 -0.39241890189019 -0.46456245524552
 6 -12.98631513141314  1.04438883038304  1.36720743514351
 6  13.13454576877688 -1.87801347374737 -0.41767352615262
 6 -13.56395099119912  1.98539705180518  0.22287265436544
 6  11.05599739363936 -0.07556329182918  0.35454299209921
 6 -11.09860752855285  0.38656853915392 -0.10444807960796
 6  12.20063450085009 -2.26920921492149  0.76560053635364
 6 -12.26618650125013  2.61870217841784 -0.43932226812681
 6  11.06247595559556 -1.25959801430143  0.94674124252425
 6 -11.14446924112411  1.65992161396140 -0.64359323302330
 6  11.72501308900890  0.55537666276628 -2.02493097169717
 6  12.67032044544455  1.87003105820582 -0.16904842384238
 6 -13.10020761156116 -1.16283340204020  0.11162499239924
 6 -11.56479534753475 -0.76529970357036  2.09912806100610
 6  9.88956701930193  0.87161327492749  0.34533653415342
 6 -9.99339914681468 -0.54595713781378 -0.28333242104210
 6  10.17985216151615 -1.75277508920892  2.03805644054405
 6 -9.99193216341634  1.99158089718972 -1.62679414431443
 6  8.55145138483848  0.54980493669367  0.29637784398440
 6 -8.65494845324532 -0.38473833913391 -0.20879720262026
 6  7.53404197239724  1.34853365366537  0.43152576517652
 6 -7.57477637153715 -1.39962843794379 -0.24476487338734
 6  7.79166221592159  2.87192983018302  0.48895133213321
 6 -7.86137332553255 -2.78321833293329 -0.46149342694269
 6  6.22031593309331  0.84437882688269  0.15780793979398
 6 -6.32967157705771 -0.80779160176018 -0.16929904160416
 6  4.85274592529253  1.52322465436544  0.14147380638064
 6 -5.09612922472247 -1.63572955075508 -0.33441482308231
 6  3.77859657125713  0.84604216941694  0.00785273457346
 6 -3.79288467366737 -0.99777040974097 -0.39240167786779
 6  2.44058736013601  1.36984769246925  0.04743923182318
 6 -2.47580658005801 -1.67189224792479 -0.57860114021402
 6  2.31440581218122  2.76509587608761  0.37891226452645
 6 -2.56918746414641 -3.17215074157416 -0.90049139923992
 6  1.39409095759576  0.64731607320732 -0.10928601160116
 6 -1.32873104620462 -1.03331190319032 -0.42308101320132
 6  1.17468184038404 -0.80741568876888 -0.34206172587259
 6  0.00674121372137 -1.60840708050805 -0.40223397939794
 1  14.05606571237124 -0.29854742524252  0.45237328022802
 1  14.01898891269127 -0.26670504620462 -1.36012955135514
 1 -12.39089545454545  1.62406479667967  2.07468103290329
 1 -13.96309716731673  0.62015150745075  1.98445488358836
 1  13.97576819881988 -2.34989580728073 -0.20908435423542
 1  12.68811469316932 -2.23426732673267 -1.45606172947295
 1 -14.10371375957596  2.83131649164916  0.60876191379138
 1 -14.20551533533353  1.57193686788679 -0.52382640474047
 1  12.81951391519152 -2.25353786038604  1.63882576457646
 1  11.79488694319432 -3.14974866696670  0.42381923752375
 1 -11.95437522962296  3.39892761346135  0.07141365836584
 1 -12.51781799569957  3.18233174097410 -1.45329923112311
 1  11.59021239173917 -0.41377445474548 -2.46962509520952
 1  12.38282516321632  1.07191185248525 -2.83714028802880
 1  10.69469704100410  1.15653876557656 -2.06307702720272
 1  12.91215216931693  2.13705060696070  0.91939928042804
 1  11.85460386728673  2.77279719061906 -0.42445660266027
 1  13.65493735003500  2.16791706160616 -0.75642791389139
 1 -13.54664389508951 -0.79147315631563 -0.78430453115312
 1 -13.88990116271627 -1.44513031723172  0.69348656935694
 1 -12.50845844904491 -2.11718012291229  0.10741485898590
 1 -10.94307679857986 -0.06318195759576  2.73937359645965
 1 -11.08900542594260 -1.62816381708171  1.93085710191019
 1 -12.45645970997100 -1.02884735263526  2.96311483958396
 1  10.15819922652265  1.74921978207821  0.76730263816382
 1 -10.20623506820682 -1.62032714271427 -0.24849122712271
 1  9.51954603210321 -0.84522211691169  2.47223098069807
 1  10.80581139523952 -2.08362456035604  2.87953938393839
 1  9.70034210141014 -2.62546239623962  1.62515213681368
 1 -9.27075411071107  1.24366667926793 -1.92452494939494
 1 -9.27553235813581  2.70696421842184 -1.30116016221622
 1 -10.37498776377638  2.57941294669467 -2.61668164146415
 1  8.34551014181418 -0.60290107030703  0.10491354095410
 1 -8.41074446964696  0.63326752085209 -0.16840049254926
 1  8.20922415451545  3.13651868776878  1.38592797529753
 1  6.77141902260226  3.26082378657866  0.57455003470347
 1  8.39446368406841  3.20227888988899 -0.27727094999500
 1 -8.65210616281628 -2.88813587268727 -1.28018471207121
 1 -8.19811079937994 -3.04252744004400  0.60006614591459
 1 -6.96876142874287 -3.32578522982298 -0.76345523072307
 1  6.20072093659366 -0.27099232603260  0.11266925022502
 1 -6.00220220482048  0.40111204970497  0.24291401460146
 1  4.81493485078508  2.48442688678868  0.40994390119012
 1 -5.28277837813781 -2.79394291069107 -0.19522166326633
 1  4.07421768846885 -0.22145671557156 -0.20803116471647
 1 -3.65442307350735  0.12218854875488 -0.14275614231423
 1  2.62671337073707  3.01808220432043  1.54264291959196
 1  1.30493769456946  3.13515424722472  0.54294402190219
 1  2.91930898969897  3.41311178467847 -0.18294226382638
 1 -2.81986385598560 -3.22782113801380 -1.97443245404540
 1 -3.23182478827883 -3.65547754065407 -0.13145849444944
 1 -1.68098907020702 -3.60863119751975 -0.69938216461646
 1  0.41847424822482  1.14916083128313 -0.13868322312231
 1 -1.22077316591659  0.05279326652665 -0.32537026312631
 1  2.08969751425142 -1.38091714141414 -0.24794435863586
 1  0.07688819961996 -2.66871191349135 -0.43328418931893

