%nproc=4
%Mem=2GB
# td=(NStates=1) B3LYP/6-31G(d,p) 

TD

0 1
 6  12.08571291389139  0.53525412591259 -0.64894101300130
 6 -12.09739205330533  0.00618557695770  0.92739191809181
 6  13.38405781848185 -0.35700536053605 -0.59358535753575
 6 -12.83510000990099  1.20908530003000  1.35933664806481
 6  13.11198351255126 -1.90205587798780 -0.52152391119112
 6 -13.31888648474847  2.09112762486249  0.18468883598360
 6  10.97728952285228  0.07159142364236  0.19872741054105
 6 -11.00365803360336  0.43148303060306 -0.10246788158816
 6  12.20806524392439 -2.19927222122212  0.53327730403040
 6 -12.11421130373037  2.60086039423942 -0.73036137203720
 6  11.00996070407041 -1.17541959645965  0.82379894829483
 6 -11.02596739093909  1.56086170797080 -0.79734860856086
 6  11.72537312501250  0.68440956605661 -2.17555603420342
 6  12.57212062546255  1.99539359445945 -0.31379289828983
 6 -13.08559615041504 -0.99073619231923  0.21944577447745
 6 -11.51427029502950 -0.74485765936594  2.12548069626963
 6  9.80626868946895  0.88722483608361  0.37933993449345
 6 -9.85709551645165 -0.49043158525853 -0.26250033783378
 6  10.19622379867987 -1.63725353705371  1.94240687558756
 6 -10.04605757595760  1.91280301940194 -1.86249771467147
 6  8.55051129082908  0.52050200640064  0.29948815501550
 6 -8.55092805120512 -0.24262412771277 -0.20347667056706
 6  7.40608917711771  1.36390519081908  0.33188580118012
 6 -7.50763965786579 -1.22552102720272 -0.48750914781478
 6  7.60884393409341  2.84428706590659  0.75523796079608
 6 -7.97734492269227 -2.59718973007301 -0.73670094769477
 6  6.14794869636964  0.91464585358536  0.14002616161616
 6 -6.15237384728473 -0.85603642624262 -0.35335744744474
 6  4.94153480418042  1.46516884878488  0.35914557355736
 6 -5.08260787258726 -1.72826880468047 -0.46729811141114
 6  3.74887359895990  0.83353091829183  0.18716066536654
 6 -3.73714910011001 -1.33610424312431 -0.25624806250625
 6  2.34671797319732  1.31678238593859  0.34883937183718
 6 -2.47755675507551 -1.97438249694970 -0.29008228832883
 6  2.15942031363136  2.64993435993599  0.71382575587559
 6 -2.40949149454946 -3.50194372087209 -0.55593694379438
 6  1.29125067356736  0.51081242284228  0.27444236123612
 6 -1.39523769686969 -1.19063763576358 -0.17728643374337
 6  1.12380675287529 -0.88165311251125 -0.22971049074907
 6 -0.04971443184318 -1.57963420322032 -0.30721447744774
 1  13.96805691149115 -0.16659422992299  0.36297434033403
 1  13.99097611141114 -0.11635001070107 -1.40230376877688
 1 -12.12395876087609  1.70202259245925  2.17819138393839
 1 -13.70065092269227  0.91588108040804  2.02668910701070
 1  13.97277789978998 -2.55226604430443 -0.39763320912091
 1  12.78191407310731 -2.55494939493949 -1.56803292659266
 1 -13.93917730593059  2.91556491649165  0.62131316891689
 1 -13.96110089388939  1.57613728792879 -0.43296731883188
 1  12.61822378617862 -2.23631613821382  1.61934381638164
 1  11.71411886638664 -3.15084877697770  0.49852670827083
 1 -11.77660745284529  3.67689541024102 -0.48734221722172
 1 -12.47589380328033  2.71264477227723 -1.81667556875688
 1  11.39181255175517 -0.22412548984899 -2.69713784648465
 1  12.68668554925493  1.01350601190119 -2.63946052005201
 1  10.86106367766777  1.28087119881988 -2.27816853635364
 1  12.80515146924693  2.00531743364336  0.73337067756776
 1  11.62689109600960  2.66617652855286 -0.72782693969397
 1  13.37723958025803  2.23227349724972 -0.96611888298830
 1 -13.70221945264526 -0.48301231023102 -0.67463356405641
 1 -13.79723189578958 -1.42893869806981  1.01740896159616
 1 -12.49563716691669 -1.97937634253425 -0.33670955345535
 1 -10.50734322522252 -0.09373501290129  2.68980863996400
 1 -11.13453997939794 -1.63518451915192  1.78910292649265
 1 -12.25254931893189 -0.89902437033703  2.96787531563156
 1  9.97143054965497  1.98658351845184  0.37033294119412
 1 -10.39613405810581 -1.42204731473147 -0.24959133713371
 1  9.66632070957096 -1.01150874557456  2.31238499609961
 1  10.95424623872387 -2.05802200010001  2.71570300030003
 1  9.42951501870187 -2.48721857185719  1.57420704230423
 1 -9.40314735003500  0.82584489708971 -2.03928642554255
 1 -9.50175498039804  2.78847236923692 -1.39508955515552
 1 -10.75318558355836  2.22302730813081 -2.68063803710371
 1  8.06425201600160 -0.62063284348435  0.15854890449045
 1 -8.22558595379538  0.86109030313031 -0.15862951545155
 1  8.24747797989799  2.91980701660166  1.77075645814581
 1  6.77366924762476  3.44596230043004  0.99890246994699
 1  8.22234647234724  3.42738140014001 -0.03784700760076
 1 -8.62387333953395 -2.43607066616662 -1.69636633023302
 1 -8.61305229352935 -3.07161034833483  0.01002714201420
 1 -7.19643419601960 -3.41136378767877 -1.04473335853585
 1  6.20447131163116 -0.16284151095110 -0.20272228892889
 1 -5.89705168976898  0.16797873637364 -0.41934221102110
 1  4.83647700500050  2.53057150125013  0.62419532633263
 1 -5.31571167146715 -2.85211872827283 -0.76074821592159
 1  4.05222548924892 -0.23083765366537 -0.30588094969497
 1 -3.44484211541154 -0.33204687478748 -0.06851871857186
 1  2.73838453785379  2.94552494859486  1.61930058535854
 1  1.10369757055706  2.95462619441944  1.19665939343934
 1  2.37238429722972  3.47402787628763 -0.07629159875988
 1 -2.92014388398840 -3.68652700860086 -1.44575958675868
 1 -3.05802740854085 -3.87905989888989  0.16314096549655
 1 -1.43772474377438 -3.95152548694869 -0.48104033043304
 1  0.33036543734373  1.01014692989299  0.29300994619462
 1 -1.42070315891589 -0.08093010581058  0.08561083498350
 1  2.03674221872187 -1.50088913861386 -0.24944450865087
 1 -0.00522001120112 -2.67532257455746 -0.65189605050505

