%nproc=4
%Mem=2GB
# td=(NStates=1) B3LYP/6-31G(d,p) 

TD

0 1
 6  12.11552589518952  0.53539413991399 -0.70978709760976
 6 -12.14243655775578 -0.05279032063206  0.87248642754275
 6  13.41385079777978 -0.34061372137214 -0.54387038603860
 6 -12.99418591849185  1.16269066056606  1.37274798919892
 6  13.09643195739574 -1.82056772917292 -0.49974173297330
 6 -13.38592318841884  2.09883839593959  0.29841020812081
 6  11.05554734863486  0.03705797029703  0.30554809260926
 6 -10.98036570437044  0.44396427872787 -0.08801643644364
 6  12.35238967636764 -2.00649294329433  0.83723770007001
 6 -11.99695957855785  2.69573988218822 -0.40639897579758
 6  11.14483419141914 -1.14536659115912  1.04281084948495
 6 -11.00332512671267  1.64178980078008 -0.65257413111311
 6  11.56850743844385  0.49576070117012 -2.15765424402440
 6  12.55550896429643  1.90430448554855 -0.45761728072807
 6 -13.00739833063306 -1.09963708240824  0.17660149004900
 6 -11.48180704870487 -0.73365653925393  2.09050719891989
 6  9.78048611121112  0.91245735933593  0.31252325282528
 6 -9.90601040794079 -0.53411595369537 -0.27969205700570
 6  10.00531470777078 -1.61597140884088  2.04662729762976
 6 -9.96269924012401  2.15394713381338 -1.66662812771277
 6  8.48607484718472  0.46963691989199  0.29775798199820
 6 -8.54893785218522 -0.31719158445845 -0.28197452035204
 6  7.36198476667667  1.34468326862686  0.37600021262126
 6 -7.50927982188219 -1.32555103020302 -0.49649004590459
 6  7.68286133583358  2.89510214741474  0.53807624462446
 6 -7.90225741394139 -2.78105811691169 -0.60549782738274
 6  6.14970887238724  0.84194858385839  0.18312047104710
 6 -6.23651226112611 -0.91828265086509 -0.49851196289629
 6  4.82307295799580  1.45111744364436  0.31190084908491
 6 -4.97193680548055 -1.60666664446445 -0.56239762136214
 6  3.76291500310031  0.70992855805581  0.18840078937894
 6 -3.79991537673767 -1.13819445214521 -0.32851528922892
 6  2.47044034543454  1.26894760246025  0.23365785368537
 6 -2.44147314671467 -1.97753281198120 -0.48471175127513
 6  2.21612598419842  2.69483885038504  0.56813118641864
 6 -2.58737928332833 -3.46447997449745 -0.71726307640764
 6  1.30007155565557  0.52120346194619  0.08878379537954
 6 -1.29676784988499 -1.12803137513751 -0.36656536163616
 6  1.15870024222422 -0.92904785198520 -0.13300081978198
 6  0.00199073867387 -1.65257149694969 -0.32552630863086
 1  13.94765487128713 -0.03236080658066  0.43890193309331
 1  14.28336535033503  0.07361898619862 -1.20404394279428
 1 -12.29466583158316  1.67045943614361  2.16494005880588
 1 -13.84819567716772  0.69392888518852  1.98214465256526
 1  14.12248287028703 -2.40649146684668 -0.35672911871187
 1  12.41140702240224 -2.16440034003400 -1.37392351565157
 1 -13.99899328752875  2.97966132613261  0.63170420802080
 1 -13.98118290209021  1.48406808100810 -0.46228025012501
 1  13.11781374517452 -1.96974948154816  1.61708359035904
 1  11.74206166066607 -3.08519221132113  1.13341019661966
 1 -11.73745353745375  3.79365708640864  0.10358687568757
 1 -12.47336355025503  3.19357286508651 -1.28582248344834
 1  11.38876224672467 -0.53576665396540 -2.61955008770877
 1  12.19209609030903  0.98476313761376 -2.83089966396640
 1  10.59205677697770  1.03507661936194 -2.38225894539454
 1  12.77665861996200  2.01802870477048  0.67580492099210
 1  11.74515292219222  2.63821373227323 -0.66246040304030
 1  13.56989884618462  2.00381065096510 -0.95976824792479
 1 -13.44310354105411 -0.86583059205921 -0.75346144684468
 1 -13.93292546514651 -1.20356616081608  0.84641186188619
 1 -12.29378698189819 -1.87009541444144 -0.10779666216622
 1 -10.96000849174917  0.08586294689469  2.67416707580758
 1 -10.88645517091709 -1.67266826752675  1.67462147834783
 1 -12.42190625462546 -1.16123059095910  2.72543107120712
 1  9.95994940154015  1.95152001210121  0.43890979887989
 1 -10.22629707440744 -1.60087519751975 -0.32741911991199
 1  9.26000007750775 -0.86955455015502  2.34289804740474
 1  10.39386020012001 -2.01914811271127  2.89907133713371
 1  9.52291435863586 -2.54454430443044  1.45958558015802
 1 -9.43574060936094  1.39559187178718 -2.16032852975298
 1 -9.36293109800980  2.96860038203820 -1.13338338453845
 1 -10.43704396939694  2.67282228762876 -2.36952692599260
 1  8.30563615441544 -0.62016279647965  0.08595164476448
 1 -8.29113250845085  0.68001219531953 -0.31692534503450
 1  8.26246947904790  2.97837287318732  1.45855523802380
 1  6.72756463716372  3.39982768696870  0.86242882258226
 1  8.28204244194420  3.15683434543454 -0.31774499739974
 1 -8.33153410561056 -3.08217527662766 -1.61148784238424
 1 -8.47841883018302 -3.13874706200620  0.11800794009401
 1 -7.18046259885989 -3.62346499779978 -0.51837072227223
 1  6.19372023652365 -0.23690891769177  0.12932091539154
 1 -6.04275626022602  0.16314825332533 -0.39044932173217
 1  4.65994935223522  2.58497694179418  0.41041394819482
 1 -5.21796189648965 -2.62039555595560 -0.64239638073807
 1  3.65308557525753 -0.37650222012201  0.07129676807681
 1 -3.70365799699970  0.05268159805981 -0.43501536823682
 1  2.74173487288729  2.94024442054205  1.66045470077008
 1  1.10912811361136  2.82376310811081  0.94349407690769
 1  2.58683574237424  3.41366183968397 -0.03814778437844
 1 -2.73685555515552 -3.64795315121512 -1.84297930873087
 1 -3.19048065386539 -3.91195318821882 -0.05294064266427
 1 -1.52745371667167 -3.84403473787379 -0.79787201360136
 1  0.18949134993499  1.03570948614861  0.09392003720372
 1 -1.56174726332633 -0.15440745354535 -0.17012473857386
 1  2.15695423992399 -1.58950800050005  0.23568400420042
 1  0.14851536233623 -2.73045808810881 -0.31770263116312

