%nproc=4
%Mem=2GB
# td=(NStates=1) B3LYP/6-31G(d,p) 

TD

0 1
 6  12.20720506310631  0.66883748424842 -0.63526964586459
 6 -12.13255556965697  0.07741269966997  0.99255843474347
 6  13.55217463016302 -0.18751841184118 -0.41576757575758
 6 -13.00493699359936  1.26918130963096  1.27790850525053
 6  13.25778809300930 -1.67963363576358 -0.56260801960196
 6 -13.50551514761476  2.17544605670567  0.07281764886489
 6  11.15069686358636  0.06667093159316  0.24824236203620
 6 -11.07039470727073  0.39697958025803 -0.12311994679468
 6  12.39667410481048 -2.05672796679668  0.65002897919792
 6 -12.19407929052905  2.56530683888389 -0.68333666956696
 6  11.20163987198720 -1.18608066256626  0.89268583698370
 6 -11.14289908410841  1.51870749254925 -0.83295216891689
 6  11.73655424312431  0.52950407550755 -2.11228970757076
 6  12.44454786818682  2.12254630973097 -0.30275179417942
 6 -13.13170076087609 -0.97827494619462  0.36077990789079
 6 -11.59063793179318 -0.43936711031103  2.28797694589459
 6  9.83547160976098  0.88227434103410  0.30524252475248
 6 -10.02204201110111 -0.62631517361736 -0.12768685648565
 6  10.15350952725272 -1.79490930263026  1.74901753665367
 6 -10.04550752095210  2.01846358545855 -1.81947341224122
 6  8.53977021672167  0.35592554875488  0.16053425962596
 6 -8.60846380478048 -0.40470033533353 -0.19395571847185
 6  7.37234580278028  1.20159896019602  0.29536214881488
 6 -7.49116801070107 -1.35047352245225 -0.40506090299030
 6  7.60463351305131  2.68103074027403  0.62235467246725
 6 -7.90987817601760 -2.75534554565457 -0.64020129772977
 6  6.21706560806081  0.73137752675268  0.31966412541254
 6 -6.24740335023502 -0.91368219081908 -0.37464957665767
 6  4.87803845454545  1.33685601750175  0.40033969296930
 6 -4.98434804660466 -1.79619559735974 -0.47474885648565
 6  3.65745445704570  0.75275284048405  0.29796174547455
 6 -3.71125651085109 -1.19930056275628 -0.37045948364836
 6  2.35864916631663  1.29135984368437  0.30312480038004
 6 -2.50923992339234 -1.86370142884288 -0.42284556465647
 6  2.30747511911191  2.72143150965096  0.70753512681268
 6 -2.55319586498650 -3.34307783428343 -0.95252660276028
 6  1.30406195469547  0.52274361596160  0.13030794779478
 6 -1.31132930603060 -1.20822939493949 -0.27054575967597
 6  1.17902227442744 -0.89976492369237 -0.17178469816982
 6  0.05669620922092 -1.68666490629063 -0.22853660966097
 1  14.14159426522652  0.09267169666967  0.62682072497250
 1  14.29544655845585  0.10658228252825 -1.31765530393039
 1 -12.60588695369537  1.83631602180218  2.18643220802080
 1 -13.89150000760076  0.91962145444544  1.85034147224723
 1  14.08781940394039 -2.41408222592259 -0.59542298809881
 1  12.79992587428743 -1.98172207220722 -1.39679580288029
 1 -14.10319370757076  3.17777113711371  0.24160519811981
 1 -14.18243302710271  1.63867354155416 -0.73811783388339
 1  13.05282724652465 -2.19721222782278  1.67690957295730
 1  12.05293274777478 -3.10976466856686  0.56452330793079
 1 -11.77766755885589  3.61851957265727 -0.16389987298730
 1 -12.59751596549655  2.93051655945595 -1.61696559775978
 1  11.73316668716872 -0.55503858115812 -2.34350248294829
 1  12.37945482618262  1.20040470177018 -2.77673424742474
 1  10.90699827112711  1.11192430413041 -2.35372609210921
 1  12.88628958305831  2.25389229112911  0.81926926742674
 1  11.65950435733573  2.64552446334634 -0.61546570357036
 1  13.18825068136814  2.36235650555055 -0.92320459155916
 1 -13.50483971467147 -0.36177018601860 -0.40703680438044
 1 -13.69489166176618 -1.42196800100010  1.14822204290429
 1 -12.32372997619762 -1.74775318021802 -0.15698158065807
 1 -10.98852134303430  0.26794115471547  2.68760841994199
 1 -10.90071659705971 -1.42506350705070  1.93792780898090
 1 -12.36845090909091 -0.63852832073207  3.19811833993399
 1  9.83461686828683  1.94081894199420  0.60756666456646
 1 -10.48381282598260 -1.71535664566457 -0.16379275727573
 1  9.32500657815782 -1.11144873957396  1.97324108170817
 1  10.66953776787679 -2.37549374727473  2.68453988398840
 1  9.55963803100310 -2.57520737073707  1.11722134373437
 1 -9.38595563086309  1.21619393199320 -2.23269576647665
 1 -9.73099790469047  2.98359188118812 -1.63833387958796
 1 -10.81511177617762  2.33828883428343 -2.68609858315832
 1  8.28162375317532 -0.71410219041904  0.08069111871187
 1 -8.36857025222522  0.73093728782878  0.01991833933393
 1  7.90632386448645  2.94177921382138  1.78572795529553
 1  6.62152403310331  3.34620232443244  0.58663124282428
 1  8.42400663836384  3.32697135913591 -0.15239846274627
 1 -8.37058801100110 -2.72796985608561 -1.73284997859786
 1 -8.70263125142514 -3.10956414371437  0.10954709400940
 1 -7.15002955555556 -3.58214086538654 -0.61252013721372
 1  6.27586845134513 -0.29273450025003 -0.26905892259226
 1 -6.18957094169417  0.16841878037804 -0.41123139993999
 1  4.89311266856686  2.53636208030803  0.37654056085609
 1 -5.13912401270127 -2.98361187758776 -0.36091823292329
 1  3.76792705940594 -0.29365393529353  0.18637827622762
 1 -3.57941557275728 -0.04118778887889 -0.23639550625062
 1  2.89401010041004  2.91282167826783  1.54312296759676
 1  1.25034223502350  3.00554128592859  1.03729345684569
 1  2.50550760956096  3.56887736123612  0.06266229662966
 1 -3.03919578917892 -3.41941029692969 -1.91636664746475
 1 -3.15862746854685 -3.76853884678468 -0.31297664626463
 1 -1.61147211851185 -3.86616695109511 -1.00522274867487
 1  0.39995239603960  1.05071098629863  0.25452609780978
 1 -1.36959804840484 -0.08435044784478  0.12487476137614
 1  2.16423496799680 -1.52858190789079 -0.05091465566557
 1  0.08203871467147 -2.93439848214821 -0.09285014591459

