%nproc=4
%Mem=2GB
# td=(NStates=1) B3LYP/6-31G(d,p) 

TD

0 1
 6  12.14573891649165  0.53531413191319 -0.79200531943194
 6 -12.14486680078008  0.02253721212121  0.83485266416642
 6  13.39152856555656 -0.36676633663366 -0.67064306330633
 6 -13.01422792269227  1.29199359085909  1.17494820922092
 6  13.09653196739674 -1.80136580898090 -0.71681344014401
 6 -13.36261085718572  2.03753226532653 -0.09152878577858
 6  11.05499729362936  0.09179344384438  0.19539707750775
 6 -11.03447111491149  0.39994987728773 -0.10046768156816
 6  12.37813225062506 -2.10618291229123  0.56753072937294
 6 -12.00967084968497  2.60611091929193 -0.59552788868887
 6  11.16722643064306 -1.10120217471747  0.85931249964997
 6 -11.03416821102110  1.53208883068307 -0.84981385508551
 6  11.57890847854786  0.57582870797080 -2.21910038863886
 6  12.47027044044404  2.12480653575358 -0.58608012701270
 6 -13.04751234203420 -1.05385250395040  0.06530035993599
 6 -11.65398426642664 -0.72380555415542  2.01681983018302
 6  9.85576363896390  0.92871898549855  0.38049004950495
 6 -9.94242404930493 -0.56046858895890 -0.25117920572057
 6  10.24931910821082 -1.64270408210821  1.89595223012301
 6 -10.02048501870187  2.06030776987699 -1.70938240314031
 6  8.59112535223522  0.51708166436644  0.32520072627263
 6 -8.58072103050305 -0.25027489278928 -0.24954127702770
 6  7.44236280448045  1.26341514181418  0.51841445404540
 6 -7.41522041594159 -1.33812228732873 -0.38212860976098
 6  7.57215026472647  2.72397503470347  0.95835827282728
 6 -7.89556674487449 -2.65274528562856 -0.66730400800080
 6  6.19338323982398  0.66917130613061  0.36189834883488
 6 -6.16707531743174 -0.85810663326333 -0.24258637033703
 6  4.83201385208521  1.23752608450845  0.55460511951195
 6 -4.94173378517852 -1.60222620042004 -0.26309769136914
 6  3.59002771437144  0.59876744194419  0.22405435473547
 6 -3.72751813701370 -1.10297092979298 -0.20967340504050
 6  2.31939524092409  1.21315202290229  0.31776626452645
 6 -2.52076107550755 -1.85154021272127 -0.27194047414741
 6  2.26117048864887  2.72228159465947  0.63014738803880
 6 -2.51627217261726 -3.30795432193219 -0.55154650475047
 6  1.20779232773277  0.52552389398940  0.23848876587659
 6 -1.35099327242724 -1.16839541154115 -0.18738744384438
 6  1.09307367956796 -0.91929687688769 -0.11970949064906
 6 -0.02231169156916 -1.68171441124112 -0.25034879087909
 1  14.02181228702870 -0.20704827532753  0.20897894079408
 1  14.07143415721572  0.05176680098010 -1.64905844424442
 1 -12.39950631563156  2.03639602980298  2.01218478327833
 1 -13.97795865346535  0.83250274257426  1.88302474057406
 1  14.04900552255225 -2.24744556225623 -0.74753819961996
 1  12.50336621832183 -2.02976687668767 -1.80943706700670
 1 -13.97667105530553  2.89130249024902  0.23846488408841
 1 -13.78432321612161  1.51308098229823 -0.86159018111811
 1  13.11387335113511 -1.87911041764176  1.46237811981198
 1  12.00804825932593 -3.07312100420042  0.73012986858686
 1 -11.64368416051605  3.15565328602860  0.19554607160716
 1 -12.18131434533453  3.34281778957896 -1.53509741094109
 1  11.27979134963496 -0.31072414971497 -2.42562069476948
 1  12.31250813151315  0.93081774307431 -2.95918249224923
 1  10.72114968626863  1.18597170887089 -2.25294601410141
 1  12.84132508660866  2.26601350325032  0.41225856635664
 1  11.63446185308531  2.75772568346835 -1.17112126912691
 1  13.38262011831183  2.40317058695870 -1.21511378247825
 1 -13.52656188688869 -0.60389439843984 -0.69917601830183
 1 -13.95637781038104 -1.40117592179218  0.52977019771977
 1 -12.32129973317332 -1.84361276617662 -0.17057293979398
 1 -10.95171766266627 -0.13837947734773  2.66787644674467
 1 -10.92979950535054 -1.67414841554155  1.77689170537054
 1 -12.49131319531953 -1.04110857875788  2.55007353545354
 1  10.27907131373137  2.02673753385338  0.62185809370937
 1 -10.13280772547255 -1.80433554355436 -0.55469184718472
 1  9.39673375087509 -0.89586718141814  2.19006276387639
 1  10.85042585668567 -1.72941913981398  2.72646407640764
 1  9.86462853005301 -2.66410626062606  1.53481310291029
 1 -9.50090712601260  1.07284959755976 -2.22133463036304
 1 -9.29010381528153  2.78821234323432 -1.20460050625063
 1 -10.68234849984999  2.45543054845485 -2.44990496379638
 1  8.38505409620962 -0.53987476767677 -0.22635958635864
 1 -8.20035343054305  0.71724591869187  0.22291863936394
 1  8.06039927202720  2.91513654955496  1.86603598609861
 1  6.68698057875788  3.38639634383438  0.91220380008001
 1  8.13817805550555  3.02573123512351  0.10420719781978
 1 -8.56948790099010 -2.68692575167517 -1.67655434903490
 1 -8.63927491579158 -3.05013820112011  0.08247438673867
 1 -7.00259481208121 -3.38067071837184 -0.80978986418642
 1  6.26187705220522 -0.24947017381738  0.12028001130113
 1 -6.05092707730773  0.16514845334533  0.13605332853285
 1  4.86399975727573  2.36414485858586  0.67725063186319
 1 -5.24334443474347 -2.62936645304530 -0.52386452755276
 1  3.69298956565657 -0.40359492939294 -0.01820218181818
 1 -3.68117574877488  0.02567889778978 -0.09677154385439
 1  2.83570426982698  3.05241563766377  1.45978463376338
 1  1.19689689048905  3.04143487528753  0.71276100360036
 1  2.97787484628463  3.19701017451745 -0.11844581418142
 1 -3.44130600020002 -3.39805816171617 -1.44590960176018
 1 -3.00407201300130 -3.65560755365537  0.36248089948995
 1 -1.61214218551855 -3.79497983238324 -0.86288851525153
 1  0.35874827562756  1.10446636183618  0.42337298249825
 1 -1.50069115771577 -0.08061007380738 -0.23658138423842
 1  2.05266381088109 -1.58268731843184  0.03002343814381
 1  0.25589610041004 -2.71540658295830 -0.31093195409541

