%nproc=4
%Mem=2GB
# td=(NStates=1) B3LYP/6-31G(d,p) 

TD

0 1
 6  12.10447479007901  0.46271687218722 -0.75150126902690
 6 -12.08519083318332 -0.08417345894589  0.86617579647965
 6  13.48457787048705 -0.30060972097210 -0.54473047204720
 6 -12.89478597849785  1.13377776927693  1.35299601400140
 6  13.19104141834183 -1.79933560596060 -0.41337309610961
 6 -13.39214381048105  2.02898141024102  0.21323169026903
 6  10.95651744564456 -0.02728846434643  0.25811334913491
 6 -11.02420008780878  0.37797768006801 -0.04898253305331
 6  12.26775121252125 -2.22425471947195  0.74501847814781
 6 -12.12264214681468  2.68547885608561 -0.36937527342734
 6  11.14427413541354 -1.21354340884088  0.92740930933093
 6 -11.06997179137914  1.55556117791779 -0.69772864656466
 6  11.61558214591459  0.35968709380938 -2.23928240684068
 6  12.48874228762876  1.91216527162716 -0.35998751775178
 6 -13.03166075687569 -1.07091421012101  0.20113394329433
 6 -11.40567943594359 -0.76151932553255  2.08227637583758
 6  9.81986004860486  0.85324143774377  0.38092009250925
 6 -9.89563937083708 -0.51844438653865 -0.36946103390339
 6  10.08555273157316 -1.68007781948195  1.84695733063306
 6 -10.05211818201820  2.11931367046705 -1.63521498639864
 6  8.50690693039304  0.51559151535154  0.43533173937394
 6 -8.53628658705871 -0.31911177647765 -0.33784010691069
 6  7.39857842604260  1.45363416371637  0.44039665226523
 6 -7.51853074697470 -1.35155363046305 -0.45459585648565
 6  7.57711076077608  2.84248688588859  0.84325676267627
 6 -8.01878906710671 -2.73646365746575 -0.56654393199320
 6  6.14029793129313  0.87267165616562  0.26420857985799
 6 -6.11786039593959 -1.01445226782678 -0.45642775447545
 6  4.83186383708371  1.46569890179018  0.27886754575458
 6 -4.98357796959696 -1.75913189098910 -0.53542492409241
 6  3.65706441804180  0.82947051225123 -0.03912196289629
 6 -3.81410679587959 -1.13488412111211 -0.44206664436444
 6  2.32104540594059  1.37427813551355  0.13761824972497
 6 -2.39883888328833 -1.77887294599460 -0.40319359945995
 6  2.22796716831683  2.89965933243324  0.50960533383338
 6 -2.38952949834984 -3.30886441294129 -0.63264461456146
 6  1.18674022252225  0.62163350495049  0.01898681568157
 6 -1.30050822392239 -1.03806237823782 -0.29707841294129
 6  1.16312068426843 -0.86778172537254 -0.03095061476148
 6  0.07074761436144 -1.58685492529253 -0.30158391439144
 1  13.89246935273527 -0.06905447594759  0.41270931383138
 1  14.04455146894690 -0.26651502720272 -1.42735627402740
 1 -12.30627699269927  1.92596498669867  2.11867543234323
 1 -13.72143300090009  0.75212470477048  2.03414985308531
 1  14.12716333833383 -2.35687650535054 -0.23541698749875
 1  12.77902378407841 -2.36874077407741 -1.45001112441244
 1 -13.99613300150015  2.75577893789379  0.68171920952095
 1 -13.83358814261426  1.58633830803080 -0.54949897199720
 1  12.70543250705071 -2.34723723032303  1.91816369836984
 1  11.91604905940594 -3.24154784688469  0.29700655625563
 1 -11.49225901800180  3.37187490819082  0.20049656665667
 1 -12.49748596249625  3.18899240704070 -1.19114301550155
 1  11.45873924442444 -0.75190826812681 -2.36236436913691
 1  12.46878375907591  0.66251091239124 -2.86595316931693
 1  10.75831340264026  1.01410452215221 -2.44865558505851
 1  12.78400935503550  1.89111601350135  0.68136547704770
 1  11.83715212211221  2.69269918081808 -0.69527368436844
 1  13.31529338563856  2.23618388828883 -1.05449772087209
 1 -13.72154138483848 -0.61529553855386 -0.63713981468147
 1 -13.69878205080508 -1.48577438163816  0.88414563526353
 1 -12.55442304550455 -1.95528393329333 -0.25325120762076
 1 -10.64472696359636 -0.19662530193019  2.77735739483948
 1 -10.92521904730473 -1.70200120082008  1.90499451565157
 1 -12.39544360836084 -0.97888235613561  2.64047257535753
 1  10.03925733233323  1.95600046014602  0.51161706960696
 1 -10.24963940864086 -1.66682179217922 -0.10850722872287
 1  9.44653873137314 -0.93240083478348  2.19631338893889
 1  10.37804861896190 -2.04078027592759  3.02237366736674
 1  9.43749581678168 -2.61481133113311  1.46407602920292
 1 -9.39335637093709  1.18730104270427 -1.75061755865587
 1 -9.34284908980898  2.83272679467947 -1.48480852705271
 1 -10.28295856085609  2.32294730013001 -2.85124509780978
 1  8.21083667446745 -0.61837261746175  0.40245329492949
 1 -8.30010340554055  0.84493868796880 -0.63349700220022
 1  7.82656588868887  3.10592562846285  2.06679606210621
 1  6.55926780748075  3.39470717491749  0.86406898659866
 1  8.19502374007401  3.62406106810681  0.26745352245224
 1 -8.69143009520952 -2.89046610571057 -1.56613330693069
 1 -8.61014200250025 -2.95696888418842  0.24011015031503
 1 -7.11998655125513 -3.33966661796180 -0.57396628182818
 1  6.30159102360236 -0.28820404720472  0.01810979427943
 1 -6.01175315991599  0.21949388788879 -0.32441271807181
 1  4.82213557085708  2.60202864696470  0.56492939973997
 1 -5.16775687598760 -2.83837735413541 -0.64384652575258
 1  3.85499576627663 -0.23345791569157 -0.26714707630763
 1 -3.60379801100110 -0.16633030313031 -0.35923779047905
 1  2.82299299869987  3.18951934803480  1.42555121042104
 1  1.22180938173817  3.20298102990299  0.81735146264626
 1  2.73881093989399  3.35699617311731 -0.63924789438944
 1 -2.79713158275828 -3.49604796069607 -1.63542855365537
 1 -3.19022062786279 -3.85880787368737  0.21956660806081
 1 -1.41809278057806 -3.78603893829383 -0.46831905830583
 1  0.11739414021402  1.03870978617862 -0.17697705250525
 1 -1.47349843844384  0.25159314651465 -0.36373409950995
 1  2.05893443794379 -1.50487953765376  0.23673410921092
 1  0.06182669346935 -2.72205724802480 -0.15645650655066

