%nproc=4
%Mem=2GB
# td=(NStates=1) B3LYP/6-31G(d,p) 

TD

0 1
 6  12.03141748434843  0.45783638413841 -0.84444056295630
 6 -12.02773508760876 -0.12539758135814  0.85048422732273
 6  13.33455286798680 -0.42984264426443 -0.83820981998200
 6 -12.98213471337134  1.08207259875988  1.30282099649965
 6  12.98744105830583 -1.95830150255026 -0.72466422522252
 6 -13.39226382248225  1.99941845394539  0.15428579567957
 6  11.09188098199820  0.00774503900390  0.21318885668567
 6 -11.02473014081408  0.40367024932493 -0.12491012581258
 6  12.32970740814081 -2.14604689868987  0.66795077137714
 6 -12.15655553815381  2.62232254045405 -0.53319165506551
 6  11.15486519451945 -1.25354740924092  0.94877144554455
 6 -11.09652444664466  1.59603522532253 -0.79281815551555
 6  11.35681626932693  0.34675580068007 -2.17875635423542
 6  12.42636605000500  1.93212726782678 -0.52046356535654
 6 -12.86007359815982 -1.22554967366737  0.13110694059406
 6 -11.38626749474948 -0.63706688028803  2.19966811501150
 6  9.93799186178618  0.93039915351535  0.40820282078208
 6 -9.93232303920392 -0.53822636473647 -0.34172826062606
 6  10.31102527882788 -1.70767057875788  2.14586722162216
 6 -10.09930290049005  1.99447118621862 -1.83250471537154
 6  8.64910114981498  0.49980993719372  0.27436564276428
 6 -8.61979493789379 -0.31073093839384 -0.36344266716672
 6  7.37565613381338  1.35039383968397  0.55894850745075
 6 -7.56078497239724 -1.31695017011701 -0.50194059095910
 6  7.66660971067107  2.80905354255426  0.78268070507051
 6 -7.94795198339834 -2.70210022112211 -0.63584086168617
 6  6.20228412991299  0.82169655865587  0.44130628962896
 6 -6.31071968186819 -0.89266008860886 -0.41946405810581
 6  4.93124377507751  1.47393972587259  0.56711637063706
 6 -5.07366697849785 -1.64298027582758 -0.40749213081308
 6  3.71869058065807  0.82344991019102  0.32418436773677
 6 -3.80395578077808 -1.09562019471947 -0.35343778147815
 6  2.41850515191519  1.34354506220622  0.42811729962996
 6 -2.45461446084608 -1.78750380908091 -0.40198347844784
 6  2.24061843344334  2.84209357585759  0.54546892019202
 6 -2.47051759715972 -3.19034256075608 -0.89934128422842
 6  1.30363191169117  0.54835617721772  0.18272318931893
 6 -1.32113028612861 -0.96652522452245 -0.15417412251225
 6  1.10616498869887 -0.79999494669467 -0.00374789448945
 6 -0.02248170857086 -1.52612885268527 -0.17078083408341
 1  13.92902300810081 -0.15155272577258  0.09317736063606
 1  13.78093510731073 -0.48477685338534 -2.02918645704571
 1 -12.57429379437944  1.73974636483648  1.99560312511251
 1 -13.84753561116112  0.92406189848985  1.80901733983398
 1  13.86220684268427 -2.48928974667467 -0.77810125592559
 1  12.44621050275028 -2.06949084908491 -1.53354947824782
 1 -13.99119250745074  2.77163052305231  0.49485052265227
 1 -13.97546233003300  1.33456313051305 -0.51589561166117
 1  13.08062002580258 -1.88464097069707  1.57596947894789
 1  11.97453490799080 -3.05720941304130  0.89767662326233
 1 -11.67908770087009  3.33514123482348 -0.00393387638764
 1 -12.49556577047705  2.90010351815182 -1.52666656785679
 1  10.91048441894189 -0.64590766806681 -2.39794792749275
 1  12.10622750345035  0.79091375267527 -2.93124969896990
 1  10.45287285858586  1.06064917661766 -2.06594731423142
 1  12.57658861296130  2.11389829172917  0.55587292779278
 1  11.64266267316732  2.75873578447845 -0.87807196419642
 1  13.37138899519952  2.28669893979398 -1.02462473357336
 1 -13.28868809950995 -1.00470447944794 -0.75826192689269
 1 -13.54844701730173 -1.78519432363236  0.54599181988199
 1 -12.13479108230823 -2.01866027092709 -0.14062994549455
 1 -10.87629011991199 -0.02343798319832  2.83825348444844
 1 -10.79405593099310 -1.48346934763476  2.13356737293729
 1 -12.30492455645565 -0.93072754065407  2.87370589868987
 1  10.16155956255626  2.05584044414441  0.49590549844985
 1 -10.24521896659666 -1.58051316131613 -0.18292467046705
 1  9.75449952745275 -0.86856445114511  2.44607836543654
 1  11.16624743884388 -2.02686888478848  2.78645007500750
 1  9.93666573377338 -2.61154100410041  1.84692431403140
 1 -9.45728276357636  1.32933524612461 -2.35442793969397
 1 -9.47295210011001  2.83652717471747 -1.54268431463146
 1 -10.48971923692369  2.25301030643064 -2.82419239253925
 1  8.51741733253325 -0.69762054225423  0.26998004760476
 1 -8.21941533673367  0.79676387048705 -0.24396804930493
 1  8.29007223932393  3.16272130803080  1.73266264876488
 1  6.81823370407041  3.59624732893289  0.98932151185119
 1  8.15120935863586  3.35199386138614 -0.04569779267927
 1 -7.97965891809181 -3.01105816491649 -1.84406109970997
 1 -8.90488147644764 -2.84554774207421 -0.02251611231123
 1 -7.08861341394139 -3.49311196249625 -0.08425731093109
 1  6.27385825032503 -0.21957718451845  0.19577756105611
 1 -6.35844782938294  0.18269020752075 -0.25892616941694
 1  4.98615197249725  2.58425686978698  0.76936984378438
 1 -5.31083118341834 -2.69485300170017 -0.60732287338734
 1  4.09364963166317 -0.09512408230823 -0.12903326492649
 1 -4.02070970217022  0.11855818571857 -0.33708557525753
 1  2.98793949334934  3.19896029212921  1.29751840714071
 1  1.21168836963696  3.27424815661566  0.76268599609961
 1  2.71339839863986  3.28339881338134 -0.41946591619162
 1 -2.88571044064406 -3.31862021792179 -1.98661367216722
 1 -3.28310991679168 -3.97993998689869 -0.31790713931393
 1 -1.50281125242524 -3.67046738113811 -0.65001722812281
 1  0.48201060186019  0.98606452165217  0.01436208140814
 1 -1.52729381798180  0.02545053225323  0.40838311221122
 1  2.09130767526753 -1.16837588728873 -0.15089465366537
 1  0.06492700350035 -2.52504754705471 -0.17646850775077

