%nproc=4
%Mem=2GB
# td=(NStates=1) B3LYP/6-31G(d,p) 

TD

0 1
 6  12.19144348694869  0.38487908840884 -0.67134325322532
 6 -12.14884719881988 -0.10860590219022  0.99604878377838
 6  13.49241865456546 -0.41092075207521 -0.54447044604460
 6 -13.01161766166617  1.05734012551255  1.34723543794379
 6  13.11655396959696 -1.87879355175518 -0.42911467026703
 6 -13.40146474257426  2.06805531763176  0.32936330343034
 6  11.08129992389239  0.03678794329433  0.35790332813281
 6 -11.04774244204420  0.34852473477348  0.00295266046605
 6  12.30489492689269 -2.10579287328733  0.84257823412341
 6 -12.18141802440244  2.69143945214521 -0.38049638553855
 6  11.17397710571057 -1.15339739423942  1.03384995339534
 6 -11.09582437663766  1.58485410721072 -0.58239711341134
 6  11.67478806650665  0.32887401250125 -2.15093357195720
 6  12.57135054845485  2.00355441054105 -0.43925544454445
 6 -13.03606119691969 -1.21375849454946  0.14092792269227
 6 -11.46881574957496 -0.78456162976298  2.15899404760476
 6  9.88198626122612  0.86720283388339  0.37209921042104
 6 -9.99413922082208 -0.58953149524952 -0.26493058085809
 6  10.23115729202920 -1.55099491119112  2.15139777467747
 6 -10.10937390759076  2.12692443154315 -1.58018948384838
 6  8.64405064476448  0.53803375957596  0.31861006720672
 6 -8.60575353375338 -0.27743760906091 -0.19596591949195
 6  7.36384495269527  1.36844564486449  0.38376098869887
 6 -7.50026892079208 -1.26461493659366 -0.54091448834883
 6  7.57027007670767  2.86622926012601  0.72328476547655
 6 -7.93498068626863 -2.68611862296230 -0.75502277987799
 6  6.14661856335634  0.76396078507851  0.30744290329033
 6 -6.23408201810181 -0.88551937453745 -0.33857596929693
 6  4.93271392209221  1.38553088498850  0.36037569656966
 6 -5.02512212401240 -1.53415939373937 -0.49827120872087
 6  3.74134284588459  0.72044961016102  0.15673762306231
 6 -3.80094547974797 -1.01394202690269 -0.46769920762076
 6  2.32494579597960  1.33355406310631  0.10539502740274
 6 -2.51580057945795 -1.83324838353835 -0.54545782588259
 6  2.23178755035504  2.80763012951295  0.28988336163616
 6 -2.56195674107411 -3.25878940544054 -0.63687503760376
 6  1.27739928842884  0.56593793539354 -0.15470055305531
 6 -1.27093526662666 -1.15112368436844 -0.48128683378338
 6  1.13088746094609 -0.87271221842184 -0.32180970067007
 6  0.09414995459546 -1.61375761556156 -0.43468722472247
 1  14.10429053485349  0.02920535003500  0.42428047094709
 1  13.97744475827583 -0.25552392809281 -1.48789232763276
 1 -12.27785415041504  1.54179656985699  2.18479204400440
 1 -13.93037389498950  0.69557905020502  1.66216265436544
 1  14.13205382738274 -2.32318313601360 -0.38380182598260
 1  12.67825370707071 -2.36715061506151 -1.37014313761376
 1 -14.08605199339934  2.93836719671967  0.80471150875087
 1 -13.99271405520552  1.54962463666367 -0.29252327442744
 1  13.19000096389639 -1.82856536313631  1.67507938993899
 1  11.81782923742374 -3.16473016511651  0.74430128572857
 1 -11.73939373147315  3.48094581528153  0.15785230223022
 1 -12.54279049294930  3.04582809060906 -1.41051495269527
 1  11.61086445694569 -0.64230730803080 -2.42605073777378
 1  12.48254513521352  0.76699136043604 -2.87575414941494
 1  10.71542911421142  1.03087619931993 -2.22276299579958
 1  12.80411136523652  2.26753365526553  0.57671501200120
 1  11.83648205510551  2.70165007590759 -0.77023118011801
 1  13.42724458075808  2.18470874077408 -1.03614588568857
 1 -13.54011324202420 -0.71650565956596 -0.54898099879988
 1 -13.85139731233123 -1.51686749094909  0.80373759445945
 1 -12.41916952015202 -2.15942434733473 -0.24806068856886
 1 -11.03351584248425  0.04301866246625  2.62235189428943
 1 -10.72902942834283 -1.52995399609961  1.85713973017302
 1 -12.20607467146715 -1.18880334823482  2.84766329442944
 1  10.17386079267927  1.88906376647665  0.52380828872887
 1 -10.28248269296930 -1.62653776377638 -0.36337271527153
 1  9.51838591609161 -0.81383897859786  2.46064982258226
 1  10.74863567766777 -1.97484368226823  3.10234166416642
 1  9.54521658885889 -2.41853170317032  1.97328695029503
 1 -9.43890092539254  1.56185849844985 -2.06923942084208
 1 -9.37927273217322  2.84822834483448 -1.34623466966697
 1 -10.47652791779178  2.44109911531153 -2.46409638293829
 1  8.34750034083408 -0.50552133233323  0.31485453505351
 1 -8.09165256045605  0.66669086318632 -0.03756740924092
 1  8.16510974307431  2.91340637653765  1.52841222372237
 1  6.47916979767977  3.36370407460746  0.93658623832383
 1  8.27257149484949  3.37361602360236 -0.05545876877688
 1 -8.42719367156716 -2.63602066116612 -1.70616731033103
 1 -8.67225821412141 -3.07701088838884 -0.00636449714972
 1 -7.05970052265227 -3.31833448474847 -0.76260514571457
 1  5.97633849834983 -0.32503773057306  0.35201318461846
 1 -6.07740972557256  0.24409634813481 -0.19201947874787
 1  4.91607496479648  2.46518496259626  0.62875578237824
 1 -5.02262236253625 -2.63576709310931 -0.80192233333333
 1  3.85135540224022 -0.41754632453245 -0.02261262286229
 1 -3.79575720692069  0.11773810371037 -0.13199506620662
 1  2.53258395779578  3.06533692979298  1.39131778707871
 1  1.21382858365837  3.29473020482048  0.06305603310331
 1  3.03562062086209  3.28630910441044 -0.40316428602860
 1 -2.87912978257826 -3.74261261716172 -1.67354236503650
 1 -3.10149175497550 -3.77571956485649  0.21606625802580
 1 -1.67180815211521 -3.78866920132013 -0.78300052645264
 1  0.19948234903490  1.07938385358536 -0.20016937173717
 1 -1.62386347494749 -0.04368638143814 -0.33906163226323
 1  2.08318686318632 -1.40262931263126 -0.37722728692869
 1  0.10985149594959 -2.64211925422542 -0.47644850575058

