%nproc=4
%Mem=2GB
# td=(NStates=1) B3LYP/6-31G(d,p) 

TD

0 1
 6  12.04761910451045  0.65112571307131 -0.83578969786979
 6 -12.14243655775578 -0.00545558715872  0.76958613751375
 6  13.37692710541054 -0.01157081708171 -0.71637763676368
 6 -13.14431093099310  1.05845023652365  1.13196391079108
 6  13.28329064326433 -1.61950762316232 -0.61330308910891
 6 -13.46054065016502  2.10509902200220  0.01755212231223
 6  11.08085987988799  0.06069033353335  0.08662620042004
 6 -11.06935460326033  0.55191507380738 -0.18299593439344
 6  12.58185262266227 -1.97841013501350  0.71627560386039
 6 -12.25903578617862  2.76134644284428 -0.46136447234723
 6  11.37241694969497 -1.15607766226623  0.96196276467647
 6 -11.04463925812581  1.76767238903890 -0.79282815651565
 6  11.55592618031803  0.59103022812281 -2.22849132773277
 6  12.42750616401640  2.17021107620762 -0.43958547754775
 6 -12.97970556135614 -1.09523664236424  0.03971780168017
 6 -11.55674454245425 -0.57175034863486  2.10372852105211
 6  9.90351841444144  0.78882499609961  0.26840884138414
 6 -9.92539234613461 -0.42717525962596 -0.35420950875088
 6  10.38365254155415 -1.61409122082208  1.89581221612161
 6 -10.05313828402840  2.20235197429743 -1.79006047094709
 6  8.64303054275427  0.37818777497750  0.24020222642264
 6 -8.63221618001800 -0.22993285858586 -0.22659898279828
 6  7.37757632583258  1.17535633593359  0.30023263586359
 6 -7.54211310521052 -1.24974344944494 -0.41450184708471
 6  7.61459450915092  2.61293393059306  0.64854729172917
 6 -8.01802899109911 -2.65015502660266 -0.73034031163116
 6  6.19935383688369  0.54632902190219  0.20932309130913
 6 -6.20873948384838 -0.86340716331633 -0.29063117481748
 6  5.01599224992499  1.23793612551255  0.33775343434343
 6 -4.97775738753875 -1.62567854565457 -0.40005138673867
 6  3.65877458905891  0.58487605280528  0.44770671997200
 6 -3.73167855305531 -1.16038667136714 -0.32797523522352
 6  2.30825412681268  1.08642935063506  0.48457294519452
 6 -2.49524852425243 -1.97725278397840 -0.24619789988999
 6  2.29467383898390  2.62663202970297  0.73029740304030
 6 -2.53774431983198 -3.37428095459546 -0.57094844494449
 6  1.19274082258226  0.38596993859386  0.23700861786179
 6 -1.41902007510751 -1.23763233523352 -0.12594129922992
 6  1.03940831303130 -1.15514046124612  0.10296277657766
 6 -0.15439489988999 -1.78178441824182  0.01469771377138
 1  13.94443454925493  0.29369179867987  0.17671571447145
 1  13.82673968776878  0.19646127042704 -1.77598113651365
 1 -12.68319468446845  1.77299969016902  1.82055562036204
 1 -13.89420027762776  0.52148164046405  1.40723716181618
 1  14.34003462546255 -2.03076389408941 -0.48116156195620
 1  12.79835571727173 -2.02822672267227 -1.59691581488149
 1 -14.08370175837584  2.98390175017502  0.50166120372037
 1 -13.96425120892089  1.56635630983098 -0.65538956105611
 1  13.33117508130813 -1.73510601720172  1.55382726472647
 1  12.24977243174317 -2.98087177927793  0.89977683328333
 1 -11.75453524562456  3.33969168986899  0.34461097809781
 1 -12.35877209110911  3.22784629242924 -1.45061896309631
 1  11.45906927742774 -0.44389746704671 -2.77534566726673
 1  12.16685356605661  1.25925058635864 -2.81536811081108
 1  10.58445601690169  0.89538264996500 -2.37565828532853
 1  12.59841079517952  2.35743264516452  0.73841118161816
 1  11.57315572247225  3.07187709860986 -0.73688784578458
 1  13.54695655195519  2.57925819571957 -0.56291856295630
 1 -13.45798502920292 -0.93755776477648 -0.80635673637364
 1 -13.70980315291529 -1.59826563076308  0.77224444514451
 1 -12.33314091729173 -2.05013341824182 -0.28551443394339
 1 -10.83161565246525  0.18414277487749  2.69983964306431
 1 -10.84849137453745 -1.39874087478748  1.72022603880388
 1 -12.07356142014202 -0.77754222212221  3.13992252035203
 1  10.09919332593259  1.92446730683068  0.61837774567457
 1 -10.24721916661666 -1.39070418041804 -0.50090646864687
 1  9.65026910441044 -0.89466706140614  2.08073183078308
 1  10.90807162126213 -2.11034723262326  2.70734216421642
 1  9.89325139233923 -2.52792264226423  1.58664828642864
 1 -9.27200423572357  1.47187950055005 -1.98056055295529
 1 -9.51149595449545  2.97988151015101 -1.37073711991199
 1 -10.52132239723973  2.45301030643064 -2.68502847614762
 1  8.38250384118412 -0.73265404560456  0.00898394799480
 1 -8.28911230643064  0.83823801790179 -0.08201185368537
 1  8.39010224232423  2.69646468236824  1.60762014451445
 1  6.77922980368037  3.29930763496350  0.60492307200720
 1  8.10723496119612  3.07446610861086 -0.36070929382938
 1 -8.39993094529453 -2.65840289938994 -1.96301299489949
 1 -8.94252524082408 -3.08743193049305  0.00102624192419
 1 -7.13702825542554 -3.49915256655666 -0.54531341654165
 1  6.26380724522452 -0.60216544334433  0.24415239853985
 1 -6.01641362596260  0.22318425692569 -0.21258153495350
 1  5.00783414071407  2.42705114921492  0.55576848364836
 1 -5.15737583788379 -2.67424094049405 -0.48618075917592
 1  3.62501276797680 -0.43884845474547  0.14684432283228
 1 -3.49594722592259 -0.16681035113511 -0.28733059975998
 1  2.64005470487049  3.03262365846585  1.83141179647965
 1  1.18233543434343  2.89600033183318  0.83224295179518
 1  2.82367942674267  3.25739621312131 -0.00055402500250
 1 -2.57285915551555 -3.66383473937394 -1.61745675647565
 1 -3.18356996279628 -3.94883687658766  0.10762541394139
 1 -1.39813078437844 -3.59215955035504 -0.17891011741174
 1  0.23100550135014  0.96890280548055  0.37571821702170
 1 -1.58345943454345 -0.20956296909691  0.03597587148715
 1  1.87482602710271 -1.71168021772177  0.13504394019402
 1  0.05814632543254 -2.84240928322832 -0.02973383428343

