%nproc=4
%Mem=2GB
# td=(NStates=1) B3LYP/6-31G(d,p) 

TD

0 1
 6  12.10792513511351  0.62485308580858 -0.75910202910291
 6 -12.04821713581358  0.07334229262926  0.88000717961796
 6  13.49795920862086 -0.20719037903790 -0.55038103710371
 6 -12.87937443734373  1.27697208870887  1.31826254065407
 6  13.25941825602560 -1.77249292169217 -0.41577333613361
 6 -13.19500409650965  2.11734024612461  0.12842320942094
 6  11.06437823172317  0.07690195469547  0.16401393919392
 6 -10.90679834763476  0.46798668096810 -0.04347198199820
 6  12.40811524892489 -2.03054534853485  0.81179515581558
 6 -11.97381726432643  2.68898920712071 -0.54354269016902
 6  11.18085779377938 -1.13753580808081  0.85245181358136
 6 -10.90043483768377  1.64414003580358 -0.75966484018402
 6  11.59953054075408  0.59315044014401 -2.17965644424442
 6  12.47569098249825  2.14284833993399 -0.31062258125813
 6 -13.08216580738074 -0.93539065776578  0.17327115701570
 6 -11.69440830883088 -0.69602277587759  2.14457260546055
 6  9.83943200580058  0.82535864946495  0.08757075757576
 6 -9.90637044394439 -0.57003954605461 -0.25559964776478
 6  10.20671484778478 -1.47064687638764  1.94857749264926
 6 -9.81807477767777  1.98584032313231 -1.64965643054305
 6  8.54527076677668  0.40385034123412  0.21024923112311
 6 -8.62024498289829 -0.34394425972597 -0.14092041494149
 6  7.34426299449945  1.27596639693969  0.37536014861486
 6 -7.47926682058206 -1.31485996109611 -0.48870926782678
 6  7.52412546224623  2.74013665086509  0.73926636363636
 6 -7.96624381258126 -2.72346235733573 -0.71826910451045
 6  6.08289219071907  0.66096048504850  0.24151631063106
 6 -6.19824843474347 -0.89924074667467 -0.31601371307131
 6  4.81237188788879  1.32668500040004  0.35443510251025
 6 -5.03095270707071 -1.69658563636364 -0.53677505910591
 6  3.64896360796080  0.60737830303030  0.22525447474747
 6 -3.73484887008701 -1.17405803850385 -0.40700313801380
 6  2.32896619801980  1.27220792849285  0.34590907880788
 6 -2.57638663806381 -1.96075113381338 -0.56416969706971
 6  2.15642001360136  2.67963733023302  0.61381575487549
 6 -2.68377892329233 -3.37598112461246 -0.71139248934893
 6  1.17123867236724  0.47937927952795  0.19815473247325
 6 -1.31428960206021 -1.21990056205621 -0.37864656975698
 6  1.10991536373637 -0.98120306750675  0.03842632293229
 6 -0.05126458685869 -1.79062530233023 -0.18743249924992
 1  13.81915202100210  0.19078150765077  0.47498554145415
 1  14.23391040484048 -0.11019939563956 -1.42983652205221
 1 -12.28175454045404  1.76446883708371  2.17911147594760
 1 -13.80667152475248  0.89294878717872  1.90059649774978
 1  14.30429105110511 -2.23424424212421 -0.37265071087109
 1  12.72728861056106 -2.38360226022602 -1.32773889718972
 1 -13.87266065426543  2.97226058605861  0.48936997459746
 1 -13.88670345414542  1.42438211241124 -0.56857087918792
 1  12.94797676147615 -1.95493800040004  1.73369525152515
 1  12.25193264776478 -3.10629432153215  0.59539639523952
 1 -11.73862365446545  3.57276499719972 -0.00688417141714
 1 -12.21086730063006  3.05810931873187 -1.54271817301730
 1  11.29475284578458 -0.47503058035804 -2.45666379907991
 1  12.38957583828383  1.09273393469347 -2.87954452845285
 1  10.60646821812181  1.16389950165016 -1.92430314981498
 1  12.56509746384639  2.34681158305831  0.48573591409141
 1  11.60304871177118  2.67589750065006 -0.64958911591159
 1  13.14744660096009  2.23271354125413 -1.01174344544454
 1 -13.43816304700470 -0.49942395139514 -0.86491259195920
 1 -13.75771794439444 -1.30229603380338  0.80591781248125
 1 -12.55477308050805 -1.82599100400040 -0.10542642514251
 1 -11.16232872377238 -0.01150679007901  2.65027468656866
 1 -11.06748327372737 -1.76057705840584  2.16248026422642
 1 -12.54639870387039 -0.76898136603660  2.61426995509551
 1  10.03887729432943  1.78214307440744  0.48859476737674
 1 -10.32240668536854 -1.46902201220122 -0.37049342734273
 1  9.57386146364636 -0.52843043774377  1.95948970657066
 1  10.78778959305931 -1.69139533743374  2.86853828382838
 1  9.58261032823282 -2.41591144114411  1.61865148674867
 1 -9.20032706800680  1.27325963856386 -2.06680917781778
 1 -9.23958876377638  2.65179870187019 -1.26568661486149
 1 -10.37978824382438  2.66117112251225 -2.46942691599160
 1  8.30190578137814 -0.76975775597560  0.05111816141614
 1 -8.21546494169417  0.58097229132913  0.34228057555756
 1  8.30298353045305  2.81792682858286  1.65164454695470
 1  6.50016189688969  2.92238994319432  1.03754633433343
 1  7.73820805850585  3.39911857385739 -0.19464268716872
 1 -8.70738169036904 -2.72919997909791 -1.43822051565157
 1 -8.46791778007801 -3.05952914021402  0.12742888218822
 1 -7.15928048064807 -3.38504115541554 -1.18168705390539
 1  6.05176604110411 -0.23276850365037 -0.15013703040304
 1 -6.12643462806281  0.14799673817382  0.09464918811881
 1  4.79561291859186  2.57463590769077  0.43693660046005
 1 -5.08195829612961 -2.60888440484048 -0.75054719581958
 1  3.47720798749875 -0.50140471037104  0.11588122652265
 1 -3.85867349854986 -0.10614428452845  0.18968710201020
 1  2.56101680108011  2.76998739483948  1.58535719101910
 1  1.16471367216722  3.12166289808981  0.51160088758876
 1  2.52539959875988  3.28131860536054 -0.20768473807381
 1 -3.24766663626363 -3.63899225512551 -1.49114412521252
 1 -3.14330593639364 -3.96772876577658  0.28875352675267
 1 -1.62704367566757 -3.88210854525453 -0.83102532893289
 1  0.31080348114811  0.93994991019102  0.46631727692769
 1 -1.38684977357736 -0.18897090989099 -0.38726645274527
 1  2.14511305580558 -1.41590063976398 -0.04013357755776
 1  0.01062157295730 -2.85801084338434 -0.47959882078208

