%nproc=4
%Mem=2GB
# td=(NStates=1) B3LYP/6-31G(d,p) 

TD

0 1
 6  12.17339168176818  0.53918451895190 -0.62507862676268
 6 -12.05690800490049 -0.12080712231223  0.87333651255126
 6  13.44059347204721 -0.12420208020802 -0.51085708470847
 6 -12.99600610051005  1.06783117461746  1.25463617801780
 6  13.34713702790279 -1.71743741614161 -0.50114187298730
 6 -13.52695729182918  2.00957947004700  0.13727409450945
 6  10.95365715961596 -0.03570930643064  0.24397193499350
 6 -11.00000766856686  0.41920180248025 -0.12119975477548
 6  12.41163560096010 -2.09428172217222  0.63527750405041
 6 -12.26772665526553  2.58150845904590 -0.56862519841984
 6  11.12311201920192 -1.28383043754375  0.88480504890489
 6 -11.19692448664866  1.70030565236524 -0.74514338803880
 6  11.73726431413141  0.48354948004800 -2.14416289488949
 6  12.41648506190619  2.08726278137814 -0.32265378437844
 6 -12.96000359115912 -1.28915603430343  0.24291812171217
 6 -11.39621848984898 -0.62633580718072  2.17085523372337
 6  9.81045910851085  0.77936405000500  0.37401940244024
 6 -9.87907771467147 -0.50639318141814 -0.35802989078908
 6  10.32019619591959 -1.93232304400440  1.93037567246725
 6 -10.18950192039204  2.03009474857486 -1.79836130103010
 6  8.52210845054505  0.37592754895490  0.34141234743474
 6 -8.51814477287729 -0.22102196749675 -0.24578090099010
 6  7.35580414861486  1.26884568486849  0.42402501510151
 6 -7.52405129902990 -1.25196367146715 -0.35292568946895
 6  7.57270031973197  2.77180981818182  0.53832626962696
 6 -7.88075526372637 -2.62208221932193 -0.65391266886689
 6  6.13221712321232  0.70366475547555  0.25578773777378
 6 -6.22055066496650 -0.79393021562156 -0.29619173087309
 6  4.88846949764976  1.29483181508151  0.33073273227323
 6 -4.94214382618262 -1.60808678647865 -0.34863624522452
 6  3.69089780138014  0.60923848904890  0.20541249054905
 6 -3.77425281048105 -1.04900553325333 -0.22510494819482
 6  2.39818311971197  1.26673738143814  0.21052554045405
 6 -2.46234523392339 -1.75035009370937 -0.40478375847585
 6  2.33923829542954  2.68583795029503  0.50819519281928
 6 -2.60342088748875 -3.19485301180118 -0.70772212231223
 6  1.23050459895990  0.60701204280428  0.02712762976298
 6 -1.37371554465447 -1.00471904390439 -0.28179688478848
 6  1.11632600480048 -0.82628757595760 -0.20908842854285
 6 -0.01713117351735 -1.58523476327633 -0.27436119211921
 1  13.83299340514051 -0.09643721422142  0.66820486338634
 1  14.02678969276928  0.05384700900090 -1.33057659605961
 1 -12.53684004900490  1.66407879807981  2.14159772457246
 1 -13.85316617421742  0.72918241054105  1.64094053215321
 1  14.41584220622062 -2.16387720542054 -0.43576702250225
 1  13.10546642834283 -2.04889878987899 -1.53412953625363
 1 -14.16436982518252  2.72452581258126  0.70931196879688
 1 -14.07722250605061  1.28861853605360 -0.51211523362336
 1  12.74695665946595 -2.01945445204520  1.72639452145215
 1  12.21239869436944 -3.22695638773877  0.71026788238824
 1 -12.08218801090109  3.30851857255726 -0.02871635463546
 1 -12.57219343324332  3.06256976477648 -1.59613351455146
 1  11.83272664316432 -0.56817989528953 -2.68710684338434
 1  12.21281816251625  1.00035469676968 -2.82479905390539
 1  10.80778835013501  0.88886199789979 -2.09548026752675
 1  12.79018997309731  2.29808671057106  0.72746008650865
 1  11.69387779467947  2.79097900880088 -0.69708386538654
 1  13.36017787408741  2.19534980488049 -1.08689096019602
 1 -13.71067029772977 -0.88546255525553 -0.50583668436844
 1 -13.57531970457046 -1.58059386358636  1.09493671437144
 1 -12.32655025822582 -2.15913431833183 -0.05980186268627
 1 -10.85938842974297 -0.04251989138914  2.58370802990299
 1 -10.90770729612961 -1.62704370507051  2.17023103930393
 1 -12.15994005800580 -0.73703817171717  2.81316984508451
 1  10.02201560816082  1.81589644974497  0.45517142504250
 1 -10.21955640034003 -1.60684579457946 -0.27741411941194
 1  9.52687676517652 -1.03255084978498  2.59223298089809
 1  10.86544735883588 -2.35538173607361  2.66003743374337
 1  9.62867493469347 -2.55732558255826  1.50067968956896
 1 -9.47529456475647  1.19902221482148 -1.96639913681368
 1 -9.69931473637364  3.09919344134413 -1.40069011521152
 1 -10.58078834383438  2.52677768316832 -2.76433640694069
 1  8.34675026582658 -0.67530831103110  0.17352040164016
 1 -8.36326972217222  0.72034622872287  0.12284863236324
 1  8.22389562166217  3.18213324922492  1.41972135463546
 1  6.68790067076708  3.40183788798880  0.49213179287929
 1  7.94671890959096  3.09362802480248 -0.42773599649965
 1 -8.08906985918592 -2.53735079417942 -1.87217391099110
 1 -8.86101709000900 -2.98266145344534 -0.00589445014501
 1 -7.01863641624162 -3.31556420772077 -0.32895178037804
 1  5.95822668716872 -0.31985721252125  0.21836982028203
 1 -6.15715770037004  0.25295723422342  0.05938566176618
 1  5.08221157845785  2.41890033413341  0.75569847664766
 1 -4.99942004230423 -2.58734225062506 -0.50182232333233
 1  3.87847811451145 -0.40836540644064  0.04679431783178
 1 -3.60919855105511  0.08113444334433  0.02078021132113
 1  2.64029472887289  3.01195159125913  1.49580823612361
 1  1.19302650345034  3.09521025282528  0.53048277577758
 1  2.84396145494549  3.44837531103110 -0.20736470607061
 1 -3.27470934053405 -3.44103245914591 -1.48745375617562
 1 -3.11980358615862 -3.83827582048205  0.13397804920492
 1 -1.75832680398040 -3.75729606400640 -0.87591981838184
 1  0.17782018281828  1.00656657185719 -0.10371972677268
 1 -1.24761585018502  0.17486547374738 -0.18909663576358
 1  1.85149369386939 -1.45818486818682 -0.27608717291729
 1  0.07657816861686 -2.65170021232123 -0.47540840174017

