%nproc=4
%Mem=2GB
# td=(NStates=1) B3LYP/6-31G(d,p) 

TD

0 1
 6  12.09047338993899  0.54251485198520 -0.66924304320432
 6 -12.11464377847785 -0.05840088168817  0.84102328122812
 6  13.38078749144915 -0.32383204320432 -0.50917691669167
 6 -13.01260776067607  1.09217360886089  1.33069378377838
 6  13.05103741794179 -1.79377504990499 -0.52817457625763
 6 -13.38379297539754  2.05015352745275  0.19420978807881
 6  11.03550534443444 -0.01134687018702  0.20201773957396
 6 -11.03048071587159  0.40146002830283 -0.07327496229623
 6  12.24208864626463 -2.18286058005801  0.76930090639064
 6 -12.03071295389539  2.67144745294529 -0.44115245114511
 6  11.14919462746275 -1.20270232473247  0.97995456385639
 6 -10.96476127032703  1.60117573937394 -0.76371524522452
 6  11.49409999769977  0.28722984808481 -2.27261574017402
 6  12.39896330973097  1.93018707380738 -0.48375989498950
 6 -12.95276286708671 -1.22781990069007  0.15753958385839
 6 -11.46753562156216 -0.64274744834483  2.16194434263426
 6  9.91152921552155  0.88153426702670  0.23425542604260
 6 -9.89995980288029 -0.55718826092609 -0.25822991079108
 6  9.99865404170417 -1.82811262296230  1.86983961886189
 6 -10.07291026122612  2.01990372947295 -1.89960142504250
 6  8.53478971867187  0.49445940214021  0.18908711491149
 6 -8.56564952335233 -0.36025589088909 -0.29822614551455
 6  7.46289485768577  1.43619241954195  0.41538415101510
 6 -7.48702759665967 -1.33314178927893 -0.33005340224022
 6  7.69109215891589  2.93182581978198  0.89836227322732
 6 -7.89025621382138 -2.78006801790179 -0.55871314891489
 6  6.20020392189219  0.95904029302930  0.29391155015502
 6 -6.14186279617962 -0.85722654525453 -0.33629574127413
 6  4.84361501220122  1.54017634953495  0.46349600860086
 6 -4.94688430023002 -1.61911788958896 -0.40730211181118
 6  3.75213392499250  0.80551811701170  0.22587453675368
 6 -3.78586397159716 -1.02309294199420 -0.44118655635564
 6  2.40602390379038  1.26863757145715  0.35388987688769
 6 -2.50115911531153 -1.80820587928793 -0.50923420352035
 6  2.23653802540254  2.79830919741974  0.59221359465947
 6 -2.66298684408441 -3.36910043654365 -0.59324067416742
 6  1.30305185368537  0.46924826642664  0.16437135413541
 6 -1.31207938103810 -1.09258783078308 -0.33977268236824
 6  1.13615798799880 -0.80659560676068 -0.20172769246925
 6  0.06788732833283 -1.58952519231923 -0.45426918291829
 1  13.96081618741874  0.06658908840884  0.33584162706271
 1  14.20358737253725 -0.19023739943994 -1.24478801720172
 1 -12.31110747574757  1.38857124732473  1.96901046584658
 1 -13.99853071067107  0.81280077237724  1.98111454955496
 1  13.95092571457146 -2.45499631733173 -0.80762420822082
 1  12.41946782848285 -2.02957685768577 -1.32293841714171
 1 -14.24586797499750  2.76619997999800  0.48171920952095
 1 -14.03133791759176  1.59908958315832 -0.54581860396040
 1  12.90990295409541 -2.29229173577358  1.68999088108811
 1  11.94569202370237 -3.19521321342134  0.71704856045605
 1 -11.55819561166117  3.49567728842884  0.07363388038804
 1 -12.14135034893489  3.18547205500550 -1.57507140834083
 1  11.60473384388439 -0.78339141644164 -2.52036016871687
 1  12.09179606030603  1.02636729802980 -2.89257583158316
 1  10.62538010931093  0.88652176387639 -2.28175889538954
 1  12.83149410351035  2.28299520142014  0.74759209970997
 1  11.54066247314731  2.64004391529153 -0.72847700470047
 1  13.28994085038504  2.12986325622562 -1.03543581468147
 1 -13.43691292199220 -0.65642965196520 -0.61584768546855
 1 -13.85299747234724 -1.63362916711671  0.90867808850885
 1 -12.20270787398740 -1.95344374927493 -0.46588247074707
 1 -10.67164965586559 -0.04990062946295  2.49458911801180
 1 -11.19074559996000 -1.58898989968997  1.82743675987599
 1 -12.27017108110811 -0.86346081398140  3.00872940104010
 1  10.33197660426043  1.93882874297430  0.49013492139214
 1 -10.14184862956296 -1.69519462946295 -0.35921229922992
 1  9.21483556105611 -0.96713430813081  2.22148590619062
 1  10.53707452155215 -2.56447264516452  2.70922235223522
 1  9.47954002120212 -2.58362821282128  1.17383700530053
 1 -9.43215025032503  1.11213352595260 -2.24707720462046
 1 -9.18739354425442  2.84312783478348 -1.85589563576358
 1 -10.69386965196520  2.45245025042504 -2.77691766506651
 1  8.25498108890889 -0.54070485068507  0.05505855545555
 1 -8.15569896509651  0.60995518961896 -0.23815746824682
 1  8.21557478957896  3.14433946984699  1.90235961846185
 1  6.79939181988199  3.33734143834383  1.29749232893289
 1  7.99597383508351  3.63554221622162  0.03946072317232
 1 -8.88630958315832 -2.82986004510451 -1.15260195379538
 1 -8.39175016331633 -3.20202338963896  0.56239237853785
 1 -7.00440499309931 -3.42219487078708 -0.82895178037804
 1  6.16749761426143 -0.12420764756476  0.11516950025002
 1 -6.02762474707471  0.22149408790879 -0.43040331713171
 1  4.88718207550755  2.57059550365036  0.74664757155716
 1 -4.85908600890089 -2.70741425782578 -0.59375151625163
 1  3.58684895159516 -0.32466703660366 -0.06724708630863
 1 -3.70016764796480  0.04042037193719 -0.15798766546655
 1  2.73744444384438  3.07452784888489  1.76881553685369
 1  1.15980318111811  3.20035076687669  0.55441516901690
 1  2.89921698049805  3.31871234473447 -0.12718668826883
 1 -3.18084995459546 -3.65418377427743 -1.53010802160216
 1 -2.91784339013901 -3.67038903180318  0.38571322272227
 1 -1.55322629392939 -3.65012534693469 -0.75147737413741
 1  0.23610601140114  1.13156907210721  0.06251689688969
 1 -1.39944103270327  0.09371735893589 -0.32194992109211
 1  2.11644018851885 -1.36438548824882 -0.27456702090209
 1  0.33221373217322 -2.59170421272127 -0.68665952685269

