%nproc=4
%Mem=2GB
# td=(NStates=1) B3LYP/6-31G(d,p) 

TD

0 1
 6  12.12741708430843  0.59487008750875 -0.66037215611561
 6 -12.14196651075108  0.04363932233223  0.97453663256326
 6  13.50287970067007 -0.17251691169117 -0.63719971897190
 6 -12.98914541444144  1.30425481698170  1.22411312571257
 6  13.19390170437044 -1.68608428082808 -0.73958571737174
 6 -13.32955755185518  2.21693020512051  0.06312667976798
 6  10.92911470537054 -0.07752348784878  0.10696823462346
 6 -11.01358902670267  0.52467234953495 -0.13342097689769
 6  12.32189662706271 -2.07426972097210  0.38088206450645
 6 -12.00035991859186  2.72934324252425 -0.57507584348435
 6  11.15480518851885 -1.19202125662566  0.73768033643364
 6 -11.00139493369337  1.62731835363536 -0.79783865756576
 6  11.67152774047405  0.58300942604260 -2.13641211981198
 6  12.37739115251525  2.06773082818282 -0.27242876187619
 6 -12.97130472127213 -1.02651977067707  0.12517634753475
 6 -11.53738260626062 -0.60836401000100  2.26640478867887
 6  9.83525158775878  0.81173728732873  0.36973897439744
 6 -9.98540834773477 -0.58598114021402 -0.34368845664566
 6  10.30746492279228 -1.79735954765477  1.84436707160716
 6 -9.97160013021302  1.98277001610161 -1.91246271117112
 6  8.58257449714971  0.49271922812281  0.41099930613061
 6 -8.64127708610861 -0.41618148344834 -0.24899122202220
 6  7.39092766096610  1.27719651995200  0.58705131773177
 6 -7.60545943984398 -1.35487396249625 -0.47248764566457
 6  7.46147919761976  2.79902253945394  0.81949438643864
 6 -7.93559074727473 -2.86651666276628 -0.78561583918392
 6  6.08365226672667  0.78013240224022  0.37174933393339
 6 -6.32851146104610 -0.97400822342234 -0.20110222192219
 6  4.88001865256526  1.33541587348735  0.41013067206721
 6 -5.02569218101810 -1.70598657645765 -0.44280566216622
 6  3.74225293689369  0.73119068426843  0.19846179547955
 6 -3.74603998919892 -1.21878251095110 -0.37195963366337
 6  2.32990629202920  1.32167287498750  0.19280376827683
 6 -2.53400239963996 -1.98552361106111 -0.29047232733273
 6  2.18763313491349  2.78483785028503  0.44195856915692
 6 -2.44169471487149 -3.38263178967897 -0.59586093619362
 6  1.18479002750275  0.51326266786679  0.19703462046205
 6 -1.31110928402840 -1.19289786178618 -0.00916962206221
 6  1.13965833803380 -0.91419636683668  0.01787426772677
 6  0.02584312391239 -1.66312255205521 -0.07494125012501
 1  13.93691379717972  0.06026845634563  0.24524256715672
 1  14.22100911471147  0.03128475277528 -1.43557709610961
 1 -12.66544290929093  1.83951634183418  1.88515208000800
 1 -13.93583444104410  0.83783327562756  1.72761920002000
 1  14.25361598359836 -2.13116393409341 -0.55477892369237
 1  12.79873575527553 -1.97519141914191 -1.76610273357336
 1 -13.81401478967897  3.06185954595460  0.46339737733773
 1 -13.83864864866487  1.70112978717872 -0.74703872597260
 1  12.89642160596060 -2.11999450605060  1.20564244624462
 1  11.98135559005900 -3.04316800890089  0.15525238083808
 1 -11.61796158825883  3.43381110181018  0.01311782878288
 1 -12.09117533143314  3.25141864966497 -1.67107100830083
 1  11.22643601410141 -0.43205628292829 -2.56737487018702
 1  12.53575045574557  0.86988164946495 -2.72812938693869
 1  10.92845041634163  1.39087219891989 -2.12139285878588
 1  12.62803375747575  2.22058896079608  0.89845718621862
 1  11.67879628652865  2.74984489538954 -0.73051720872087
 1  13.37225908220822  2.36197646754675 -0.71164343544354
 1 -13.47494672537254 -0.48736274527453 -0.56008210891089
 1 -13.77793996659666 -1.40138594279428  0.63816103680368
 1 -12.35123272647265 -1.76729513441344 -0.15658154065407
 1 -10.52742523342334 -0.15401104050405  2.62302196129613
 1 -11.17692421782178 -1.67100810151015  2.03178719491949
 1 -12.29450351435143 -0.56960142804280  3.07880640874087
 1  10.25620902750275  1.83393825392539  0.27686359425943
 1 -10.34580902560256 -1.51473658365837 -0.59307568556856
 1  9.77420149764977 -0.88821641634163  2.49096285388539
 1  10.77731854595460 -2.42245844374437  2.75164659465947
 1  9.62850491769177 -2.52417226722672  1.31069069066907
 1 -9.22982001730173  1.19940225282528 -2.08925142204220
 1 -9.08527333223322  2.84835835783578 -1.52859290549055
 1 -10.42659292429243  2.25891089648965 -2.85815578887889
 1  8.37571316211621 -0.52735351555156  0.15157820742074
 1 -8.28546194139414  0.55589978407841 -0.15685933843384
 1  8.19921315341534  3.11417645354535  1.46661604410441
 1  6.46984886558656  3.13093079727973  1.03305588528853
 1  7.89653389108911  3.28632729472947  0.01347812491249
 1 -8.13690464266427 -2.81439849894989 -1.96746343994399
 1 -8.87071806010601 -3.37467065436544 -0.24548840954095
 1 -7.05481003360336 -3.63538618991899 -0.79462834803480
 1  6.05983684818482 -0.35439066586659  0.29798778207821
 1 -6.23912589718972  0.00650258875888 -0.07661793859386
 1  4.62128548584858  2.52737118121812  0.50130303710371
 1 -5.10775087538754 -2.86554007040704 -0.54836697779778
 1  3.71280154685469 -0.30438500840084  0.25457509590959
 1 -3.70515814701470 -0.09520319041904 -0.44784665136514
 1  2.69319001840184  2.92920331643164  1.43013166846685
 1  1.23149034983498  3.18308904070407  0.59475920342034
 1  2.61908896769677  3.36115658915892 -0.54874884448445
 1 -3.18695056465647 -3.75678403430343 -1.31035604640464
 1 -2.82883448924892 -3.67199919281928  0.33322797419742
 1 -1.49881085238524 -3.89034936933693 -0.80241246764676
 1  0.38824122492249  0.93568948414841  0.49406005120512
 1 -1.38919000760076 -0.27761977477748  0.54171644554455
 1  1.98260680518052 -1.40847989768977  0.13734417021702
 1  0.15788629942994 -2.89370441274127 -0.14075493639364

