%nproc=4
%Mem=2GB
# td=(NStates=1) B3LYP/6-31G(d,p) 

TD

0 1
 6  12.12433677627763  0.68614921542154 -0.61576769566957
 6 -12.02475478957896  0.19435439383938  0.89464864376438
 6  13.47563697639764 -0.05873553355336 -0.54817081608161
 6 -12.84886138603860  1.38254264576458  1.34793550795080
 6  13.31732404660466 -1.54012968536854 -0.37721948074807
 6 -13.20986558265827  2.31274978707871  0.18134850195020
 6  10.97732952685269  0.05343960846085  0.24740227802780
 6 -10.94729239703970  0.51716159845985 -0.14459209400940
 6  12.41785622302230 -1.91199349334933  0.80407438373837
 6 -11.95471535413541  2.71560186838684 -0.49045738163816
 6  11.15126483448345 -1.13737579207921  0.83816038443844
 6 -10.90423521772177  1.70499612141214 -0.78489736343634
 6  11.70064065176518  0.51858298339834 -2.07759623822382
 6  12.37867128052805  2.18523257835784 -0.29457097609761
 6 -13.08691628242824 -1.01882900160016  0.36134996489649
 6 -11.49595846384638 -0.43891706530653  2.25094324252425
 6  9.76476453905391  0.86211232483248  0.41241324182418
 6 -9.77361716861686 -0.45568811091109 -0.27330141794179
 6  10.11534571087109 -1.78829864156416  1.83409604450445
 6 -9.87890086028603  1.99201094019402 -1.77789925482548
 6  8.47216345604560  0.49658961516152  0.19143734993499
 6 -8.55360831923192 -0.36212607790779 -0.30758708160816
 6  7.34450301850185  1.31587038733873  0.34367698029803
 6 -7.54229312321232 -1.43433190829083 -0.43810420732073
 6  7.43918696839684  2.76907954515452  0.75477791479148
 6 -8.03410059825983 -2.80259027012701 -0.65137241484148
 6  6.06751065256526  0.76080046904690  0.02686484548455
 6 -6.14025263516352 -1.05473629622962 -0.40908302000200
 6  4.85273592429243  1.30872320422042  0.25454511351135
 6 -4.93121273307331 -1.82599857765777 -0.46719810141014
 6  3.70956966856686  0.68037560276028 -0.06048409910991
 6 -3.69237462266227 -1.35421605430543 -0.28070050775078
 6  2.27337063846385  1.13763447114711  0.21657614551455
 6 -2.53028202760276 -2.10236529522952 -0.38320160026003
 6  2.07518188978898  2.58618798529853  0.79052342564256
 6 -2.56751729712971 -3.51568509500950 -0.84538588868887
 6  1.16248779727973  0.36803814541454  0.09868478547855
 6 -1.44259243234323 -1.32652122412241 -0.16508521362136
 6  1.09615398759876 -1.13917886508651 -0.16907442714271
 6 -0.03778323872387 -1.84168040784078 -0.40812456845685
 1  14.04345445124513  0.22107453695370  0.26949499239924
 1  14.23777079087909  0.13894551885189 -1.42387592599260
 1 -12.30105647064706  1.96610900110011  2.10544410921092
 1 -13.60379123672367  1.05555504780478  1.91071750985098
 1  14.39052967496750 -2.06103692139214 -0.32193563936394
 1  13.20761664336434 -1.90264416441644 -1.42377850115011
 1 -13.88155154335434  3.12691605160516  0.57798883648365
 1 -13.79614439823983  1.70718039223922 -0.38589261136114
 1  12.75563752755276 -1.85994850145014  1.82985486748675
 1  11.96936439093909 -3.02912660476048  0.76846370197020
 1 -11.62424221632163  3.66230395109511  0.28559507650765
 1 -12.21357757165717  3.11968547634763 -1.46998089928993
 1  11.59833320382038 -0.45674875217522 -2.65422355505551
 1  12.35514239493949  1.13264792609261 -2.63792036603660
 1  10.81714928622862  1.07406051775178 -2.35979669916992
 1  12.43613456755676  2.29792669456946  0.91601894239424
 1  11.59637804470447  2.93458336923692 -0.55977013401340
 1  13.35125698199820  2.53775404530453 -0.73669594069407
 1 -13.42321155185519 -0.52709671867187 -0.47776387708771
 1 -13.66240841344134 -0.96842264646465  1.18809603030303
 1 -12.53130073327333 -1.96773517841784  0.22278639613961
 1 -10.78001049194920  0.42940730133013  2.75772543164316
 1 -10.97566409180918 -1.27749875057506  2.25342935913591
 1 -12.21369543354335 -0.56554102200220  2.91281981008101
 1  9.85979938653865  1.89926478657866  0.67507341524152
 1 -10.31481592629263 -1.51947705770577 -0.29258563656366
 1  9.60383446094609 -0.87543513821382  2.24592835043504
 1  10.45364617871787 -2.47728392629263  2.63967539753975
 1  9.07639970717072 -2.44915476547655  1.52597221882188
 1 -9.26947398269827  1.32471478407841 -2.35734823172317
 1 -9.24368917381738  2.89721324332433 -1.39786983318332
 1 -10.43683394839484  2.44859986538654 -2.57183715701570
 1  8.54324991579158 -0.42264304450445 -0.18778572897290
 1 -8.28136153135314  0.65446964106411 -0.18358201070107
 1  7.86196942904290  2.90016505240524  1.63805318781878
 1  6.60214209490949  3.18364606880688  0.76801938163816
 1  7.72879711741174  3.48336699869987 -0.01567479037904
 1 -8.93363431563156 -2.73011007010701 -1.38865555915592
 1 -8.67741873017302 -3.04240742804280  0.30112625192519
 1 -7.20404495709571 -3.44298694999500 -0.86013489868987
 1  6.05479634413441 -0.24815004180418 -0.15453747044705
 1 -6.04780676527653  0.00648258675868 -0.31907218401840
 1  4.70222357965796  2.31252969706971  0.65847875467547
 1 -5.14721482178218 -2.79572308870887 -1.09920206130613
 1  3.73500376707671 -0.34799936983698 -0.56303666526653
 1 -3.73058068926893 -0.22920659075908  0.32799093239324
 1  2.49475017441744  2.83436383248325  1.73727238253825
 1  1.00519772057206  2.78855958775878  0.91440116761676
 1  2.47682474127413  3.20336080958096 -0.11954592419242
 1 -2.99407127672767 -3.55667402330233 -1.83987899869987
 1 -3.40811241704170 -4.20372236513651 -0.31320666926693
 1 -1.65062603390339 -3.88075841024102 -0.88521074747475
 1  0.21903430423042  0.95848176337634  0.35184582978298
 1 -1.59929101770177 -0.24460647344734  0.21144341824182
 1  1.98958750325032 -1.63136218591859 -0.27313687788779
 1  0.16544705550555 -2.77813285558556 -0.69610047094709

