%nproc=4
%Mem=2GB
# td=(NStates=1) B3LYP/6-31G(d,p) 

TD

0 1
 6  12.13450779337934  0.54240484098410 -0.61792791169117
 6 -12.03493580768077  0.05245020342034  1.08673785268527
 6  13.40589000170017 -0.40810047004700 -0.53678967796780
 6 -12.99427592749275  1.21670606210621  1.40255096949695
 6  13.06918923312331 -1.81081675407541 -0.62614437323732
 6 -13.39250384648465  1.95214372647265  0.15386575367537
 6  11.03493528742874  0.02181644614461  0.39758729652965
 6 -10.96626429422942  0.36537641994199 -0.10628826362636
 6  12.21356579397940 -2.20938323232323  0.57875185148515
 6 -12.15706558915891  2.42920322852285 -0.55931426732673
 6  11.11173088108811 -1.31219327382738  0.94740130853085
 6 -11.01224601880188  1.48302392419242 -0.76810568426843
 6  11.59992057975798  0.61485261036104 -1.97829630823082
 6  12.72999641304130  1.85190924602460 -0.08695021402140
 6 -12.98365595639564 -1.09624674337434  0.41798562846285
 6 -11.43631249924992 -0.38700187378738  2.32364051225123
 6  9.89469753235324  0.87865397899790  0.47030903140314
 6 -9.89925973287329 -0.63891643374337 -0.18760284808481
 6  10.04321849814981 -1.76134594629463  1.82645528042804
 6 -9.98431140134013  1.94297603670367 -1.84067553245325
 6  8.52209844954495  0.46916687288729  0.33926213241324
 6 -8.61237419581958 -0.34422428772877 -0.19559588248825
 6  7.40288885708571  1.41626042634263  0.41457407000700
 6 -7.52981187508751 -1.34352282738274 -0.35780617751775
 6  7.61786483618362  2.83697633483348  0.77825026202620
 6 -7.96675386358636 -2.75926593769377 -0.81592887048705
 6  6.10815471697170  0.90868525752575  0.21443360236024
 6 -6.31237984788479 -0.87301812441244 -0.41101321302130
 6  4.85644629532953  1.52530486238624  0.20240989999000
 6 -5.04197380918092 -1.64726070387039 -0.59615099669967
 6  3.67133584518452  0.81716928212821  0.06018796809681
 6 -3.75043042824282 -1.20402103480348 -0.43869630733073
 6  2.41174447584758  1.38219892759276  0.13157764566457
 6 -2.50286928632863 -1.94617967666767 -0.39744302440244
 6  2.25557992959296  2.89274864136414  0.41765613891389
 6 -2.44262480788079 -3.26170969746975 -0.76239758985899
 6  1.20172172067207  0.60806214781478 -0.10805588858886
 6 -1.30202837593759 -1.15563413541354 -0.28628733383338
 6  1.18259263146315 -0.83491843904390 -0.25512303200320
 6  0.11730226982698 -1.59831607140714 -0.32310606660666
 1  14.05539564536454 -0.17674524502450  0.35889393229323
 1  13.81076809060906  0.02482410671067 -1.53810734913491
 1 -12.40683704870487  2.03096548674867  1.88763232803280
 1 -13.70966182378238  0.93563305560556  2.24917135523552
 1  13.91161178317832 -2.26749756745675 -0.50694414021402
 1  12.70735661736174 -2.16939083908391 -1.57328345164516
 1 -14.10997438563856  2.63574693469347  0.34290532813281
 1 -13.87757254105411  1.22870254445445 -0.51490551265127
 1  13.02390435423542 -1.97953045964596  1.36490837283728
 1  11.89267672217222 -3.41565525762576  0.48958581418142
 1 -11.90645043714371  3.40086780748075 -0.15862934593459
 1 -12.53648986288629  2.79858336613661 -1.54375827702770
 1  11.12318568906891 -0.39743282058206 -2.16098423112311
 1  12.51109799049905  0.81266592789279 -2.63998057205721
 1  10.72390996229623  1.45743885558556 -2.03267398689869
 1  12.74783573767377  1.80869777167717  1.13884122462246
 1  11.89743815071507  2.60718062896290 -0.29091324832483
 1  13.54070592689269  2.20239050895089 -0.68699097019702
 1 -13.65223445414541 -0.61828583758376 -0.54017011771177
 1 -13.66010818341834 -1.39733553775377  1.26522374307431
 1 -12.57107471067107 -1.95162356725673  0.21562568006801
 1 -10.73890638153815  0.36569092969297  2.79370903000300
 1 -10.68590511591159 -1.06769777047705  2.05898991519152
 1 -12.02865692969297 -0.92812728062806  2.98657718581858
 1  9.85751915851585  1.91312617271727  0.57545345324533
 1 -10.06887133183318 -1.69924503450345 -0.22516889488949
 1  9.42195627312731 -0.98843643834383  2.32344610221022
 1  10.46496731083108 -2.30637683558356  2.73634506450645
 1  9.42517458465847 -2.64260411041104  1.48280790239024
 1 -9.27930496579658  1.29327163976398 -2.12932542944294
 1 -9.47075188008801  2.82201572357236 -1.37364741094109
 1 -10.58624888988899  2.20443544894489 -2.70230020332033
 1  8.15097068786879 -0.49785056525653 -0.00563751415141
 1 -8.22164555975598  0.72587678177818  0.01476782428243
 1  7.99869310141014  2.86239127502750  1.67286666916692
 1  6.39603148384838  3.46174387858786  0.90891347104710
 1  8.17209144684469  3.27927658965897 -0.00136335923592
 1 -8.34754570677068 -2.68002506160616 -1.73814050765076
 1 -8.85095608390839 -3.14308749604961 -0.30059392009201
 1 -6.98331288388839 -3.44908756005601 -0.75923480868087
 1  6.14944580908091 -0.14223945074507  0.17409539283928
 1 -6.25552753735374  0.11885382388239 -0.34387466426643
 1  4.68105146244624  2.54778322242224  0.17493039983998
 1 -5.25494559485949 -2.74633815021502 -0.89676181728173
 1  3.81738200490049 -0.25864043394339 -0.14537489908991
 1 -3.57321495269527 -0.10904457455746 -0.12469433613361
 1  2.74081478087809  2.99200959705971  1.36424507980798
 1  1.19782698349835  3.25744647644764  0.42307203470347
 1  3.01374843364336  3.32814328782878 -0.34290826042604
 1 -2.95131700130013 -3.59648800470047 -1.72373738453845
 1 -2.97992959875988 -3.74353634653465  0.09330398179818
 1 -1.56025699699970 -3.74761509590959 -0.82155438183818
 1  0.14545694649465  1.07258317351735  0.06022666786679
 1 -1.59532062066207 -0.20414242704270 -0.17755548164817
 1  2.18692723722372 -1.31647069676968 -0.28287785198520
 1  0.56461697249725 -2.74654969726973 -0.30169103000300

