%nproc=4
%Mem=2GB
# td=(NStates=1) B3LYP/6-31G(d,p) 

TD

0 1
 6  12.12865720832083  0.53851445194519 -0.72072819171917
 6 -12.18432074617462 -0.07423246484648  0.68432761166117
 6  13.45725513821382 -0.23580324032403 -0.54163016201620
 6 -13.04751125102510  1.05788017951795  1.21582229662966
 6  13.23695600980098 -1.80642631503150 -0.62814457325733
 6 -13.43749834593459  1.93065157725773  0.09168953605361
 6  11.05152694659466  0.01190545504550  0.18854639243924
 6 -10.93113078087809  0.40920080238024 -0.11977961276128
 6  12.33625806320632 -2.19359165316532  0.54731870817082
 6 -12.21362124472447  2.65233554175418 -0.47322565846585
 6  11.14868457645765 -1.20779283378338  0.72331890029003
 6 -10.95807060126013  1.67988361016102 -0.67169604330433
 6  11.56984757245725  0.67024814991499 -2.12858133673367
 6  12.52512592599260  2.00987504260426 -0.24224574357436
 6 -12.99531712251225 -1.10346746544654 -0.01880805090509
 6 -11.74992386038604 -0.78799197279728  2.06877502570257
 6  9.84629269186919  0.81264737833783  0.45777777827783
 6 -9.89468927582758 -0.48540108220822 -0.21132522032203
 6  10.19706388268827 -1.79706951865187  1.80442307720772
 6 -9.92108507870787  2.28114985408541 -1.59400086498650
 6  8.58273451315132  0.48140809700970  0.30754896109611
 6 -8.61107406580658 -0.27087695299530 -0.26013233613361
 6  7.43881244944494  1.27382618291829  0.49048166076608
 6 -7.54583347724772 -1.23597207230723 -0.44853525042504
 6  7.71625467516752  2.86795943314331  0.73018545554555
 6 -7.97437462566257 -2.71533154425443 -0.54212148974897
 6  6.22643654515452  0.86672106110611  0.28071023002300
 6 -6.24734334423442 -0.87894871747175 -0.38140025172517
 6  4.93524417511751  1.43636596849685  0.31854151315132
 6 -4.99778939073907 -1.69720569836984 -0.34872625422542
 6  3.77894660626063  0.83241080628063  0.18708065736574
 6 -3.73522890809081 -1.11686231893189 -0.35599803750375
 6  2.38428172957296  1.25755646334633  0.10818530643064
 6 -2.56357535693569 -1.78565362406241 -0.30482376247625
 6  2.27528189978998  2.70837020352035  0.22235660896090
 6 -2.64579512491249 -3.34691821832183 -0.38347969806981
 6  1.30738228672867  0.44320566216622  0.12735765276528
 6 -1.27383555665567 -1.08294686668667 -0.21366007110711
 6  1.11449582178218 -1.03627857505751  0.10042252255226
 6 -0.08072753315332 -1.68311455125513 -0.03588734473447
 1  13.90718082388239 -0.10748831933193  0.52668071097110
 1  14.35784279807981 -0.00092846854685 -1.21537507590759
 1 -12.59148551355135  1.66486887708771  2.10716428122812
 1 -13.89146000360036  0.78225771807181  1.85087152525253
 1  14.14730535253525 -2.43861467916792 -0.49973341914191
 1  12.68782466416642 -2.07267116711671 -1.44721084438444
 1 -14.28354174237424  2.65125848584858  0.42251328892889
 1 -13.79322410621062  1.16450612481248 -0.64599862196220
 1  13.02156412021202 -2.27139964656466  1.42769465146515
 1  11.82315977047705 -3.09321301340134  0.52551940754075
 1 -11.80375016711671  3.55024274497450 -0.02475595859586
 1 -12.38262447634763  3.12829633743374 -1.48195209640964
 1  11.43990736123612 -0.33088616591659 -2.74279241194119
 1  12.19063594429443  1.05419008030803 -2.82745931993199
 1  10.59003657495749  1.25855896759676 -2.19595031453145
 1  12.89182013611361  1.90354725662566  0.69239658015802
 1  11.69485789268927  2.92603251415142 -0.22748690569057
 1  13.38298015431543  2.66795706560656 -1.11124339543954
 1 -13.33392262296230 -0.69826383538354 -1.06423252395240
 1 -13.90916308890889 -1.49829563376338  0.44528174887489
 1 -12.38852645584559 -2.07828623352335 -0.56584246674667
 1 -11.09611210211021 -0.07213285268527  2.57455711481148
 1 -11.36558308370837 -1.81232223292329  1.78177219341934
 1 -12.78142220622062 -1.00430489838984  2.49724825292529
 1  9.86881028762876  1.89172403250325  0.46117202510251
 1 -10.10035448014801 -1.56723183318332 -0.34681105910591
 1  9.47335141264126 -0.91446904160416  1.92413617121712
 1  10.56107692179218 -2.19819601750175  2.67749917991799
 1  9.43026509370937 -2.60433028302830  1.55829545114511
 1 -9.31655869116912  1.68542085468547 -1.93723622052205
 1 -9.29931473637364  3.17509103110311 -1.25843588978898
 1 -10.43641390639064  2.59628463386339 -2.48336831013101
 1  8.37626321712171 -0.56560734093409 -0.07299424982498
 1 -8.04944834003400  0.74670886498650 -0.14094774727473
 1  8.20164339643964  2.86963199909991  1.63384276677668
 1  6.72348422912291  3.35938364256426  0.91377395709571
 1  8.26250048774878  3.26485514751475 -0.01129435233523
 1 -8.55097604980498 -2.87673473257326 -1.47419411301130
 1 -8.59139012731273 -3.02219540684068  0.36455259455946
 1 -6.90848540114011 -3.34028667996800 -0.63802268746875
 1  6.29453031753175 -0.22674790159016  0.11703968726873
 1 -6.06014799939994  0.25978791729173  0.00256998019802
 1  4.91365472277228  2.64225266936694  0.48953185998600
 1 -5.17362746304631 -2.74044756115612 -0.17289943104310
 1  3.73935420212021 -0.21486605650565  0.24155379377938
 1 -3.67249488068807 -0.07237090719072 -0.34951681838184
 1  2.91347204660466  3.20005040114011  0.99157781308131
 1  1.36310351115111  3.16040677247725  0.16895662316232
 1  2.64126118491849  3.14070454395440 -0.85203917351735
 1 -3.31325319491949 -3.65879423532353 -1.22634764556456
 1 -3.29666127192719 -3.96836882978298  0.50337498889889
 1 -1.63077404870487 -3.80022035643564 -0.68404063046305
 1  0.27309971077108  1.09258517371737 -0.03015237003700
 1 -1.39160024862486  0.05916390359036 -0.18701642774277
 1  1.98261680618062 -1.57658670837084  0.09694012981298
 1 -0.01618110731073 -2.79992503480348 -0.12009287018702

