%nproc=4
%Mem=2GB
# td=(NStates=1) B3LYP/6-31G(d,p) 

TD

0 1
 6  12.13050739333933  0.49486008650865 -0.66485260416042
 6 -12.12207452155216 -0.07984302590259  0.87771695059506
 6  13.35163457615762 -0.37271693169317 -0.61610760976098
 6 -13.13088958885889  1.05205959745975  1.24435514991499
 6  13.01003331753175 -1.93950962336234 -0.41266302510251
 6 -13.40047464356436  2.02634114621462  0.12812317941794
 6  10.97598939283928  0.06067033153315  0.33139067686769
 6 -11.02447011481148  0.43171305360536 -0.04159179397940
 6  12.22946738413841 -2.17803009700970  0.74014799109911
 6 -12.13733361596160  2.66585689388939 -0.48947728362836
 6  11.12958266626663 -1.12680473497350  1.05783235163516
 6 -10.92665745994599  1.69955557735774 -0.64951382508251
 6  11.55557614531453  0.41784290939094 -2.10986946554655
 6  12.61676508990899  1.96630068516852 -0.32945446444644
 6 -13.05577316811681 -1.15008212691269  0.18770260016002
 6 -11.53357222522252 -0.68947212081208  2.24696284448445
 6  9.79284734733473  0.87256336993699  0.41975397589759
 6 -9.83321312821282 -0.53622616471647 -0.13044713251325
 6  10.05429960626062 -1.62941275297530  2.04351698659866
 6 -9.87762073227323  2.18505024412441 -1.48798026292629
 6  8.57306354605461  0.50665062126213  0.24296250245024
 6 -8.51675463386339 -0.32062192749275 -0.19698602150215
 6  7.38207677587759  1.42456125642564  0.30990360296030
 6 -7.47098599249925 -1.37973644874487 -0.33837423432343
 6  7.68404145384538  2.95325796299630  0.46834927192719
 6 -7.96663385158516 -2.72732274337434 -0.73533081068107
 6  6.25470937243724  0.79014340334033  0.18886104510451
 6 -6.22809141904190 -0.95887671027103 -0.35767787948795
 6  4.94020467116712  1.52114444634463  0.31065072407241
 6 -4.97121673347335 -1.79497547534753 -0.61183256485649
 6  3.74655336693669  0.80958852405241  0.22190413971397
 6 -3.73275866106611 -1.17376800950095 -0.51711414911491
 6  2.38173147454745  1.26971767946795  0.26974146204620
 6 -2.53873287268727 -1.89403446214621 -0.54185746584658
 6  2.18982335393539  2.83625299179918  0.45711008430843
 6 -2.47249779517952 -3.35363889038904 -0.91156250635063
 6  1.27647919641964  0.58259960156016  0.16774169116912
 6 -1.35023319641964 -1.06844541654165 -0.42092079717972
 6  1.08675304750475 -0.85325027222722 -0.08384590429043
 6  0.07841838143814 -1.57676391619162 -0.31464522052205
 1  13.86596670247025 -0.15811338183818  0.28812685558556
 1  14.15575258905891 -0.12356073177318 -1.56359989838984
 1 -12.68928529352935  1.54098648884889  2.12895646044605
 1 -14.09753061066107  0.72980247254725  1.76947338543854
 1  14.09953057505751 -2.24949576727673 -0.40114356015602
 1  12.45916179787979 -2.47508140814081 -1.20052617591759
 1 -14.17601098929893  2.88518187818782  0.53059409700970
 1 -13.76534131793179  1.60970064426443 -0.72685670777078
 1  12.96547851165117 -2.26754926152615  1.68505038703870
 1  11.76332378687869 -3.13721741384138  0.71130798639864
 1 -11.77929772187219  3.32484020472047  0.12101861886189
 1 -12.62589880378038  3.11026453425343 -1.51428532973297
 1  11.26488985948595 -0.62515559285929 -2.50951908460846
 1  12.40719760046005  0.84666932823282 -2.81539811381138
 1  10.62967053835384  0.94582769446945 -2.16971769126913
 1  13.04117507160716  2.19137603950395  0.75422276277628
 1  11.70558896579658  2.56201611251125 -0.67944210121012
 1  13.15806766306631  2.44912518241824 -1.28291056215622
 1 -13.37776700740074 -0.79721373037304 -0.73373947464746
 1 -13.84008618121812 -1.31958776297630  0.87355457615762
 1 -12.30212781598160 -1.97121552645264 -0.16019190169017
 1 -10.88146063696370 -0.06934257365737  2.79752941204120
 1 -10.74316084148415 -1.59090009070907  2.08087210341034
 1 -12.32888695269527 -0.75640010791079  2.85925445354535
 1  9.85901930853085  1.80716557665767  0.63113902180218
 1 -10.25361980668067 -1.66923203320332 -0.39823620162016
 1  9.18251232873287 -0.83693128782878  2.35741949954995
 1  10.68428924302430 -1.92479867776778  2.84665609560956
 1  9.59103117031703 -2.50372022202220  1.66659628122812
 1 -9.03948098339834  1.43679599219922 -1.62385488238824
 1 -9.28331313621362  2.93189671167117 -1.03290333653365
 1 -10.27548781378138  2.42703770917092 -2.56353632693269
 1  8.34197978877888 -0.64192497269727  0.18261131073107
 1 -8.20233362856286  0.66418061216122  0.01364771227123
 1  8.17436066816682  3.06123115901590  1.51238062056206
 1  6.81067294799480  3.51502920712071  0.51618419811981
 1  8.44660889858986  3.28789745174517 -0.14274749764977
 1 -8.53536448864887 -2.85944300340034 -1.57534422802280
 1 -8.47558854715471 -3.07014020132013  0.17892403170317
 1 -7.05708026062606 -3.29312196349635 -0.84890377557756
 1  6.07071793629363 -0.33762898969897  0.12156013931393
 1 -6.00558254285429  0.15126706520652  0.13732345554555
 1  4.94238759605961  2.49379782388239  0.67536044284428
 1 -5.04823492379238 -2.82544606100610 -0.77835997709771
 1  3.90827109380938 -0.27442201210121  0.06042568096810
 1 -3.52787041824182 -0.25064873497350 -0.24714658135814
 1  2.65267596699670  3.27992838893889  1.38055671097110
 1  1.15258245904590  3.14390512231223  0.43433316081608
 1  2.62060911971197  3.33031350485049 -0.72134610421042
 1 -3.25184705430543 -3.49615797169717 -1.67545255605561
 1 -2.76261786758676 -3.89605159805981  0.02733738513851
 1 -1.55717668896890 -3.56587692209221 -1.23462568896890
 1  0.21924432523252  0.90608652385239  0.29363000820082
 1 -1.43209429802980  0.00161814901490 -0.40645837193719
 1  2.16094463896390 -1.47502655235524  0.05438587438744
 1  0.26787729852985 -2.67217225952595 -0.25805666656666

