%nproc=4
%Mem=2GB
# td=(NStates=1) B3LYP/6-31G(d,p) 

TD

0 1
 6  12.17414175677568  0.54241484198420 -0.54854097299730
 6 -12.03083539763976 -0.07869291089109  0.94228340724072
 6  13.33929334203420 -0.34229388938894 -0.42437843684368
 6 -12.85316181608161  1.17529192069207  1.43240395479548
 6  13.08511082528253 -1.83951962436244 -0.55414717351735
 6 -13.31758635473547  2.06555506760676  0.38332869997000
 6  11.01921371527153  0.00595485998600  0.35693323112311
 6 -10.86960462826283  0.50981086338634 -0.02633026782678
 6  12.20198463586359 -2.23497579157916  0.63957793409341
 6 -12.16988687128713  2.60998130633063 -0.55519385528553
 6  10.97291699969997 -1.28749080358036  0.89805637403740
 6 -11.00638543274327  1.62764838663866 -0.77468634233423
 6  11.65002559025903  0.58299942504250 -2.09198767736774
 6  12.64412782618262  1.92427648274827 -0.18189970897090
 6 -12.86742433323332 -1.15567268596860  0.42278610851085
 6 -11.30032890089009 -0.63746692029203  2.18585673387339
 6  9.80147821042104  0.91366748034803  0.44837683818382
 6 -9.86598640554055 -0.46502904500450 -0.39833392119212
 6  9.92442661896190 -1.76712652435244  1.79489212411241
 6 -9.98455142534253  2.04684642374237 -1.81790325522552
 6  8.46574281398140  0.51542149834983  0.18673687988799
 6 -8.47653061146115 -0.35758562386239 -0.34372069496950
 6  7.38433700190019  1.49990879117912  0.36894950755076
 6 -7.53904279817982 -1.39047752285229 -0.51544194109411
 6  7.62975602530253  3.01951458865887  0.66003844084408
 6 -7.95217240544054 -2.84234424552455 -0.63375065266527
 6  6.19183308480848  0.80498488748875  0.36023818281828
 6 -6.23670228012801 -0.96027685028503 -0.45780789248925
 6  4.86074672537254  1.49081141304130  0.36750640964096
 6 -5.00698030983098 -1.67345332313231 -0.49114049564957
 6  3.72633134473447  0.76859442464246  0.23541549084909
 6 -3.73615900110011 -1.11817244994499 -0.41132357005701
 6  2.28462176357636  1.34805551325132  0.09079356725673
 6 -2.56602560196020 -1.90502556125613 -0.51541482158216
 6  2.12850722232223  2.85853522002200  0.26963133643364
 6 -2.55708625402540 -3.33518704520452 -0.77342869296930
 6  1.14943649214922  0.52331367296730  0.04808972597260
 6 -1.35416358945895 -1.20125869786979 -0.26388509360936
 6  1.11612598479848 -0.87954290149015 -0.10828834853485
 6  0.04861540114011 -1.67995423522352 -0.20801455745575
 1  13.87683778957896 -0.18510608110811  0.64441248414842
 1  14.23598061186119  0.12858448274828 -1.09850338873887
 1 -12.22127849284928  1.79975236543654  2.05362892769277
 1 -13.78732959055906  0.81425091739174  2.00786722482248
 1  14.04522514451445 -2.34651546924692 -0.52602604840484
 1  12.50231611331133 -1.72568646864686 -1.50025614891489
 1 -14.07192058025803  2.99400276027603  0.76778781638164
 1 -14.02117690149015  1.73279295349535 -0.27728175027503
 1  12.69948191199120 -2.35834834143414  1.68029991199120
 1  11.89337679217922 -3.35796948904890  0.41682853845384
 1 -11.70296008810881  3.54707242794279 -0.09478296129613
 1 -12.40685689958996  2.92876638443844 -1.45786968816882
 1  11.38787215771577 -0.41727480478048 -2.41580971367137
 1  12.40937781848185  0.77031169246925 -2.81794836883688
 1  10.66046361766177  1.15976908860886 -2.30123084258426
 1  12.78204915901590  2.02984988688869  0.87235457595760
 1  11.98552695959596  2.73317322822282 -0.44014817181718
 1  13.83677553385338  2.17733800370037 -0.69910218131813
 1 -13.42141137183718 -1.02088609760976 -0.63400950165017
 1 -13.57093926652665 -1.53753955815582  1.05497271797180
 1 -12.47876547974798 -1.99024742964296  0.00572468996900
 1 -10.71739423032303 -0.08199383878388  2.69123878297830
 1 -10.88125465086509 -1.49276027672767  1.62437645384538
 1 -12.05365942994299 -0.86406087398740  2.90841937003700
 1  10.04375778237824  1.95096995709571  0.69727563546355
 1 -10.36012045674567 -1.54324943494349 -0.22120849884989
 1  9.32497657515752 -0.93478107280728  2.06390014761476
 1  10.29094990909091 -2.38181437933793  2.70777220722072
 1  9.35054712191219 -2.55003485348535  1.28349797139714
 1 -9.31348838413841  1.05290760336034 -2.04063656055606
 1 -9.14215902080208  2.84068759075908 -1.44183422962296
 1 -10.59858012301230  2.34879988538854 -2.75338531183118
 1  8.27392298309831 -0.47375815601560 -0.16139308970897
 1 -8.24266766196620  0.71311550565057  0.04355070257026
 1  8.15140837293729  2.85628066396640  1.49822920542054
 1  6.63827570827083  3.59065676987699  0.48260083978398
 1  8.25462970067007  3.40780944294429 -0.18002122502250
 1 -8.66058701090109 -3.20874793389339 -1.47173386698670
 1 -8.44248523682368 -3.09778296559656  0.30510664996500
 1 -7.04528908150815 -3.40891354265427 -0.87436632183218
 1  6.18446931143114 -0.23722894969497 -0.06537855455546
 1 -6.13418540314031  0.09868180668067 -0.40138041484148
 1  4.94030738803880  2.38683712781278  0.44156706350635
 1 -5.14543464376438 -2.74687820422042 -0.46561870297030
 1  3.83400366706671 -0.37745231513151  0.18011765016502
 1 -3.61766939813981  0.06772310221022 -0.52921478817882
 1  2.55337603700370  3.12681307740774  1.16880553585359
 1  1.01981918271827  3.07765849764976  0.24938466596660
 1  2.66226328512851  3.38779925342534 -0.58204217381738
 1 -3.22659452905291 -3.75274363026303 -1.42256726752675
 1 -2.67663926972697 -3.75673766666667  0.32281693309331
 1 -1.48422939423942 -3.58216855125513 -0.97493972037204
 1  0.19429182998300  1.12059797499750 -0.03705306010601
 1 -1.54671576017602  0.02377036423642  0.08891116501650
 1  2.11719026352635 -1.66222527222722 -0.01437100130013
 1  0.18268877967797 -2.83711875417542 -0.34413527442744

