%nproc=4
%Mem=2GB
# td=(NStates=1) B3LYP/6-31G(d,p) 

TD

0 1
 6  12.10488483108311  0.66829743024302 -0.63641976087609
 6 -12.19700201430143 -0.07256229782978  0.69335851475148
 6  13.42751216391639 -0.23556321632163 -0.59950594959496
 6 -13.09027552745275  1.16542093359336  1.09666038043804
 6  13.19203151735173 -1.68733440584058 -0.63729548834883
 6 -13.48673326942694  2.07626613871387 -0.00921055395540
 6  10.97742953685369 -0.09039477497750  0.19787732553255
 6 -10.97568523632363  0.43939382168217 -0.01995963076308
 6  12.32272671007101 -2.09397169116912  0.56043001930193
 6 -12.09255913851385  2.69612992119212 -0.44849318521852
 6  11.10792050005000 -1.27571962646265  0.83219978837884
 6 -11.11445623982398  1.62559818161816 -0.67636651035104
 6  11.68855944364437  0.72294341944194 -2.17525600420042
 6  12.40705411881188  2.02734678977898 -0.15471699069907
 6 -13.10076766756676 -1.16319343804380  0.02594642454245
 6 -11.60323919191919 -0.56770994459446  2.06960510871087
 6  9.86817488008801  0.79255536913691  0.35285728622862
 6 -9.84105391229123 -0.52973551565157 -0.33974806260626
 6  10.12936711301130 -1.58130794249425  1.87220985588559
 6 -9.82798576877688  2.06267800690069 -1.57450891579158
 6  8.62551879157916  0.42358231443144  0.20432863906391
 6 -8.58516147454745 -0.22287215251525 -0.20155647854785
 6  7.42279084728473  1.35170397069707  0.27379999259926
 6 -7.43715260916092 -1.25287376247625 -0.40211060796080
 6  7.65147819751975  2.66733937113711  0.45175761276128
 6 -7.89154634283428 -2.64688469956996 -0.77342462006201
 6  6.17072097359736  0.73098748774877  0.29411157015702
 6 -6.20260887078708 -0.85216603920392 -0.18666077777778
 6  4.90328097879788  1.38349068096810  0.32895255425543
 6 -5.04918453025303 -1.58442442024202 -0.31137251885189
 6  3.75753446504651  0.67945551075108  0.13758570787079
 6 -3.77482286748675 -1.09297993069307 -0.20621305900590
 6  2.34589789118912  1.29609031673167  0.25188967686769
 6 -2.56046504590459 -1.89555461416142 -0.23485676577658
 6  2.19365373697370  2.66972633913391  0.64231860516052
 6 -2.57216776217622 -3.42655618211821 -0.47530888098810
 6  1.30684223272327  0.42749409100910  0.13085800280028
 6 -1.35248342144214 -1.22485105710571 -0.08544724982498
 6  1.20297466966697 -0.99135408260826 -0.10927844754475
 6  0.05918645824582 -1.74103034283428 -0.11972572857286
 1  13.96895700150015  0.01513394289429  0.38438648154815
 1  14.05930294409441  0.08507013131313 -1.36046958535854
 1 -12.65086145114511  1.76130852105211  1.81870543534353
 1 -13.80970182778278  0.58279777207721  1.51664810291029
 1  14.07884850685069 -2.43807462516252 -0.51287473327333
 1  12.83561944364437 -2.06733063306331 -1.66128225152515
 1 -14.25938932713271  2.66602996299630  0.24130516811681
 1 -13.65315009880988  1.44949462366237 -1.12580660276028
 1  12.97731969576958 -2.17363987058706  1.52475435743574
 1  12.43954140864086 -3.38779247134713  0.52153900950095
 1 -11.74217400950095  3.35747346804681  0.28365488248825
 1 -12.25416163006301  3.22792630043004 -1.40200410161016
 1  11.48826219671967 -0.17765084238424 -2.79793792649265
 1  12.34820170087009  1.33130779207921 -2.82800937493749
 1  10.70866843814381  1.09804291599160 -2.39907062656266
 1  12.91971292539254  1.96462336423642  0.94657199769977
 1  11.59618802570257  2.86413632453245 -0.44107826482648
 1  13.24094595089509  2.49564983488349 -0.59928219931993
 1 -13.72463169386939 -0.54682869186919 -0.80209631033103
 1 -13.68095026762676 -1.60770657485749  0.62561978267827
 1 -12.35733333653365 -1.97557596249625 -0.39790567306731
 1 -11.00727321822182  0.15957031763176  2.48180783988399
 1 -10.99433595899590 -1.44471547224722  1.79445346154615
 1 -12.29259332333233 -1.04268873677368  2.76197472557256
 1  9.98761216781678  1.94177903800380  0.52405831373137
 1 -10.22993743844384 -1.57885299529953 -0.29128550655065
 1  9.35973005050505 -0.69724731943194  1.95155891349135
 1  10.55395620972097 -2.03618981688169  2.82812424242424
 1  9.48777084428443 -2.47501735173517  1.49597921952195
 1 -9.25765280058006  0.92337465006501 -1.95077757465747
 1 -9.08447325222522  2.51449497149715 -0.82453249944994
 1 -10.07115738073807  3.00664566996700 -2.35935590889089
 1  8.27956354715471 -0.56043682388239 -0.10972792319232
 1 -8.28793218841884  0.74801899599960 -0.05337899039904
 1  8.03231646374637  2.82513754965497  1.35281466396640
 1  6.69029090979098  3.27186489068907  0.47470004970497
 1  8.41758599629963  3.31126978897890 -0.12776599949995
 1 -8.35565651785179 -2.67786484558456 -1.73307000060006
 1 -8.63949493779378 -3.02312549984998  0.00537667696770
 1 -7.05192974557456 -3.51975462676268 -0.60392927812781
 1  5.95606647114712 -0.15354058085809  0.44923290659066
 1 -6.14503648824882  0.22183412191219  0.04252397559756
 1  4.88692204950495  2.43591203530353  0.24647755455546
 1 -5.02601270157016 -2.57779129552955 -0.42672481358136
 1  3.85982624932493 -0.37684225412541  0.07993763216322
 1 -3.54160179137914  0.04371070097010 -0.08733059975998
 1  2.79169986938694  3.04734513061306  1.54836349164916
 1  1.19692689348935  2.64171490329033  0.81556128362836
 1  2.35575263406341  3.24710518401840 -0.37003097269727
 1 -3.17958982858286 -3.77971632753275 -1.42212722352235
 1 -3.04221582738274 -3.94186617951795  0.45721037243724
 1 -1.68774974627463 -3.71077141154115 -0.66760898729873
 1  0.44955735653565  1.10792670787079  0.49200984618462
 1 -1.49593068166817 -0.22019403220322  0.24410668456846
 1  2.13616216071607 -1.28384743444344 -0.38528809300930
 1 -0.13460294949495 -2.96316135843584 -0.32989385028503

