%nproc=4
%Mem=2GB
# td=(NStates=1) B3LYP/6-31G(d,p) 

TD

0 1
 6  12.27187152975297  0.51174177467747 -0.78373449234923
 6 -12.11973428752875 -0.05324036563656  0.95691487038704
 6  13.49749916261626 -0.38164782478248 -0.54584058305831
 6 -13.02919941984199  1.14380877237724  1.42876359075908
 6  13.21583389758976 -1.80701637403740 -0.41363312211221
 6 -13.40979557565757  2.03228174027403  0.31505187228723
 6  11.12596439033903  0.10167443194319  0.24821235903590
 6 -10.95106277407741  0.42523240554055 -0.03350098489849
 6  12.31515595299530 -2.03207550155016  0.71102507880788
 6 -12.20032991559156  2.58548885708571 -0.54295263116312
 6  11.26273598159816 -1.05724777927793  0.96311287968797
 6 -11.11489628382838  1.59961558335834 -0.72682155585559
 6  11.62545313301330  0.36236736183618 -2.19140761936194
 6  12.67562097549755  1.98514256935694 -0.47285880488049
 6 -13.02096968776878 -1.09270638933893  0.23184701460146
 6 -11.49534840284028 -0.61084425802580  2.19310745894589
 6  9.92577063966397  0.94028014161416  0.43740574107411
 6 -9.93208301520152 -0.48805134723472 -0.30560464826483
 6  10.20136431273127 -1.49117892959296  1.98623125802580
 6 -10.14314728492849  2.11933367246725 -1.78392985788579
 6  8.71440768046805  0.42563251945195  0.31573978017802
 6 -8.59988294669467 -0.34011387668767 -0.29637596049605
 6  7.42579114731473  1.31982078237824  0.48455106770677
 6 -7.51932082598260 -1.38009648474848 -0.45951634853485
 6  7.59148219791979  2.76122876007601  0.78006044304430
 6 -7.97155434363436 -2.76132614371437 -0.59471674927493
 6  6.20763466496650  0.74206859585959  0.26959911891189
 6 -6.30378898879888 -0.91637245984598 -0.51165327702770
 6  4.89292994369437  1.38436076797680  0.28870852985299
 6 -5.09523913571357 -1.79334531233123 -0.62268364996500
 6  3.72558126972697  0.67334489968997  0.17576952625263
 6 -3.84068945414541 -1.11897252995300 -0.59706214391439
 6  2.41255455685569  1.24002471017102  0.24742923082308
 6 -2.59368836823682 -1.77812287098710 -0.52639591969197
 6  2.30673504510451  2.66661602810281  0.64003837713771
 6 -2.56042658805881 -3.28039156565657 -0.68045939603960
 6  1.19225077357736  0.48129947154715  0.12058697569757
 6 -1.43106127922792 -1.07921649364936 -0.30857956305631
 6  1.08895326752675 -0.85190013721372 -0.14652217191719
 6 -0.15342480288029 -1.54565080488049 -0.35137889388939
 1  13.95992609840984  0.02139456895690  0.40014805770577
 1  14.17993500730073 -0.18883725942594 -1.30487402580258
 1 -12.34926129112911  1.77911030123012  2.23365693049305
 1 -13.84379523712371  0.74208370067007  1.99073551165116
 1  14.25388601060106 -2.16703752145214 -0.15740918671867
 1  12.87374325602560 -2.25389928992899 -1.40669679297930
 1 -13.91281466966697  3.00544390439044  0.55933697129713
 1 -14.10808559235924  1.37284695889589 -0.44962898499850
 1  12.87846981078108 -2.16788929552955  1.60010189218922
 1  11.94779223372337 -3.04191788388839  0.87577443304330
 1 -11.88267805990599  3.45335305600560  0.11983850085009
 1 -12.54872108600860  3.05456896469647 -1.43936783798380
 1  11.50490386088609 -0.73990706800680 -2.46732486518652
 1  12.25445232593259  0.76495115641564 -3.08523509750975
 1  10.65167273857386  0.89356246794680 -2.43444416391639
 1  12.80697165126513  2.19743664556456  0.52618995949595
 1  11.83157156405640  2.65993590449045 -0.59986414341434
 1  13.57552940924092  2.54540481038104 -0.88064033513351
 1 -13.60059929062906 -0.58119212821282 -0.61052715341534
 1 -13.70603277587759 -1.47579338353835  0.87669489018902
 1 -12.23134073727373 -1.94204260916092 -0.10831671417142
 1 -10.97391988288829  0.18775313591359  2.75938559765977
 1 -10.88852537793779 -1.49066006670667  2.03997801400140
 1 -12.20794485848585 -0.89923439133913  2.84762329042904
 1  10.20587399399940  1.93470833093309  0.50654656255626
 1 -10.27144158885888 -1.50746585658566 -0.44295067306731
 1  9.57343142064206 -0.83625121982198  2.12117587518752
 1  10.56118693279328 -1.88109430733073  3.02370380038004
 1  9.58965103230323 -2.34480433043304  1.76891651325133
 1 -9.49353638893889  1.21903421602160 -2.32272476937694
 1 -9.28188299319932  2.57253077507751 -1.28867891409141
 1 -10.48871913691369  2.89746475187519 -2.60067004030403
 1  8.49945553635363 -0.62011279147915  0.02648569816982
 1 -8.22867626282628  0.66508070217022 -0.26892054455446
 1  8.11966519861986  2.75866090199020  1.83662304480448
 1  6.62129401010101  3.33999170337034  0.54663724342434
 1  8.47145138283828  3.36627528952895  0.19018579567957
 1 -8.65065601780178 -2.92967002610261 -1.59413610721072
 1 -8.81774276257626 -3.03737692499250  0.10822696199620
 1 -6.96446099869987 -3.23639629092909 -0.67505639083908
 1  6.14451531603160 -0.25943116991699  0.07475545884588
 1 -6.33454543914391  0.20065200370037 -0.78094837163716
 1  4.81859521682168  2.52547099119912  0.50567347414741
 1 -5.00728082838284 -2.81827534393439 -0.40412255335533
 1  3.86350661736174 -0.33719828972897 -0.01139150075008
 1 -3.78115574677468 -0.17538120822082 -0.43964583128313
 1  2.58987968736874  2.57651804790479  1.70525918121812
 1  1.22602980378038  3.13167389918992  0.51326105360536
 1  3.10583764256426  3.22212268576858  0.16181221162116
 1 -2.75308717831783 -3.71982033793379 -1.83998900970097
 1 -3.16057766356636 -3.78594058695870  0.07262191359136
 1 -1.70945191649165 -3.88074840924092 -0.48272049844985
 1  0.33989639043904  1.16823273847385  0.05030567576758
 1 -1.51762285088509 -0.06376838963896 -0.25130285638564
 1  1.94290283478348 -1.50697974767477 -0.06030559475948
 1  0.01142165296530 -2.60584562686269 -0.31995285618562

