%nproc=4
%Mem=2GB
# td=(NStates=1) B3LYP/6-31G(d,p) 

TD

0 1
 6  12.05632997559756  0.48401900240024 -0.74393051195119
 6 -12.26817913201320 -0.05818085968597  0.69843902280228
 6  13.37280669336934 -0.39992965296530 -0.70742674167417
 6 -13.09646614651465  1.03566795829583  1.01672238663866
 6  13.10354266846685 -1.83569924232423 -0.91304306310631
 6 -13.46652124822482  1.93046155825583 -0.17363699659966
 6  11.10346214011401 -0.06333206870687  0.17011454925493
 6 -11.01291895969597  0.32025190749075 -0.17229486428643
 6  12.23969840724072 -2.29507180118012  0.44638861516152
 6 -12.14081396399640  2.60500080828083 -0.65580391629163
 6  11.14632434043404 -1.24995705020502  0.75046161456146
 6 -11.02521731593159  1.60167578937894 -0.72787166086609
 6  11.58259884758476  0.76940806590659 -2.15960443904390
 6  12.52874628802880  1.83899795489549 -0.15581710071007
 6 -13.01113870467047 -1.29370648934893 -0.04390056015602
 6 -11.71606047404740 -0.58965213881388  2.01298944714471
 6  9.88041610421042  0.81014712831283  0.48535053555356
 6 -9.85719552645264 -0.58999154125413 -0.14863895169517
 6  10.06955113141314 -1.70978078977898  1.84508714361436
 6 -9.86496946714672  2.13106484558456 -1.73245471037104
 6  8.56303254295430  0.48411836803680  0.19981818801880
 6 -8.53012597099710 -0.25828569386939 -0.15745206810681
 6  7.49342791099110  1.28227702800280  0.40816342894289
 6 -7.46599549344935 -1.33229170427043 -0.29832022892289
 6  7.62843589328933  2.69158179537954  0.81788422542254
 6 -7.77582477067707 -2.76457646874687 -0.46226350395039
 6  6.16044994649465  0.76129051805181  0.25594775377538
 6 -6.23938254815481 -0.87022784538454 -0.11182329402940
 6  4.93204385508551  1.35064739663966  0.28368802780278
 6 -4.99859947174718 -1.66161213901390 -0.17041842344234
 6  3.74824353595360  0.79077664286429  0.16241819111911
 6 -3.81281666686669 -1.02331296399640 -0.06513895159516
 6  2.42624592599260  1.39794050175018  0.21593608150815
 6 -2.49481848124812 -1.80551561026103 -0.19822310241024
 6  2.28234260586059  2.85948531503150  0.59132350565057
 6 -2.58159870527053 -3.19562308880888 -0.61557290739074
 6  1.35297684618462  0.64110545214521  0.15019993699370
 6 -1.36191436453645 -0.93863243524352 -0.02641134623462
 6  1.22795716791679 -0.76528147534753 -0.09798731843184
 6 -0.01134059445945 -1.44137037683768 -0.16626038203820
 1  13.91990209600960 -0.09187675817582  0.21270931383138
 1  14.04205121892189 -0.03903227892789 -1.56768030643064
 1 -12.43459982498250  1.61761415161516  1.73181674647465
 1 -13.98640949854986  0.60301979427943  1.56132257035704
 1  14.06665728772877 -2.37784860256026 -0.85972941874187
 1  12.53298918061806 -2.31526542654265 -1.81299742304230
 1 -14.31779516771677  2.65137849784979  0.01302233983398
 1 -14.05070985478548  1.15195486968697 -0.91482550465047
 1  12.86582854665467 -1.96936944354435  1.23393527552755
 1  11.73136059055906 -3.36561025312531  0.43050990659066
 1 -11.78458825092509  3.29913763446345  0.04002051905191
 1 -12.19611582548255  3.04864837263726 -1.57161106230623
 1  11.52442581308131 -0.22986606390639 -2.79070720342034
 1  12.46905378607861  1.44001866316632 -2.36511308530853
 1  10.76478404970497  1.43901701340134 -1.99738045754575
 1  12.77317827192719  1.91251815371537  0.99649699019902
 1  11.79071747864786  2.83449336023602 -0.27157131413141
 1  13.51957381368137  2.19468973887389 -0.60703297439744
 1 -13.53696292699270 -0.92016602560256 -0.97580368106811
 1 -13.78902107470747 -1.60407621182118  0.82566978767877
 1 -12.26904450765077 -2.05004340924092 -0.26911279377938
 1 -11.18394088498850  0.38819317991799  2.70056971607161
 1 -10.83233975937594 -1.30097109780978  2.05872988918892
 1 -12.59696376037604 -1.11207567546755  2.75561408950895
 1  9.93811721832183  1.93796865696570  0.46240214811481
 1 -10.07896234093409 -1.79569467946795 -0.21587796579658
 1  9.69324340184018 -0.86674426912691  2.26974073167317
 1  10.72136295039504 -2.13206940484048  2.61148257825783
 1  9.19492155935594 -2.29743959395940  1.59797941954195
 1 -9.43745078037804  1.18809112171217 -2.14436693359336
 1 -9.17250205510551  2.80990451245125 -1.29450949714972
 1 -10.57945821082108  2.80913591899190 -2.39960993429343
 1  8.21513710451045 -0.61395217541754  0.31396444604460
 1 -8.42654604980498  0.83144733883388 -0.25841949444944
 1  8.04358759085909  2.73771880778078  1.85392477497750
 1  6.67925980668067  3.32310001420142  0.83668624832483
 1  8.50073431113111  3.02594125612561  0.26004278137814
 1 -8.46030698289829 -2.98992605170517 -1.31123781738174
 1 -8.33007399569957 -3.15909909720972  0.39444558385839
 1 -6.84983953655366 -3.62069472077208 -0.56416530173017
 1  6.10101096559656 -0.32532775957596  0.19799778307831
 1 -6.25944792939294  0.14726666516652  0.15391511471147
 1  4.81327468476848  2.60571901600160  0.52002490929093
 1 -5.05894599489949 -2.79092260866087 -0.28247038813881
 1  3.78807907460746 -0.24493906380638  0.10071971037104
 1 -3.93058068926893  0.05624195409541  0.26081421472147
 1  2.66556725612561  3.28731912801280  1.59455811111111
 1  1.15923312411241  3.33499423122312  0.57082681018102
 1  2.79725678447845  3.56704717821782 -0.15105907550755
 1 -3.18953082268227 -3.27859621552155 -1.66086109690969
 1 -3.25276688248825 -3.61668366126613  0.19883453485348
 1 -1.83885485678568 -3.75962629702970 -0.75479770617062
 1  0.44713711451145  1.15875179037904  0.13205385058506
 1 -1.46607769636964  0.00913890109011  0.24557683158316
 1  2.08235678017802 -1.58421747144715 -0.05501506570657
 1  0.07588809960996 -2.57447248954895 -0.69979083998400

