%nproc=4
%Mem=2GB
# td=(NStates=1) B3LYP/6-31G(d,p) 

TD

0 1
 6  11.97424176677668  0.51391199169917 -0.95309142804280
 6 -12.14623693779378 -0.00595563716372  0.70508968786879
 6  13.27002641534154 -0.19596925692569 -1.00695669466947
 6 -13.06698319821982  1.07034142564256  0.99562027642764
 6  13.02071438563856 -1.70984665706571 -0.90123188198820
 6 -13.42244684078408  1.94027253935394 -0.13604323722372
 6  10.96493828772877 -0.02774851035104  0.18435597339734
 6 -10.98430609840984  0.54734461676168 -0.22815044984498
 6  12.35167960536054 -2.19629192319232  0.40291426772677
 6 -12.16303618621862  2.71011131933193 -0.61722005790579
 6  11.13927363536354 -1.26757881238124  0.77151371977198
 6 -11.03887868206821  1.71787740954095 -0.85586446014601
 6  11.29906049374938  0.49470059515952 -2.34723320192019
 6  12.38037145054506  2.06766082118212 -0.69127064606461
 6 -12.91872946374638 -1.25471258995900 -0.07841401150115
 6 -11.68243711171117 -0.67790096369637  2.02018016621662
 6  9.87247531013101  0.90576669026903  0.55569757025703
 6 -9.86008581548155 -0.41505404750475 -0.38249233703370
 6  10.21245542184218 -1.69231904360436  1.92497513241324
 6 -9.91866483668367  2.27504924402440 -1.72887435233523
 6  8.52476871657166  0.45766572277228  0.47870607680768
 6 -8.55236819521952 -0.25817568286829 -0.38910523342334
 6  7.44745331353135  1.36381518181818  0.67230984358436
 6 -7.47855674957496 -1.22663113821382 -0.48992938983898
 6  7.52457550725073  2.81659429662966  0.95675811281128
 6 -7.87957514571457 -2.68708871997200 -0.66891416901690
 6  6.17996189768977  0.78348273727373  0.34977713671367
 6 -6.15491410131013 -0.91317213981398 -0.29593170487049
 6  4.89980063076308  1.35960829272927  0.43310296929693
 6 -4.86354596639664 -1.64136011381138 -0.14481586318632
 6  3.82556126772677  0.65372293749375  0.41302325162516
 6 -3.64807019221922 -1.16378701140114 -0.06199863756376
 6  2.39146244764476  1.23362407010701  0.52059654755476
 6 -2.40328932833283 -1.84614967366737 -0.15071835193519
 6  2.16325069666967  2.70825019151915  0.61296566986699
 6 -2.42020256565657 -3.28829235573557 -0.46590794089409
 6  1.20020156865687  0.41554289588959  0.40013493049305
 6 -1.23152132523252 -1.15996456845685  0.03938523342334
 6  1.16631100330033 -0.98761370857086  0.26056853715372
 6  0.04164470407041 -1.68680492029203  0.16558280228023
 1  14.01932203800380  0.10304273377338 -0.13287524462446
 1  13.70731774557456  0.14507613191319 -1.96647018541854
 1 -12.48642500750075  1.55860825102510  1.80460402520252
 1 -13.94355521312131  0.37759725202520  1.29214565266527
 1  14.07029765176518 -2.39832064976498 -1.13431687748775
 1  12.40368625032503 -1.95185908590859 -1.82664878817882
 1 -14.13537692589259  2.68009136913691  0.22913395099510
 1 -13.91557634143414  1.36433610781078 -1.09684370647065
 1  13.12490445424542 -2.06363887048705  1.03391527352735
 1  11.84750220472047 -3.33248694079408  0.32829968556856
 1 -11.91358115021502  3.53930165086509  0.09732624962496
 1 -12.30535674957496  3.28047155495550 -1.41449535073507
 1  11.30593396389639 -0.65128820612061 -2.46537467016702
 1  11.80042692339234  1.06764142544254 -3.24273084708471
 1  10.10687825912591  0.81949506120612 -2.33506422592259
 1  12.86433738783878  2.39329623152315  0.13695103560356
 1  11.56646505340534  2.62510242114212 -1.12421657865787
 1  13.27984984128413  2.33717398729873 -1.65196746784678
 1 -13.00859008970897 -0.81550555955596 -0.98072417311731
 1 -13.78308048064807 -1.65213101730173  0.54418163886389
 1 -12.33311091429143 -2.15852425732573 -0.33709959245925
 1 -11.13945643654365  0.24573893449345  2.53328298739874
 1 -11.00451697709771 -1.54686568726873  1.90865488168817
 1 -12.58845290929093 -0.79813428132813  2.59261778987899
 1  10.18056146274628  2.06362122222222  0.59056496439644
 1 -10.30305475017502 -1.46504161416142 -0.44168054605461
 1  9.82042612011201 -0.77553514821482  2.41541529912991
 1  10.84026484058406 -2.28643484138414  2.71037246724672
 1  9.53726579377938 -2.47627747774777  1.69870949254925
 1 -9.25300233553355  1.52067438003800 -2.27067956485649
 1 -9.31055586048605  2.91174469646965 -1.38015806200620
 1 -10.30163042804281  2.72223722912291 -2.55258523182318
 1  8.28503409420942 -0.55510629082908  0.11471452105211
 1 -8.36367976317632  0.64840903500350 -0.29540319281928
 1  8.10676390849085  2.76467150305030  1.88775815831583
 1  6.55700758145815  3.39719742394239  1.18935151485149
 1  8.04655889358936  3.53236189818982  0.11213799089909
 1 -8.35915686788679 -2.62203926302630 -1.69467616121612
 1 -8.36490747904790 -3.25197838513851  0.31446758605861
 1 -7.04036858945895 -3.36824947624763 -0.84911379657966
 1  6.12284314881488 -0.44946017281728  0.33195117841784
 1 -6.03237522212221  0.19077101560156 -0.07583786058606
 1  5.08805216251625  2.46670511461146  0.75520842764276
 1 -4.95439553985399 -2.67962147854785 -0.42450459155916
 1  3.87751801850185 -0.42385695559556  0.21662130053005
 1 -3.53532116331633 -0.00334400450045  0.15883401670167
 1  2.54254495389539  2.97085748184818  1.67341599689969
 1  1.11448864966497  2.96997772957296  0.69002873037304
 1  2.64034109290929  3.12847332083208 -0.21728569816982
 1 -2.89771164076408 -3.38219657555756 -1.47014202500250
 1 -3.11175278107811 -3.87205919881988  0.25376002740274
 1 -1.46062703400340 -3.71665199959996 -0.52841506790679
 1  0.18303070387039  1.03201911711171  0.51132177737774
 1 -1.27226831543154 -0.11475348814881  0.45668794269427
 1  2.00191873637364 -1.47887693739374  0.20809124492449
 1  0.30906141694169 -2.76829187148715 -0.03154401530153

