%nproc=4
%Mem=2GB
# td=(NStates=1) B3LYP/6-31G(d,p) 

TD

0 1
 6  12.06022036463646  0.46574717521752 -0.79042516141614
 6 -12.10641295539554 -0.04483952555256  0.88661784068407
 6  13.31613102580258 -0.27821748174817 -0.69364536353635
 6 -12.92500900080008  1.09529392089209  1.36274698909891
 6  13.19227154135413 -1.82842851525153 -0.55915767456746
 6 -13.23932852895289  2.09167767986799  0.28105847294729
 6  11.06677847174718  0.05066933143314  0.35612315011501
 6 -10.95398306610661  0.41963184548455 -0.08485612041204
 6  12.30951538893889 -2.04349664366437  0.73341731803180
 6 -12.03492337493749  2.72874318251825 -0.36281461736174
 6  11.13900360836084 -1.04155621012101  1.06570313871387
 6 -10.97071186538654  1.61498712051205 -0.68351722542254
 6  11.50716130383038  0.38638976407641 -2.23023150175018
 6  12.55131854525453  2.00192424752475 -0.52238375737574
 6 -12.89197678847885 -1.12829994869487  0.22660649054905
 6 -11.38717758575858 -0.63424659825983  2.09922807100710
 6  9.87240530313031  0.90513662726273  0.35550755125513
 6 -9.98699850675068 -0.62234477657766 -0.38362245004500
 6  10.25499967626763 -1.60226003770377  2.05901853675368
 6 -9.97001997219722  2.20255199429943 -1.64254571947195
 6  8.54905114481448  0.49393935013501  0.34101230743074
 6 -8.60793375177518 -0.27167703300330 -0.40371669456946
 6  7.42025059325933  1.36625542584258  0.42455506810681
 6 -7.51607050095010 -1.32434090919092 -0.67234763166317
 6  7.58728177787779  2.90644328152815  0.58683112011201
 6 -7.91904909310931 -2.74350436153615 -0.87581485908591
 6  6.17129103060306  0.72054644364436  0.33311547054705
 6 -6.24402301220122 -0.90717153975398 -0.52395450715072
 6  4.91655230593059  1.36143847574757  0.48168782778278
 6 -5.02232184398440 -1.62886886468647 -0.55493687528753
 6  3.65485419701970  0.72066963216322  0.43886583588359
 6 -3.76919230443044 -1.06454708740874 -0.39177161486149
 6  2.29740304170417  1.20723143084308  0.32181666956696
 6 -2.56402540194019 -1.84600965966597 -0.35623890399040
 6  2.04857922952295  2.63176254275428  0.36186055935594
 6 -2.66418696409641 -3.33919744624462 -0.68423977407741
 6  1.22370391889189  0.41596293789379  0.15251016801680
 6 -1.37634580768077 -1.15800437243724 -0.22088079317932
 6  1.19390376257626 -1.01128607580758 -0.06436395609561
 6  0.01573211281128 -1.69320556035604 -0.18108186418642
 1  13.86542664846485  0.13366579607961  0.19175721862186
 1  14.05196221002100  0.22503412771277 -1.44086762516252
 1 -12.38525489048905  1.58445083528353  2.17678124292429
 1 -13.85244610221022  1.01832132443244  1.76329276737674
 1  14.02007262926293 -2.40083090079008 -0.34849829562956
 1  12.78867474917492 -2.13189708970897 -1.48365448874887
 1 -13.81263465166517  2.94224758475848  0.49191022862286
 1 -13.94304908870887  1.47236691089109 -0.31260528262826
 1  13.02871483528353 -1.87149965656566  1.53079496149615
 1  12.01517897239724 -2.91344503660366  0.74562141774177
 1 -11.86156594869487  3.41677939863986  0.30748726572657
 1 -12.40695690959096  3.21652516031603 -1.25412931413141
 1  11.32205557605761 -0.58764184148415 -2.52907103980398
 1  12.24416129682968  0.85293995529553 -3.01239781378138
 1  10.54018158945895  0.96364947664766 -2.25568628812881
 1  12.89685063916392  2.02105900780078  0.48542588308831
 1  11.49827823472347  2.43525343624362 -0.66573073007301
 1  13.20937279357936  2.55709597949795 -1.33393566466647
 1 -13.53583281398140 -0.86672068106811 -0.70230633133313
 1 -13.80847301990199 -0.99045484968497  1.12144936563656
 1 -12.63329093229323 -2.12516092099210 -0.06602248474847
 1 -10.95734822572257  0.21699606020602  2.72714237333733
 1 -10.65178170357036 -1.46174717541754  1.96310032623262
 1 -12.10576464046405 -1.07248171607161  2.78311683978398
 1  10.16560996759676  2.17619247934793  0.45536144404440
 1 -10.28673311801180 -1.63603871387139 -0.40892727072707
 1  9.73309738723873 -0.76275387008701  2.61613537113711
 1  10.78087890199020 -2.03286948484848  2.87508893889389
 1  9.44123619081908 -2.24719456945695  1.70690031163116
 1 -9.38938597389739  1.40695300790079 -2.16818931583158
 1 -8.99073387828783  2.79348287028703 -1.34767481368137
 1 -10.49243950895090  2.96339134453445 -2.42283225652565
 1  8.48748433923392 -0.48336911711171  0.27354040364036
 1 -8.37110050525052  0.74281847594759 -0.24833848634863
 1  8.14491772387239  3.15199023492349  1.53072245474547
 1  6.60000188088809  3.42503020722072  0.49983256295630
 1  8.38831306900690  3.29584824682468 -0.10832405530553
 1 -8.60659161136114 -2.79236629572957 -1.82009870347035
 1 -8.41339232753275 -3.31639482678268  0.06002214151415
 1 -7.19982453505351 -3.41570422172217 -0.80324921012101
 1  6.27927879237924 -0.27432265906591  0.37963594689469
 1 -6.21728371297130  0.34731667016702 -0.44148442524252
 1  5.00203356065606  2.41538998309831  0.65477838463846
 1 -4.93463356365637 -2.78715223162316 -0.66749889098910
 1  3.72977324402440 -0.26729129902990  0.63762340074007
 1 -3.53453108430843 -0.03298696879688 -0.32882474917492
 1  2.47129782918292  3.11335173127313  1.35143379867987
 1  1.08669587038704  2.85372610441044  0.09639936743674
 1  2.56209326812681  3.26009648314831 -0.39410337993799
 1 -3.10563243284328 -3.49693804970497 -1.63075808660866
 1 -3.38524012981298 -3.77125911881188  0.00054470587059
 1 -1.58856982828283 -3.85323565796580 -0.54542676907691
 1  0.18706110691069  0.80281619681968  0.27488813401340
 1 -1.33177426602660 -0.11008302110211  0.01764403830383
 1  2.21770031453145 -1.56979602930293 -0.07253681788179
 1  0.09392990379038 -2.77173221552155 -0.19373023392339

