%nproc=4
%Mem=2GB
# td=(NStates=1) B3LYP/6-31G(d,p) 

TD

0 1
 6  12.20651499409941  0.64242484298430 -0.45969208810881
 6 -12.24114642874287 -0.00636567816782  0.75322450135014
 6  13.54467388008801 -0.20077973797380 -0.46380237923792
 6 -13.07244374427443  1.17461185268527  1.18656937133713
 6  13.17431974617462 -1.70955662806281 -0.63763552235224
 6 -13.37377197329733  2.07885639773977  0.07477784488449
 6  11.03210500440044 -0.01596733223322  0.24943248104810
 6 -11.00985865366536  0.54611449374937 -0.03781141594159
 6  12.38580301770177 -2.12132442644264  0.53611758805881
 6 -12.11524140674067  2.72627293549355 -0.46191452735274
 6  11.19405911391139 -1.20096215071507  0.83648021642164
 6 -11.05232002620262  1.66137175897590 -0.76609548324832
 6  11.85525611331133  0.85277640274027 -1.95416389498950
 6  12.71515492889289  1.99746380148015  0.03784226522652
 6 -13.01208879967997 -1.02045916461646  0.01849567946795
 6 -11.73341220922092 -0.73371654525453  2.10262841104110
 6  9.85366342894289  0.85781189478948  0.38533053355336
 6 -9.92805261216122 -0.50200274237424 -0.14437852565257
 6  10.21889606590659 -1.84236404810481  1.88378101300130
 6 -9.87278024822482  2.21155289438944 -1.63437490239024
 6  8.52045828552855  0.46916687288729  0.17490569676968
 6 -8.55285824422442 -0.35958582388239 -0.08380470337034
 6  7.38350691889189  1.23057185748575  0.31767438003800
 6 -7.51383027692769 -1.33866234133413 -0.29108950585058
 6  7.56301935163516  2.77452008920892  0.43531596859686
 6 -8.04628181638164 -2.83469348044804 -0.43232050965097
 6  6.03453735523552  0.82910729972997  0.23605576457646
 6 -6.22796140604060 -0.92259308190819 -0.07541965366537
 6  4.83691434213421  1.41898423032303  0.30891055005501
 6 -5.03766337813781 -1.73232921072107 -0.28996037763776
 6  3.68926763836384  0.62538010321032 -0.00838888958896
 6 -3.77903328852885 -1.13366399909991 -0.32643508120812
 6  2.38459176057606  1.22063277097710  0.10946543444344
 6 -2.51627062646265 -1.84465952465247 -0.46084936503650
 6  2.18014238583858  2.70972033853385  0.31364573787379
 6 -2.61923246864687 -3.37081060756076 -0.67714906500650
 6  1.26611816031603  0.45701704330433 -0.07200228322832
 6 -1.37942611571157 -1.20336890889089 -0.22323102820282
 6  1.24301867406741 -1.02270721792179 -0.17810533023302
 6  0.04117465706571 -1.73106934673467 -0.24355811181118
 1  13.96425653145315  0.09493192269227  0.69987803070307
 1  14.16682369616962  0.03961558585859 -1.22518605700570
 1 -12.56558292329233  1.77866025622562  1.97558112291229
 1 -14.29788064566457  0.83240273257326  1.67868430653065
 1  13.97177779977998 -2.33918473617362 -0.80641408720872
 1  12.55667154885488 -1.71903580358036 -1.68425454875488
 1 -14.01828521672167  2.81082444244425  0.47163820142014
 1 -13.85741052485249  1.53897357155716 -0.73160718281828
 1  13.11711367516752 -2.23844635123512  1.13513539553955
 1  12.01389884438444 -3.15384907700770  0.19678653425343
 1 -11.66176596869687  3.51925964666467  0.14133065006501
 1 -12.45784199809981  3.07678118591859 -1.50481438263826
 1  11.54295766626663 -0.04762784008401 -2.65077321002100
 1  12.65020190089009  1.20357501880188 -2.51355792979298
 1  10.95131270257026  1.47190030173017 -1.97065778527853
 1  13.07893884798480  2.12584948684869  1.23731107160716
 1  12.18767717461746  2.85376528742874 -0.09992414941494
 1  13.62133398969897  2.17682795269527 -0.65770804190419
 1 -13.48351758245825 -0.72445645464546 -1.02635873657366
 1 -13.93139531213121 -1.47449325352535  0.65114233493349
 1 -12.24523212641264 -1.81514991989199 -0.19594547704770
 1 -10.91340383128313 -0.10308594799480  2.56225588468847
 1 -11.32315884128413 -1.84979598029803  2.13633764996500
 1 -12.63717778177818 -0.75519998789879  2.94032256035604
 1  10.07643104970497  1.92723758385839  0.45719162706271
 1 -10.49596404110411 -1.41941705170517 -0.69483586158616
 1  9.49650372787279 -0.96595419011901  2.13714747234723
 1  10.90934174827483 -2.11902810071007  2.80100153015302
 1  9.56792886008601 -2.63156300630063  1.77082670427043
 1 -9.44622165746575  1.25409772237224 -2.17589008590859
 1 -9.30436524142414  2.94241776377638 -1.17509755595560
 1 -10.28815908090809  2.85230023542354 -2.38850882418242
 1  8.30219581038104 -0.70869164936494  0.14816786638664
 1 -8.16184958015802  0.71428562266227  0.01882823032303
 1  7.98961219331933  3.20770580648065  1.40719010151015
 1  6.64705658635864  3.33854155835584  0.37473005270527
 1  8.30697493519352  3.05637429942994 -0.58839206210621
 1 -8.45962691489149 -3.09404646374637 -1.39988668226823
 1 -8.74100508880888 -2.94666785408541  0.44184032333233
 1 -7.22915746834683 -3.60036268756876 -0.15893477867787
 1  6.00691155565557 -0.25480070687069  0.02188017131713
 1 -6.16420840544054  0.12809474797480 -0.04977525432543
 1  4.70171352865287  2.50021846594659  0.34662756955696
 1 -5.12262236253625 -2.70141365776578 -0.34332647374737
 1  3.84377464416442 -0.41606617651765 -0.19296965856586
 1 -3.76927455865587 -0.13139680978098 -0.22953482018202
 1  2.78166886628663  2.80789118521852  1.28660731603160
 1  1.17266446724673  3.03703443524353  0.84945467296730
 1  2.53043010181018  3.21530200370037 -0.77377134673467
 1 -3.18922079167917 -3.63588194409441 -1.52109712051205
 1 -3.08015962176218 -3.76917891079108  0.24467911931193
 1 -1.82918388968897 -4.05362569696970 -0.85049727612761
 1  0.30423282408241  1.16856277147715 -0.31173052785279
 1 -1.39632072067207 -0.12971498429843 -0.11811953805381
 1  2.24098264276428 -1.60490954065407 -0.06596616081608
 1  0.18301881268127 -2.93785882818282 -0.37440830173017

