%nproc=4
%Mem=2GB
# td=(NStates=1) B3LYP/6-31G(d,p) 

TD

0 1
 6  12.17548189078908  0.63611421192119 -0.66680279917992
 6 -12.13855616971697  0.04759971837184  0.90351953085309
 6  13.49599901260126  0.02103244324432 -0.58113411241124
 6 -13.00841734163416  1.27207159865987  1.26152686708671
 6  13.42574488868887 -1.60286595899590 -0.52953471227123
 6 -13.46483107920792  2.14388290039004  0.03844421152115
 6  11.02554434833483  0.05899016351635  0.20893843164316
 6 -11.01132880068007  0.49418930123012 -0.14846248104810
 6  12.44651908930893 -1.92568486248625  0.60412438873887
 6 -12.10186006860686  2.74998530673067 -0.56332466836684
 6  11.26197590559056 -1.15693774827483  0.83686025442544
 6 -10.94609940414041  1.75159078087809 -0.78078695239524
 6  11.71496208390839  0.61383250835084 -2.10132861146115
 6  12.40829424282428  2.13589764486449 -0.39462098109811
 6 -13.05205279607961 -1.00587770647065  0.30848467836784
 6 -11.46571543954395 -0.51957513111311  2.14419256745675
 6  9.88520658325833  0.96631274487449  0.41568356885689
 6 -9.92202200910091 -0.48135067716772 -0.24577866566657
 6  10.31127530383038 -1.74553436513651  1.87120975587559
 6 -9.98681165136514  2.21541328042804 -1.66274773967397
 6  8.58903514321432  0.42413236943694  0.35297350355035
 6 -8.57384034243424 -0.27487735303530 -0.37499382228223
 6  7.35024359255926  1.26130493079308  0.42038465106511
 6 -7.51073996789679 -1.30559903500350 -0.54612500940094
 6  7.50165321502150  2.74862749995000  0.58464090109011
 6 -7.99209639783978 -2.68444845594559 -0.81827910551055
 6  6.10679458095810  0.60604499349935  0.32100425942594
 6 -6.18494710461046 -0.99085990859086 -0.31004311601160
 6  4.83030368106811  1.22109444134413  0.35861552055206
 6 -5.02989260106011 -1.87270324812481 -0.39073045464546
 6  3.66187489908991  0.56507407260726  0.16226817611761
 6 -3.81209659485949 -1.23249388208821 -0.12293473117312
 6  2.31784508590859  1.12257296499650  0.29185367326733
 6 -2.56606560596060 -1.99613467216722 -0.25676895699570
 6  2.14963933553355  2.58084745124512  0.61209558285829
 6 -2.62320286568657 -3.38434196069607 -0.53074442454245
 6  1.15983753225323  0.31867320892089  0.11836675367537
 6 -1.33246141924192 -1.32819139113911 -0.12960166526653
 6  1.14928930113011 -1.05957090429043 -0.22953047274727
 6  0.01616215581558 -1.82332857265727 -0.28988274427443
 1  14.00978108390839  0.39187161666167  0.34454249714972
 1  14.44786179998000  0.21935355965597 -1.34849838823882
 1 -12.40140650565056  1.92843523372337  2.04269783458346
 1 -13.99532038963896  0.73900339263926  1.71883832193219
 1  14.30548117011701 -2.21478229592959 -0.42514596039604
 1  13.06368224992499 -1.73756765676568 -1.46202232553255
 1 -14.00045343354335  3.05269862986299  0.39058009560956
 1 -14.00859564336434  1.43205287948795 -0.62227624972497
 1  12.84664662846285 -2.01055356195620  1.61902378437844
 1  12.21834928942894 -2.80387407950795  0.39418627422742
 1 -11.83658345044505  3.81651937263726 -0.10878436143614
 1 -12.53740995489549  3.08834234203420 -1.54343824502450
 1  11.91142451295130 -0.39839291659166 -2.67087522022202
 1  12.43679055975598  1.14633929522952 -2.84973154715472
 1  10.62835040634063  0.90674378607861 -2.25057577707771
 1  12.58862981708171  2.23612051395140  0.64085142564256
 1  11.43292169906991  2.77680759165917 -0.62442659965997
 1  13.37032888918892  2.56215648554856 -0.96220849194919
 1 -13.48731796249625 -0.51204521352135 -0.58921502220222
 1 -13.76627880048005 -1.41218702290229  1.09071629232923
 1 -12.51366897009701 -1.86999540444044 -0.17448333083308
 1 -10.81975446634664  0.14007836843684  2.58799845894589
 1 -10.79395592099210 -1.40550155085509  1.86272028822882
 1 -12.13459752375237 -0.81108557645765  3.02974150225023
 1  9.90313371997200  2.01867672777278  0.44796070397040
 1 -10.57004144884488 -1.34374948494850 -0.44724110211021
 1  9.74309838733874 -1.02477007170717  2.26174993259326
 1  11.00806162026203 -2.03237943584358  2.70178160816082
 1  9.68596066326633 -2.55301515151515  1.49171879347935
 1 -9.03269030433043  1.50800311291129 -2.07494999189919
 1 -9.62979778467847  3.07735125712571 -1.02919296549655
 1 -10.36364662966297  2.69184418981898 -2.43990396369637
 1  8.26561215201520 -0.68925970617062  0.24716776637664
 1 -8.18183157835784  0.64726892099210 -0.23570722322232
 1  7.83805703780378  2.73543857975798  1.58965834833483
 1  6.47323920462046  3.21701940614061  0.36935951565156
 1  8.14129836753675  2.97331599359936 -0.11939516241624
 1 -8.64007495969597 -2.62488954805481 -1.77755444904490
 1 -8.82729371767177 -3.07581076837684 -0.17437129782978
 1 -7.34650920352035 -3.53327597889789 -0.70938982418242
 1  6.08327919241924 -0.39799502630263  0.00400838413841
 1 -6.17292927752775  0.12603454195420 -0.39550982778278
 1  4.77062041934193  2.34447289138914  0.59947285408541
 1 -5.36506660696070 -2.87296081248125 -0.87510965206521
 1  3.80818108480848 -0.45112968286829 -0.12710307190719
 1 -3.69196682788279 -0.08102177227723  0.20827896119612
 1  2.67401810121012  2.85401579767977  1.67731638693869
 1  1.08005520632063  2.87245797759776  0.56458618611861
 1  2.68794585338534  3.18896937043704 -0.25824979457946
 1 -2.92910478007801 -3.42031038693869 -1.46882189298930
 1 -3.34178578437844 -4.05704769766977  0.06396104750475
 1 -1.77061803310331 -3.99253958835884 -0.40477270367037
 1  0.13484588538854  0.73829974517452 -0.02829218401840
 1 -1.33291438003800 -0.24316632943294  0.17787006090609
 1  2.14590313481348 -1.71223027272727 -0.26137570177018
 1  0.09490000080008 -2.88105314761476 -0.54208506940694

