%nproc=4
%Mem=2GB
# td=(NStates=1) B3LYP/6-31G(d,p) 

TD

0 1
 6  12.21157550015001  0.58813941444144 -0.53469958885889
 6 -12.07518983308331 -0.07527256885689  0.88233741264126
 6  13.51422083478348 -0.17183684368437 -0.37759375837584
 6 -13.07276377627763  1.06727111861186  1.28867958235824
 6  13.31510382458246 -1.69199487188719 -0.51645340414041
 6 -13.40367496359636  2.02524103620362  0.17087745484548
 6  11.03776557045705 -0.02248798429843  0.27143468126813
 6 -10.99371703950395  0.42890277257726 -0.01694932973297
 6  12.37826226362636 -2.12032432643264  0.68973294959496
 6 -12.15750563316332  2.58966927512751 -0.43478181408141
 6  11.11741144914491 -1.26212826732673  0.83505007340734
 6 -11.01365615981598  1.64894051585159 -0.61367024072407
 6  11.73054364206421  0.42727385248525 -2.10884936353635
 6  12.46272968636864  2.05247930303030 -0.15861738073807
 6 -12.98880647144714 -1.12386950565057  0.13445727562756
 6 -11.55812468046805 -0.65954912851285  2.07932608080808
 6  9.78905696829683  0.75489160276028  0.42376437693769
 6 -9.89895970287029 -0.53172571467147 -0.21909599739974
 6  10.20799497579758 -1.76602641434143  1.88108074297430
 6 -10.18272124232423  2.20230196929693 -1.70885235013501
 6  8.61998823852385  0.34302425862586  0.18429663586359
 6 -8.55665862426243 -0.34524438973897 -0.16313263616362
 6  7.42724129232923  1.31474027432743  0.28452106470647
 6 -7.57070596449645 -1.30958943404340 -0.35921631853185
 6  7.68507155685569  2.78389102630263  0.63235567256726
 6 -7.82380956915692 -2.66915692679268 -0.74387166476648
 6  6.07692159365937  0.69838422742274  0.14623678267827
 6 -6.30221883178318 -0.94267509010901 -0.31218333003300
 6  4.85270592129213  1.42511484338434  0.17236689568957
 6 -4.97933754555456 -1.60062604040404 -0.40407178877888
 6  3.70899961156116  0.79528709390939  0.28946089538954
 6 -3.78546393159316 -1.15022565526553 -0.29177161486149
 6  2.34778808020802  1.29941064876488  0.04474896279628
 6 -2.50152915231523 -1.82620767946795 -0.25705898599860
 6  2.08505287688769  2.76765613211321  0.40885525882588
 6 -2.53325387078708 -3.28785231173117 -0.50232158225823
 6  1.23573512201220  0.52018335993599 -0.17103218621862
 6 -1.30734890799080 -1.05190376237624 -0.21066977207721
 6  1.16343071527153 -0.83678862606261 -0.39071659135914
 6  0.00315085468547 -1.63224946474647 -0.45366912291229
 1  13.84941504730473  0.04017644714471  0.88661670457046
 1  14.53945095889589 -0.10597897359736 -1.04369790819082
 1 -12.65839220422042  1.69967235743574  2.14478804360436
 1 -13.96651750935094  0.74720421272127  1.69581601970197
 1  14.18529915191519 -2.24129494719472 -0.53369681548155
 1  12.53909979167917 -2.03590749074908 -1.53621974527453
 1 -14.14144753295330  2.90517387738774  0.67373841144114
 1 -14.10534531833183  1.67009668386839 -0.76312033413341
 1  12.85775773957396 -2.16240874747475  1.71876375837584
 1  11.98761621612161 -3.10189388148815  0.59663651925193
 1 -11.88230802290229  3.36569429012901  0.25858237523752
 1 -12.13601981588159  3.22282579037904 -1.43059696089609
 1  11.58106147664767 -0.75243832113211 -2.33641177387739
 1  12.38187506820682  1.12349701100110 -2.60353692769277
 1  10.54996256755675  0.70861397309731 -2.24043476297630
 1  12.85133608770877  2.11164806670667  0.86176351685169
 1  11.72778118501850  2.84389430033003 -0.44173833083308
 1  13.42737459375938  2.48873914381438 -0.65481775287529
 1 -13.47557678837884 -0.84264827382738 -0.66848294899490
 1 -13.76681885448545 -1.60187599179918  0.67841506220622
 1 -12.60050765396540 -2.11390979587959 -0.33619950245024
 1 -10.80002249314932  0.12039640024002  2.19369902900290
 1 -10.83548007340734 -1.50407140784078  1.94873889008901
 1 -12.17296136013601 -0.82150661856186  2.96250477857786
 1  10.08061146774678  1.81676653675368  0.58298420632063
 1 -10.09953439813981 -1.52672778277828 -0.59556593459346
 1  9.60637471497150 -0.80420801550155  2.03021677927793
 1  10.63011382548255 -1.85836203410341  2.68677010701070
 1  9.70494256145615 -2.78274812481248  1.26349597119712
 1 -9.16327336263626  1.48633094569457 -1.75249774667467
 1 -9.80387519241924  3.35132865486549 -1.58284833103310
 1 -10.83417368236824  2.22362736813681 -2.54882485578558
 1  8.42051764256425 -0.72679345954595  0.13993704330433
 1 -8.35119851505151  0.69597379147915  0.23648999649965
 1  8.29609284138414  2.82567760366037  1.52944232673267
 1  6.75743762446245  3.39272697689769  0.74035661536154
 1  8.39538377607761  3.04173283528353 -0.04523774667467
 1 -8.47370832303230 -2.73078013711371 -1.60622731633163
 1 -8.53446443474347 -3.19832301960196  0.06149228852885
 1 -6.90833538613861 -3.31805445674567 -0.55361424662466
 1  6.07319818431843 -0.32916814361436  0.14994297759776
 1 -6.06585857045705  0.23350528902890 -0.40022029882988
 1  4.94453781108111  2.41742018611861  0.69216212301230
 1 -5.00698079837984 -2.81596511291129 -0.16576871797180
 1  3.82801306800680 -0.30609517941794 -0.09352971457146
 1 -3.66243387458746 -0.08811248134813 -0.14811667836784
 1  2.56766746614661  3.13592398849885  1.24843349864987
 1  0.93424062486249  3.04942567436744  0.48490821832183
 1  2.76170322912291  3.41994246774677 -0.41163513311331
 1 -3.29920178977898 -3.40507886378638 -1.25319032983298
 1 -2.98345995179518 -3.82695468836884  0.33862851425143
 1 -1.56841781308131 -3.91687202160216 -0.70089231563156
 1  0.22314471527153  1.01150706590659 -0.21700105490549
 1 -1.48863995259526 -0.02438445124512 -0.19976770287029
 1  2.18142668716872 -1.50790984068407 -0.45953551775177
 1  0.08323883468347 -2.65690073237324 -0.32640350125012

