%nproc=4
%Mem=2GB
# td=(NStates=1) B3LYP/6-31G(d,p) 

TD

0 1
 6  12.24181852445244  0.52512311281128 -0.80125624452445
 6 -12.22688500260026 -0.07567260886089  0.89749892879288
 6  13.51786119881988 -0.27280694069407 -0.49222522152215
 6 -13.08464496439644  1.11168556005601  1.37298801320132
 6  13.24651696589659 -1.75202087448745 -0.44598635743574
 6 -13.44028862496249  2.12522103420342  0.22615298239824
 6  11.09882167606761  0.08907317181718  0.18263580138014
 6 -11.06258392619262  0.41294117641764 -0.07978561336134
 6  12.54249868726873 -1.99570186418642  0.92415639193919
 6 -12.22714259685969  2.58868917711771 -0.37081541744174
 6  11.22699240724072 -1.08102015651565  0.94480104850485
 6 -11.11768656285629  1.62673829562956 -0.67737661136114
 6  11.82062264996500  0.27506863196320 -2.19250772937294
 6  12.63717713111311  2.04801885698570 -0.59031055005501
 6 -13.12430002080208 -1.12375949464947  0.25357918781878
 6 -11.57047591559156 -0.71396457005701  2.07816596479648
 6  9.98459652225223  0.90153626722672  0.30947294779478
 6 -9.98954876177618 -0.57639018111811 -0.32631671947195
 6  10.32623679998000 -1.48085789748975  2.04106674157416
 6 -10.02764573477348  2.12239397849785 -1.72129359425943
 6  8.63990022972297  0.51173112931293  0.45516372257226
 6 -8.64635759415942 -0.27599746504650 -0.25625194809481
 6  7.46217478567857  1.36213501380138  0.40584319691969
 6 -7.55511440534053 -1.20870934603460 -0.51713211011101
 6  7.53717676737674  2.82513515071507  0.89231166816682
 6 -8.04434162236224 -2.63951396249625 -0.79726700430043
 6  6.24716861836184  0.71148553755376  0.27865002400240
 6 -6.24606321622162 -0.92506332893289 -0.28575068676868
 6  4.94000465116512  1.22874520642064  0.25617527652765
 6 -5.10387999979998 -1.65576155395540 -0.52036341794179
 6  3.69581829342934  0.52229979517952  0.03140508980898
 6 -3.84959034423442 -1.12498313101310 -0.30504294199420
 6  2.50191349274928  1.19150985868587  0.20768525642564
 6 -2.63810280968097 -1.78106316501650 -0.35886916701670
 6  2.43474784638464  2.62744211071107  0.46598097139714
 6 -2.66700724612461 -3.28606213271327 -0.76958830893089
 6  1.30912246074607  0.40851219281928  0.13671858885889
 6 -1.46645481858186 -1.02198077007701 -0.34668337343734
 6  1.14229860206021 -0.98044299149915 -0.18538605830583
 6 -0.16591605200520 -1.55811205100510 -0.38647240324032
 1  14.04099420522052 -0.08601617211721  0.42225026792679
 1  14.04390140394039 -0.04085246094609 -1.45164870327033
 1 -12.55239160416042  1.60917330753075  2.08718228302830
 1 -13.88722958055806  0.71483097539754  1.86345278337834
 1  14.14128475047505 -2.14256507420742 -0.57121056685669
 1  12.69098498019802 -2.11973587358736 -1.21768789208921
 1 -14.09526291449145  2.93305666566657  0.61416245384538
 1 -13.99426421022102  1.76026570077008 -0.49251327342734
 1  13.24361632543254 -1.65027753435343  1.78481036303630
 1  12.01781923642364 -3.17102079417942  1.09033588918892
 1 -11.77222701480148  3.63029074977498  0.11681819881988
 1 -12.51061727562756  2.88076158395840 -1.41035493669367
 1  11.45434880538054 -0.81165424272427 -2.28332646534653
 1  12.63015989668967  0.58054271557156 -2.99029560356036
 1  10.82714028532853  0.85909902160216 -2.40979169866987
 1  12.78508946304630  1.99376627852785  0.41121846234623
 1  11.84986339323932  2.88614852575258 -0.84638879587959
 1  13.52463431973197  2.42205247514751 -1.13892616371637
 1 -13.65337456815682 -0.51642565156516 -0.59192529322932
 1 -13.96680885348535 -1.68312411661166  0.59423664436444
 1 -12.31630923412341 -1.96083448834884 -0.02237812031203
 1 -10.70765325622562 -0.11065670507051  2.62007166626663
 1 -11.21703822922292 -1.76425742644264  1.83533754995500
 1 -12.42457652165217 -0.86337080498050  2.91478000610061
 1  9.94738814541454  2.09420428052805  0.32752866076608
 1 -10.02326677137714 -1.77387249724973 -0.45557193519352
 1  9.88124220172017 -0.49799739443944  2.27855161276128
 1  10.94867568166817 -2.02457865576558  2.82165359535954
 1  9.53994606180618 -2.27783763376338  1.58826844844484
 1 -9.62259929522952  1.27653996659666 -2.51961445834583
 1 -9.01010581548155  2.54976849884989 -0.97165721192119
 1 -10.68270853585359  2.85198020342034 -2.52163213651365
 1  8.30491608240824 -0.54889566976698  0.53949699929993
 1 -8.32522591779178  0.80331452555256  0.03143949144914
 1  7.81941517361736  2.67858289418942  1.94891427392739
 1  6.48782066276628  3.39479718391839  0.72670525022502
 1  8.39485372307231  3.56212487448745  0.27239401650165
 1 -8.50460141234123 -2.72646970607061 -1.83045973957396
 1 -8.70035102340234 -3.08420160746075 -0.09698355905591
 1 -7.30375492809281 -3.36174882618262 -0.91475036023602
 1  6.20239110361036 -0.28615384218422  0.12967095039504
 1 -6.09738172277228  0.11469340784078  0.19158888208821
 1  4.86057941524152  2.23571201530153  0.48165107190719
 1 -5.17046714701470 -2.67710122652265 -0.73596573767377
 1  3.87315758245825 -0.60463503340334 -0.06023638523852
 1 -3.82623025422542 -0.01819548964897 -0.14538640534053
 1  2.97946864626463  3.12718311441144  1.43502215751575
 1  1.29238643944394  2.93450418221822  0.47992772027203
 1  2.88308536733673  3.33654412791279 -0.28784275387539
 1 -3.13340521012101 -3.34884324022402 -1.71265627642764
 1 -3.32390399619962 -3.83947594049405 -0.01906725532553
 1 -1.68540951225122 -3.83129346374638 -0.77598982538254
 1  0.34612701350135  0.79113502870287  0.38942958815882
 1 -1.74490557915792  0.09982796999700 -0.19090681678168
 1  1.93668221272127 -1.62485153485349 -0.33607317151715
 1 -0.15753524272427 -2.62693773607361 -0.54358521942194

