%nproc=4
%Mem=2GB
# td=(NStates=1) B3LYP/6-31G(d,p) 

TD

0 1
 6  12.09922426502650  0.57901850235024 -0.84576069496950
 6 -12.09668198229823  0.01229618801880  0.86036521542154
 6  13.38954836753675 -0.22172183218322 -0.71098709770977
 6 -12.98938543844385  1.22061645314531  1.24356507090709
 6  13.20879319351935 -1.77922359475948 -0.57103886268627
 6 -13.33082767886789  2.15364387648765  0.11063143024302
 6  11.06740853475348  0.07877214171417  0.21269880768077
 6 -10.95752342014201  0.39858974127413 -0.19158679347935
 6  12.41634607200720 -1.91969426342634  0.68306228252825
 6 -12.17325720832083  2.72808311651165 -0.47469580548055
 6  11.20642035003500 -1.11014306880688  0.97010357875788
 6 -10.94798959315932  1.69281490329033 -0.78548742244224
 6  11.47836842454246  0.45578670377038 -2.27406588518852
 6  12.40898431183118  2.05169922502250 -0.44804632363236
 6 -13.10056764756476 -1.05858297699770  0.24318814871487
 6 -11.55437430543054 -0.72077525112511  2.12086023422342
 6  9.87013507610761  0.85647176077608  0.37177917841784
 6 -9.96236604350435 -0.59139168126813 -0.39928401620162
 6  10.28207238353835 -1.61074088578858  2.00488312321232
 6 -10.03180615081508  2.13556529562956 -1.79552101700170
 6  8.54907114681468  0.41040099629963  0.27204541074107
 6 -8.61684464286429 -0.33390325562556 -0.27243356625663
 6  7.37020558875888  1.29719852015202  0.50686329892989
 6 -7.55668456235624 -1.33683215831583 -0.41223162006201
 6  7.63496654635464  2.70778341554155  0.77955039203920
 6 -7.90712790099010 -2.74106411751175 -0.62986026362636
 6  6.08283218471847  0.78511290029003  0.45335749474947
 6 -6.24338294819482 -0.91847266986699 -0.33925603730373
 6  4.83797444814481  1.34837716961696  0.53711337033703
 6 -4.98019763156316 -1.64314029182918 -0.42703408500850
 6  3.70995970757076  0.52767033223322  0.30119206850685
 6 -3.75889127432743 -1.07120775347535 -0.33895633333333
 6  2.45816911831183  1.17357806550655  0.39113360126013
 6 -2.53611261066107 -1.77469252795280 -0.42931621172117
 6  2.33851822342234  2.66013538003800  0.51722609590959
 6 -2.48291883728373 -3.37634116061606 -0.74631598169817
 6  1.20981252975298  0.39303064466447  0.29086400340034
 6 -1.27477565066507 -1.17598617061706 -0.20099880498050
 6  1.11820619281928 -0.94312926012601 -0.05525304500450
 6 -0.07573703410341 -1.62869910971097 -0.34190794679468
 1  13.98770887668767  0.22322475197520  0.10148819171917
 1  14.01725873967397  0.08927055135514 -1.71717525592559
 1 -12.25177154215421  1.86495888608861  2.07954151895190
 1 -13.68778963656366  0.91591108340834  1.64047048514852
 1  14.16502712471247 -2.36903772147215 -0.55755920172017
 1  12.73037891959196 -2.16070997099710 -1.43496962026203
 1 -14.04572796099610  2.91355471547155  0.38047908550855
 1 -13.93957874167417  1.43292296649665 -0.48561258335834
 1  12.97386935073507 -1.85381788838884  1.63697557955796
 1  11.99628708320832 -2.87058075017502  0.70815767136714
 1 -11.80665045714571  3.38084580528053  0.41266778377838
 1 -12.18704491839184  3.07881138893889 -1.48149205040504
 1  11.02345571607161 -0.56145922322232 -2.58974710741074
 1  12.12995987668767  0.57751241254126 -3.25034160816082
 1  10.50390796209621  1.00372348404841 -2.54085480498050
 1  12.89300025412541  2.42412931483148  0.46179351985199
 1  11.64436284318432  2.65174508540854 -0.58104226122612
 1  13.06878873517352  2.46561683158316 -1.47107937903790
 1 -13.45556478717872 -0.57001101010101 -0.84237033773377
 1 -13.93021519411941 -1.16995279947995  0.96968418911891
 1 -12.53792139533953 -1.94789319421942  0.05361947944795
 1 -10.68313080398040 -0.19349498889889  2.50212987208721
 1 -11.27988451385139 -1.92906390709071  2.18770278647865
 1 -12.41056512051205 -0.82226669456946  2.79688821692169
 1  9.87773117971797  1.95665052515252  0.35530143804380
 1 -10.58780322502250 -1.57819292929293 -0.54109048704871
 1  9.41437551505151 -0.87707530223022  2.07815157275728
 1  10.91856267036704 -1.51417761566157  3.02756418641864
 1  9.90181224842484 -2.61082093209321  1.67295691729173
 1 -9.26999403470347  1.53554586718672 -2.30079257615762
 1 -9.11590639553955  2.85525904790479 -1.45572561876188
 1 -10.50744100910091  2.69903490889089 -2.56513648694870
 1  8.27709330013001 -0.56061684188419 -0.07493444384438
 1 -8.34630802600260  0.63533772787279 -0.15063871637164
 1  8.44240747284728  2.85199023492349  1.42409179167917
 1  6.59015089578958  3.35678338253825  0.94330691039104
 1  8.07090132783278  3.12344100610061 -0.15924914781478
 1 -8.37254820702070 -2.97202426152615 -1.49534622822282
 1 -8.60179116741674 -2.98355154245425  0.01992813211321
 1 -6.99631418401840 -3.42723537483748 -0.86177506270627
 1  6.14983584808481 -0.45846107290729  0.18905688898890
 1 -6.23752573717372  0.12158409690969 -0.02521279807981
 1  4.82107546484648  2.40505894999500  0.76844975177518
 1 -5.14725482578258 -2.68007152355236 -0.50294243534353
 1  3.62089235593559 -0.52558712861286  0.45906554495450
 1 -3.72422005320532  0.05629195909591 -0.29114098079808
 1  2.94280497989799  2.93318371447145  1.42102075737574
 1  1.38934613541354  2.84296502830283  0.70541026852685
 1  2.69409646844684  3.17782825632563 -0.52732670227023
 1 -2.73632550215021 -3.56814517041704 -1.85065007580758
 1 -3.46203780958096 -3.72808480138014 -0.08449379797980
 1 -1.50318128942894 -3.87740807520752 -0.44002622902290
 1  0.25237763856386  1.00829674487449  0.33448409360936
 1 -1.41939302790279 -0.13536554935494 -0.12994072017202
 1  2.06061460596060 -1.65329437913791  0.04516495229523
 1  0.17888839963996 -2.75233027532753 -0.64086494739474

