%nproc=4
%Mem=2GB
# td=(NStates=1) B3LYP/6-31G(d,p) 

TD

0 1
 6  12.00847519011901  0.60065066556656 -0.80726684558456
 6 -12.13747606170617  0.04958991739174  0.82415159405941
 6  13.41123053575358 -0.22837249724972 -0.65722172117212
 6 -12.86510301020102  1.32051644314431  1.25063577797780
 6  13.19530184438444 -1.74014968736874 -0.58836059485949
 6 -13.29661425752575  2.23401191329133  0.05204557165717
 6  11.04566636053605 -0.01320705620562  0.22833037083708
 6 -10.96932460026003  0.38356823912391 -0.13423105790579
 6  12.23807824522452 -2.14047634163416  0.46006998329833
 6 -12.11528141074107  2.57053736193619 -0.70563889978998
 6  11.17866757475748 -1.20336239073907  0.86809337773777
 6 -10.97784257845785  1.57548317011701 -0.82638151185119
 6  11.50239082678268  0.46678780388039 -2.22331080968097
 6  12.38873228662866  2.06568062316232 -0.49363088208821
 6 -12.99406699749975 -0.93366048474847  0.25698952885289
 6 -11.56972584058406 -0.54676785038504  2.15912406060606
 6  9.87888595119512  0.92710882448245  0.49045104560456
 6 -9.87872767966797 -0.64330687278728 -0.19115320312031
 6  10.29358353465346 -1.79217902960296  1.97197983288329
 6 -9.89564253445345  1.90982272137214 -1.74920638553855
 6  8.64505074477448  0.50811076727673  0.30487869406941
 6 -8.57772073047305 -0.46347621292129 -0.12877920082008
 6  7.40104867306731  1.37265606590659  0.50618323092309
 6 -7.52208110201020 -1.36090456555656 -0.51764216111611
 6  7.68465151485149  2.80165280248025  0.77540997799780
 6 -7.93540072827283 -2.75106511761176 -0.70444772237224
 6  6.11364526602660  0.81896628562856  0.41401356035604
 6 -6.28304691459146 -0.97479830243024 -0.40446255795580
 6  4.85497614831483  1.49550188208821  0.37892755175518
 6 -5.09693930573057 -1.79873585138514 -0.50543192479248
 6  3.70313902550255  0.72797036223622  0.30815276457646
 6 -3.79764514971497 -1.17634826752675 -0.31237367506751
 6  2.41499480088009  1.33772448014801  0.43512800070007
 6 -2.50852985238524 -1.81811687038704 -0.39104238433843
 6  2.22503687528753  2.74317368386839  0.73518789208921
 6 -2.53532407780778 -3.36879040554055 -0.70743209330933
 6  1.24249579807981  0.51022236383638  0.26623154015402
 6 -1.34525269836984 -1.10779935193519 -0.32236094119412
 6  1.10658503070307 -0.87341228842884 -0.10013753345335
 6 -0.04844430483048 -1.66643288308831 -0.32095585158516
 1  13.82666277207721  0.09557198669867  0.32002004490449
 1  14.19710672447245  0.06554817911791 -1.39465300370037
 1 -12.21894825982598  1.85567795799580  2.09512307710771
 1 -13.95088594619462  1.05036452875288  1.70017645574557
 1  14.19399002100210 -2.16432725042504 -0.27243068886889
 1  12.82051793349335 -2.20956485648565 -1.61119724302430
 1 -13.73663705190519  3.16266962696270  0.44158519611961
 1 -13.75732051585159  1.70121979617962 -0.52651667376738
 1  12.71925388918892 -2.28883138973897  1.42593447544755
 1  11.68602605710571 -3.16056974907491  0.31241809740974
 1 -11.66037582968297  3.40675839653965 -0.13213669666967
 1 -12.47730394429443  3.00636414421442 -1.67946184738474
 1  11.47806117661766 -0.71011408870887 -2.52218035073507
 1  11.98218509920992  0.95028969026903 -3.03700027402740
 1  10.30576814811481  0.91295440714071 -2.32039275877588
 1  12.40110106420642  2.22937983988399  0.62060940144014
 1  11.50550895779578  2.47804771567157 -0.80828498549855
 1  13.14055591189119  2.39898016791679 -1.14669694079408
 1 -13.55426465716572 -0.76724073307331 -0.69916601730173
 1 -13.94858703130313 -1.41067687188719  0.84091131183118
 1 -12.33308091129113 -1.90662906780678  0.14680879837984
 1 -10.92552504340434 -0.06292193159316  2.78446810591059
 1 -11.47260378577858 -1.73301430213021  2.16564058025803
 1 -12.63226729072907 -0.57284175207521  2.76081460956096
 1  9.89557296389639  2.07776263636364  0.63084899279928
 1 -10.31920636533653 -1.77016212621262 -0.36355273327333
 1  9.56352042954295 -1.06091368606861  2.39733349094909
 1  10.99399021312131 -2.35668186608661  2.71295272527253
 1  9.57718978617862 -2.51699154915492  1.49254887648765
 1 -9.34624165946595  0.96664897749775 -2.03951644854485
 1 -9.16170097499750  2.49452297429743 -1.21734178037804
 1 -10.27210747574757  2.32383738913891 -2.62491246454645
 1  8.28033362416241 -0.67891867206721  0.07939098869887
 1 -8.18518191339134  0.58545273937394  0.15219156665667
 1  7.97654088618862  2.99306434233423  1.91737111961196
 1  6.82337421812181  3.44994269846985  0.76819939963996
 1  8.62131636933693  3.19763842584258  0.17286406350635
 1 -8.73613456565657 -2.89238629772977 -1.45465215881588
 1 -8.46275726402640 -3.21920510781078  0.28894503380338
 1 -7.12622717531753 -3.16605925722572 -0.76639552475248
 1  6.24857572207221 -0.22975820262026  0.09636762006201
 1 -6.17511949654965  0.05479741824182  0.04487421062106
 1  4.65771912921292  2.56430487458746  0.58646155295530
 1 -5.06585668596860 -2.95990950735073 -0.72561470257026
 1  3.60445071177118 -0.36827139703970  0.15857549594959
 1 -3.75194282548255 -0.04238790889089 -0.06108797549755
 1  2.68130883028303  3.09078947504750  1.75555421072107
 1  1.34271147194719  3.28927965976598  0.42978270577058
 1  2.82318937773777  3.29331980548055  0.03022905330533
 1 -2.97671954155416 -3.52737109300930 -1.63353836463646
 1 -2.98040964676468 -3.78182017491749  0.11676632803280
 1 -1.60001097239724 -3.97751808620862 -0.69859208560856
 1  0.40705310611061  1.11134704990499  0.26819746494649
 1 -1.44177526612661  0.12264025122512 -0.12833055915592
 1  2.00923946844684 -1.32898194789479 -0.26620618481848
 1 -0.10860034923492 -2.88546358865887 -0.47018787968797

