%nproc=4
%Mem=2GB
# td=(NStates=1) B3LYP/6-31G(d,p) 

TD

0 1
 6  12.19129347194719  0.51355195569557 -0.70120623952395
 6 -12.23955626972697 -0.03730877247725  0.85996517541754
 6  13.47853726642664 -0.29042870287029 -0.58497449644964
 6 -12.91381788168817  1.36553094459446  1.27679839423942
 6  13.24200651485149 -1.79435510791079 -0.56239799859986
 6 -13.38574317041704  2.01686019811981  0.05189555665567
 6  11.09229102300230 -0.12261799729973  0.24049158695870
 6 -10.99328699649965  0.35042492479248 -0.13107074187419
 6  12.33421785918592 -2.28775106910691  0.67309128542854
 6 -12.21063094569457  2.56129643784378 -0.66689502540254
 6  11.19408911691169 -1.35937799229923  0.92387895629563
 6 -11.11773656785678  1.47591321312131 -0.78760763446345
 6  11.70601118881888  0.76037716281628 -2.04310278887889
 6  12.45052846624663  2.01081513661366 -0.01720323932393
 6 -13.09626721752175 -1.11387850655066  0.35088891879188
 6 -11.50418928692869 -0.69368254185419  2.18845699389939
 6  9.87205526812681  0.73527964156416  0.43205520602060
 6 -9.97181698859886 -0.64086662876288 -0.15569965776578
 6  10.14421859815982 -1.86381619331933  1.87452008690869
 6 -10.09387235743574  1.84951669076908 -1.76027749264927
 6  8.56296253595360  0.42984294049405  0.38145635183518
 6 -8.56351931033103 -0.41135100040004 -0.13023934683468
 6  7.44088265646565  1.32917171747175  0.37353996659666
 6 -7.55091398529853 -1.35304377947795 -0.18812920982098
 6  7.59808285798580  2.79647228442844  0.63885632263226
 6 -7.96737392559256 -2.82069208030803 -0.39844712231223
 6  6.21090499199920  0.76215060406041  0.20279243824382
 6 -6.20047865776578 -0.97044786738674 -0.26143825552555
 6  4.88486913761376  1.37351968386839  0.35118477747775
 6 -5.00293990579058 -1.67196317411741 -0.30321170277028
 6  3.73758246984699  0.77855542074207  0.12688463776378
 6 -3.78506389158916 -1.04147478017802 -0.25661809950995
 6  2.42366566796680  1.34557526522652  0.17617210511051
 6 -2.57054605400540 -1.65817087578758 -0.55038831893189
 6  2.32880725232523  2.81451081758176  0.46387076037604
 6 -2.57844839023902 -3.18567209370937 -0.82977432753275
 6  1.26109765826583  0.65977731933193 -0.08629371237124
 6 -1.39484765786579 -0.95504407640764 -0.38394709980998
 6  1.13510788298830 -0.70726567376738 -0.44344186388639
 6 -0.03567302770277 -1.43670991079108 -0.49164292029203
 1  13.81965207100710  0.10607303680368  0.47459550245025
 1  14.31018803260326 -0.11191956765677 -1.44461800020002
 1 -12.29635600060006  1.93103549374937  1.97009057385739
 1 -13.76405726332633  1.10533002530253  1.93475991409141
 1  14.13321394339434 -2.33833465116512 -0.34332777857786
 1  12.68420430213021 -2.34588848884888 -1.37124324762476
 1 -14.00494388258826  2.90471383138314  0.33281431903190
 1 -13.92185696949695  1.49769944414441 -0.55938996109611
 1  13.09358132193219 -2.35232773937394  1.57894977697770
 1  11.96002345684568 -3.24648834093409  0.41526838243824
 1 -11.65442523462346  3.52479019971997 -0.27970145314532
 1 -12.56517273117312  2.98252175997600 -1.60834473567357
 1  11.38409177967797 -0.19391246854686 -2.60890902360236
 1  12.40267714841484  1.55862052335233 -2.65418199219922
 1  10.55943351465146  1.14688780048005 -1.97862858235824
 1  12.71525247934794  2.11158806070607  0.98812615311531
 1  11.65005341224122  2.66101601250125 -0.28430258725873
 1  13.12855471177118  2.67605787568757 -0.54733700480048
 1 -13.65013424412441 -0.74717872687269 -0.37094319501950
 1 -13.77797997059706 -1.42009781398140  1.10727794849485
 1 -12.37325492869287 -1.91668007290729 -0.12944882738274
 1 -10.72816530743074  0.01657601820182  2.70076973607361
 1 -10.98458498389839 -1.83707470817082  2.08066208240824
 1 -12.21654571857186 -0.67224169206921  2.94142267036704
 1  10.10229363596360  1.78983384348435  0.57952386028603
 1 -10.33403784848485 -1.80122523252325 -0.29619599759976
 1  9.33155723322332 -1.26100369506951  2.22258601620162
 1  10.61690250435043 -2.28313451135114  2.76144757475748
 1  9.48731079827983 -2.47491734173417  1.23511313291329
 1 -9.44960199549955  0.91526383898390 -2.19471196809681
 1 -9.28779358425843  2.41977549954996 -1.33399344554456
 1 -10.38416868186819  2.64269927532753 -2.67943791709171
 1  8.21559715051505 -0.69378015821582  0.33939698929893
 1 -8.18363175837584  0.58832302640264 -0.07002065456546
 1  8.54312754485449  3.08655369126913  1.39686906940694
 1  6.68809068976898  3.33837154135414  0.93689626932693
 1  7.82735697339734  3.30942960496050 -0.23245646854685
 1 -8.21950290249025 -3.02191925102510 -1.61235792939294
 1 -8.99045003330333 -3.13874706200620  0.18057419671967
 1 -7.05789034163416 -3.34743739503950 -0.16513539873987
 1  6.11325218971897 -0.39331455825583  0.10724870817082
 1 -6.10274225882588  0.12057399589959 -0.11623189999000
 1  4.97328068536854  2.34488293239324  0.68661156795680
 1 -5.05789588988899 -2.70393390979098 -0.40186232733273
 1  3.78621888858886 -0.48020259015902  0.16074571297130
 1 -3.68438606980698  0.10255658555856 -0.03472533923392
 1  2.91763246264626  3.15081547764777  1.46026468176818
 1  1.38726592739274  3.36661739353935  0.44976470397040
 1  2.98458551735173  3.36335680918092 -0.40061403100310
 1 -3.10041191079108 -3.16570492639264 -2.04502951375137
 1 -3.19569117491749 -3.72579457235724 -0.21828717731773
 1 -1.37619859115912 -3.45722605700570 -0.83171539793979
 1  0.25333773457346  1.32698861406141 -0.20745009980998
 1 -1.63312440104010  0.10696868406841 -0.14360208630863
 1  2.09681822632263 -1.33599264896490 -0.30734029822982
 1 -0.04195368456846 -2.49928497079708 -0.71209207010701

