%nproc=4
%Mem=2GB
# td=(NStates=1) B3LYP/6-31G(d,p) 

TD

0 1
 6  12.06838118071807  0.48992959345935 -0.64033015191519
 6 -12.03381569566957 -0.03396843844384  1.07262644154415
 6  13.28268768146815 -0.37014667466747 -0.53444944394439
 6 -12.81874837473747  1.24715910741074  1.39837055145515
 6  12.94276659085908 -1.87366303870387 -0.58201996079608
 6 -13.33253784988499  2.04788330043004  0.19134950205020
 6  10.99147094099410  0.03841810631063  0.36233377117712
 6 -10.96291395919592  0.31473135543554 -0.05760339513951
 6  12.19122355975598 -2.26130842484248  0.72424640094009
 6 -12.13881376397640  2.49078938713871 -0.73454179007901
 6  11.11077078507851 -1.17279933443344  0.97156372477248
 6 -11.03437823202320  1.43050867266727 -0.81362023572357
 6  11.50266085378538  0.53865499059906 -2.12415089368937
 6  12.53990740414041  1.85730978607861 -0.38815033403340
 6 -13.00507809860986 -1.08590570927093  0.41211504140414
 6 -11.47729659765977 -0.66543971757176  2.31374952315232
 6  9.79280734333433  0.97274338793879  0.47138913941394
 6 -9.81598140504050 -0.61811435353535 -0.21810589838984
 6  10.03892806910691 -1.79804961666167  1.87061969686969
 6 -10.00213318351835  1.84978671777178 -1.95569703460346
 6  8.55270150985099  0.53022297849785  0.37301550775078
 6 -8.47513047144714 -0.31471133643364 -0.23176949984999
 6  7.35626419461946  1.31128992929293  0.47398001060106
 6 -7.46690558445845 -1.35302377747775 -0.43224362126213
 6  7.68052110181018  2.72078471567157  0.84333677067707
 6 -7.81500868906891 -2.75197520862086 -0.79806708430843
 6  6.13577747924792  0.84051844084408  0.27141930093009
 6 -6.21769037893789 -0.84018484108411 -0.23749586128613
 6  4.85843649434943  1.45662799469947  0.35644530353035
 6 -4.98813842564256 -1.52752873067307 -0.45061644324432
 6  3.68479719131913  0.78825639083908  0.01502345164516
 6 -3.71689707490749 -0.98105873857386 -0.44982742044204
 6  2.35216851825183  1.33506421412141  0.13874836273627
 6 -2.47622662206221 -1.73630868956896 -0.50462374247425
 6  2.19992436403640  2.84321368786879  0.59847422072207
 6 -2.43942448784879 -3.28651217771777 -0.67364871497150
 6  1.21658320682068  0.56780812241224  0.01249616661666
 6 -1.33683185628563 -0.97520609260926 -0.44040274537454
 6  1.11692606480648 -0.78661360856086 -0.23009052875288
 6  0.07453799339934 -1.48695493529353 -0.40230398639864
 1  13.84301440724072 -0.31380895139514  0.36964500740074
 1  13.72216923072307 -0.04311268696870 -1.39138267666767
 1 -12.33114947994799  1.96994938513851  2.01255482028203
 1 -13.73191404900490  0.91550104240424  1.92915935403540
 1  13.87694831683168 -2.34764558225823 -0.79825327112711
 1  12.38175405710571 -1.99826372637264 -1.43793991729173
 1 -14.18970235843584  2.84095745574557  0.59809084668467
 1 -14.04830961476148  1.48289796399640 -0.31636565866587
 1  12.82771473527353 -2.09745225182518  1.47134901690169
 1  11.80363781828183 -3.16840053215322  0.51918877447745
 1 -11.56570636273627  3.34242196289629 -0.19779326232623
 1 -12.46688290219022  3.01355486328633 -1.64848875007501
 1  10.96987035753575 -0.42158523582358 -2.53802193489349
 1  12.10570745144515  0.80038469976998 -3.05308188218822
 1  10.74381195249525  1.16308942064206 -2.14931565106511
 1  13.03067402150215  1.74357125902590  0.64004134463446
 1  11.79458786568657  2.68822873377338 -0.36161031803180
 1  13.32720457675767  1.96170644054405 -1.11437370847085
 1 -13.40820005070507 -0.67111112011201 -0.50449655035504
 1 -13.81827400000000 -1.37947375157516  0.90622784348435
 1 -12.37796539973997 -2.02284068896890  0.26385050255026
 1 -10.68392088298830 -0.07819345874587  2.77807746684668
 1 -10.86504302970297 -1.58389939063906  2.25515953215321
 1 -12.24944900890089 -1.03924839273927  3.21962049014901
 1  10.01278468506851  1.96232109220922  0.76610251815182
 1 -10.05361980668067 -1.68286339633963 -0.28527490549055
 1  9.33112719021902 -1.08228582328233  2.21087484508451
 1  10.50915172927293 -2.15920211811181  2.90435186518652
 1  9.62675474267427 -2.62230208020802  1.38340796239624
 1 -9.18562559785978  1.03271558415842 -1.93070556745675
 1 -9.65676048094809  2.78316183818382 -1.64387443364336
 1 -10.47039730473047  2.00301530693069 -2.79655962926293
 1  8.41242683348335 -0.52439321952195  0.16574962456246
 1 -8.22811620682068  0.66928112221222 -0.11559521202120
 1  7.90039327142714  2.83512854875487  1.96228561106111
 1  6.70342222292229  3.37840554475448  0.88656123582358
 1  8.40970520822082  3.23601226322632  0.22837961506151
 1 -8.74494544674467 -2.89790684978498 -1.42141883548355
 1 -7.96806779507951 -3.39625281258126  0.28879501880188
 1 -6.75042959555956 -3.06286893819382 -1.39268815401540
 1  5.92149301380138 -0.14147937473747 -0.02239425612561
 1 -6.11373335793579  0.30317225572557  0.17374709790979
 1  4.97677103440344  2.56837528162816  0.64004691149115
 1 -5.20107020732073 -2.61346486288629 -1.08568070917092
 1  3.92751301800180 -0.12000657055706 -0.27149751135114
 1 -3.84990262146215  0.00515684558456 -0.09136100280028
 1  2.69923062246225  2.84243463956396  1.44626328162816
 1  1.17128432923292  3.08194892669267  0.48670839833983
 1  2.82606966576658  3.51447192069207 -0.03352732233223
 1 -2.92967483708371 -3.39062741864186 -1.67249226002600
 1 -3.00739234503450 -3.58229022192219  0.12322697409741
 1 -1.36897786908691 -3.60816115051505 -0.63961618801880
 1  0.29628202900290  1.03675959115912  0.08833947914791
 1 -1.53704479307931  0.21952994019402 -0.59210693679368
 1  1.97086563106311 -1.37955700540054 -0.50114967916792
 1  0.12539305010501 -2.62496753905391 -0.52473333423342

