%nproc=4
%Mem=2GB
# td=(NStates=1) B3LYP/6-31G(d,p) 

TD

0 1
 6  12.12482682528253  0.53845444594459 -0.93015913481348
 6 -12.10366268036804  0.02804776317632  0.79838901780178
 6  13.38229764246425 -0.23074273427343 -0.93751975097510
 6 -13.00781728162816  1.19698408990899  1.33619433383338
 6  13.13448576277628 -1.75109078147815 -0.68455021382138
 6 -13.28622321842184  2.13415192729273  0.18742911001100
 6  11.05775756965697  0.11767603210321  0.23470100790079
 6 -11.01662933073307  0.48438832113211 -0.21893952875288
 6  12.50110454785479 -1.96820911491149  0.71241521782178
 6 -11.99962984558456  2.71128143634363 -0.54372270817082
 6  11.23936364436444 -1.02945500000000  0.99460602900290
 6 -10.86676147034703  1.67596321812181 -0.77882675637564
 6  11.35773636133613  0.48285941104110 -2.27574605320532
 6  12.45607902130213  2.08076213131313 -0.58276979597960
 6 -13.00728831963196 -0.98416553525353 -0.01167733783378
 6 -11.46558542654265 -0.72073524712471  2.01444959315932
 6  9.86468453105311  0.95380149374937  0.37014901540154
 6 -9.90327013391339 -0.50499304140414 -0.44429851765176
 6  10.34779895619562 -1.62894270597060  1.93724635953595
 6 -9.95859883008301  2.02928466756676 -1.81666313121312
 6  8.56405264496450  0.42494245044504  0.39878808500850
 6 -8.65360831923192 -0.27934780008001 -0.38634495739574
 6  7.37298586678668  1.31865066536654  0.60733334593459
 6 -7.60999989388939 -1.25832430753075 -0.48850924782478
 6  7.53228627832783  2.74852748994899  0.78182061906191
 6 -7.96002319051905 -2.81700171127113 -0.70853813141314
 6  6.14994889638964  0.71202559155916  0.32643480248025
 6 -6.18108671857186 -0.79119994259426 -0.34697680938094
 6  4.86942759345935  1.30458279017902  0.36195585458546
 6 -5.06323593539354 -1.74262023982398 -0.38647002860286
 6  3.63784249584958  0.59413697889789  0.41192314161416
 6 -3.75507089228923 -1.24511514421442 -0.17358979667967
 6  2.36997029842984  1.14511521922192  0.42636712461246
 6 -2.61245024442444 -1.89776483518352 -0.38966224632463
 6  2.34580895249525  2.67512687918792  0.64687906120612
 6 -2.56644719011901 -3.40046357285729 -0.69674102420242
 6  1.15515706420642  0.41986332793279  0.35957087408741
 6 -1.36896506960696 -1.16223479547955 -0.01643034813481
 6  1.07913228542854 -0.88935388258826  0.16761924222422
 6 -0.09628908930893 -1.74902114191419 -0.03719747574757
 1  13.95767587338734  0.12528495799580 -0.19696165326533
 1  13.93210022382238 -0.09125750145015 -1.93698723712371
 1 -12.30590695569557  1.64819720992099  1.97739130393039
 1 -13.91071192879288  0.62105159745975  1.83971040914091
 1  14.18464908690869 -2.30775159285929 -0.46831027682768
 1  12.70927680938094 -2.07172107210721 -1.40799692299230
 1 -13.95124851305130  2.98571193119312  0.50285132273227
 1 -13.77814259805981  1.60023969816982 -0.58400242234223
 1  13.17892985678568 -1.90763326992699  1.48282016401640
 1  12.12709016351635 -3.05334902700270  0.70496735233523
 1 -11.59800959305931  3.43663138383838  0.12668918591859
 1 -12.24088030193019  3.27474098189819 -1.48993289448945
 1  10.99989335983598 -0.60790386768677 -2.68363649634964
 1  12.00585746644664  0.85721038233823 -3.15088166216622
 1  10.39068663996400  1.04028714041404 -2.43904462396240
 1  12.84374532863286  1.89487638953895  0.46880422092209
 1  11.47690609750975  2.90520043094309 -0.72471662866287
 1  13.21979383568357  2.43738400830083 -1.07154942604260
 1 -13.37072630333033 -0.48497250625062 -0.97306340704070
 1 -13.78806097869787 -1.39865566976698  0.67093431413141
 1 -12.41110871407141 -1.74035244014401 -0.26542242474247
 1 -10.71991448234824  0.06312067266727  2.61474113321332
 1 -11.06191271667167 -1.60856185688569  1.71698571477148
 1 -12.45761982598260 -0.98055252315231  2.58882741084108
 1  10.12575598219822  2.03358821892189  0.14772067996800
 1 -10.28066251095109 -1.67772288228823 -0.59183556155616
 1  9.57178125562556 -0.85829342404240  2.29324308190819
 1  11.04786560066007 -2.18748494639464  2.84435586558656
 1  9.90303237043705 -2.53874372437244  1.30921054265427
 1 -9.56887392269227  1.14976728932893 -2.49046154305431
 1 -9.09564436933693  2.87640116211621 -1.46133617981798
 1 -10.52378264326433  2.81283628902890 -2.41982195549555
 1  8.44157974877488 -0.57984876507651  0.31254430403040
 1 -8.28667206240624  0.75186938103810 -0.20929458195820
 1  8.42858609070907  3.11193622952295  1.60116949944994
 1  6.57717959865987  3.29015671987199  0.94020660036004
 1  7.94892913061306  3.14711337333733 -0.29777300020002
 1 -8.52810376257626 -2.97196425552555 -1.61172786638664
 1 -8.76964795309531 -3.12010519781978  0.27662380168017
 1 -7.16316086868687 -3.46917956925693 -0.68791767696770
 1  6.24858572307231 -0.36777200400040 -0.13654567126713
 1 -5.97240922552255  0.35549748824882  0.00266999019902
 1  4.94281763906391  2.38300674477448  0.53811671847185
 1 -5.24282438273827 -2.75316883328333 -0.92769491059106
 1  3.83518378507851 -0.48655322522252  0.49966960536054
 1 -3.56139377057706 -0.32777644774477  0.06733486678668
 1  2.47156785618562  2.90744114021402  1.83584223952395
 1  1.32458965976598  3.14214494629463  0.56068579607961
 1  2.89114617341734  3.25963643714371  0.00389642004200
 1 -3.14758662826283 -3.82222057795780 -1.78069308010801
 1 -3.36540814661466 -4.10176216911691 -0.09444479307931
 1 -1.68087905920592 -3.87421775617562 -0.58415064146415
 1  0.09285168596860  1.03494941014101  0.48469911511151
 1 -1.55826691529153 -0.10895290809081  0.05508778267827
 1  1.90957950245024 -1.51917096679668  0.24258469426943
 1  0.29423993479348 -2.75254029632963 -0.15051591249125

