%nproc=4
%Mem=2GB
# td=(NStates=1) B3LYP/6-31G(d,p) 

TD

0 1
 6  12.19005334793479  0.56778737923792 -0.56126224512451
 6 -12.05525783988399  0.01690664906491  0.94422360126013
 6  13.43139255195520 -0.36856651665167 -0.47988398739874
 6 -12.96390289018902  1.21355574707471  1.33369408380838
 6  13.06681899609961 -1.84788046044604 -0.47389914871487
 6 -13.38826342244224  2.00621913401340  0.16138650575058
 6  11.05847764166417  0.03671793629363  0.25258279607961
 6 -10.95991365916591  0.49391927422742  0.05498786398640
 6  12.16369080648065 -2.15732802680268  0.74930890719072
 6 -12.16200608320832  2.54313462166217 -0.47936627252725
 6  11.20462017001700 -1.07557961246125  0.95932250065007
 6 -11.06658145234523  1.62367798959896 -0.75457433113311
 6  11.75610619831983  0.67627875297530 -2.05386386498650
 6  12.60010342374238  1.98932298739874 -0.11719323832383
 6 -12.89278686948695 -1.11532865156516  0.32982681258126
 6 -11.34111297929793 -0.49423259685969  2.24612276047605
 6  9.82644070667067  0.95652176577658  0.24733673417342
 6 -9.91293110001000 -0.59080162226223 -0.19666375417542
 6  10.14100827712771 -1.58835864756476  1.90799343424342
 6 -10.06425939613962  1.97091883098310 -1.79016048094809
 6  8.55078131783178  0.42680263646365  0.27924613081308
 6 -8.66237919631963 -0.42781264656466 -0.17112343524352
 6  7.45633420162016  1.27641644194419  0.42091470407041
 6 -7.57978687258726 -1.44662313741374 -0.45130552745275
 6  7.65692874257426  2.74827746494649  0.78678111511151
 6 -8.04630181838184 -2.80510052115211 -0.73102037963796
 6  6.20320422192219  0.71205559455946  0.20861302030203
 6 -6.33844245414541 -0.89220004260426 -0.34799691139114
 6  4.94893554425443  1.31661399329933  0.40645030403040
 6 -5.02126173797380 -1.75848182598260 -0.50568194979498
 6  3.76171488308831  0.70516808200820  0.07827977727773
 6 -3.83872925812581 -1.05486611931193 -0.36252869056906
 6  2.39889319071907  1.25773648134813  0.09738422632263
 6 -2.62021102050205 -1.70729578827883 -0.45813909400940
 6  2.26090046164616  2.70674004050405  0.28619299259926
 6 -2.50907145254525 -3.17074060056006 -0.73038438853885
 6  1.24040558905891  0.56634797639764 -0.09861494449445
 6 -1.34054222732273 -1.02970154215422 -0.34110281538154
 6  1.07233160536054 -0.87880282748275 -0.33238075777578
 6 -0.06835629602960 -1.65164140394039 -0.41022477847785
 1  14.27583768956896 -0.16206377687769  0.20237828072807
 1  14.21352836663666 -0.16844522022202 -1.33756729512951
 1 -12.48577494249425  1.66272866306631  2.22374593939394
 1 -13.91150200780078  0.66337582988299  1.74905134323432
 1  13.98114873687369 -2.57690850855085 -0.62307575337534
 1  12.60748663036304 -1.96131003100310 -1.34133025632563
 1 -14.01842523072307  2.86913027302730  0.84642568016802
 1 -14.03956874067407  1.45103477767777 -0.41110513261326
 1  12.69914187798780 -2.19771227782778  1.49515139713971
 1  11.69496695119512 -3.24394808690869  0.77594445004500
 1 -11.67660745284529  3.40970869156916  0.05697221422142
 1 -12.37510372427243  2.98122162996300 -1.49702360356036
 1  11.47538090859086 -0.38935201250125 -2.58381651435144
 1  12.50329721042104  1.09501416271627 -2.57204377837784
 1  10.97346491779178  1.37345045674567 -1.99327004650465
 1  12.67070802490249  2.12001890379038  1.00385772627263
 1  11.89349775667567  2.75514542544254 -0.45790994799480
 1  13.57267912421242  2.19745001490149 -0.32808507960796
 1 -13.81380061076108 -0.59179318831883 -0.28575467616762
 1 -13.53555572817282 -1.73853965816582  1.17264448514852
 1 -12.22900050325033 -1.77667607250725 -0.15359124162416
 1 -10.74229672057206  0.22196655725573  2.50253991309131
 1 -10.82882940834083 -1.41486248694869  1.86769078527853
 1 -12.06744080808081 -0.85039950785078  3.04068259635964
 1  9.89259266586659  2.04632949304931  0.14445035293529
 1 -10.40118456315632 -1.68959406940694 -0.50977735573557
 1  9.52691676917692 -0.96049364406441  2.35812957055706
 1  10.53489430353035 -2.20271646954695  2.76508793879388
 1  9.60311237843784 -2.40207005700570  1.31611123272327
 1 -9.43244027932793  1.07703001560156 -1.92470496739674
 1 -9.39476428132813  2.73774729672967 -1.50131017721772
 1 -10.57433769876988  2.14174918031803 -2.79548952225222
 1  8.61539713051305 -0.54523530373037  0.21920497009701
 1 -8.44735813101310  0.55767996209621  0.04040038753875
 1  8.42640587268727  2.79616465236524  1.57823720622062
 1  6.76641852255225  3.28546625082508  1.05979855955596
 1  7.83921815951595  3.42140080208021 -0.13057628052805
 1 -8.66108706090609 -2.77914497359736 -1.66241293489349
 1 -8.70412140044004 -3.09857304460446  0.15047118641864
 1 -7.11977653025303 -3.49965261656166 -0.62089097429743
 1  6.14393525802580 -0.24260948774878 -0.00394241094109
 1 -6.16599858445845  0.16206814531453 -0.22370264706471
 1  5.13564692199220  2.30310875497550  0.41331423822382
 1 -5.22455255555556 -2.82344586098610 -0.95463760486049
 1  3.96000626732673 -0.33736830673067 -0.05467582918292
 1 -3.85268289948995 -0.01235490559056  0.17050518381838
 1  2.57710841024102  2.79948034413441  1.26218487378738
 1  1.27767496829683  2.85652638443844  0.21887161466147
 1  2.92038909770977  3.26715718921892 -0.58024199379938
 1 -3.02899476907691 -3.41396975287529 -1.55441045184518
 1 -3.01808341414141 -3.74443643654365  0.04535918731873
 1 -1.60074104540454 -3.58995933033303 -1.00518274467447
 1  0.21423382418242  0.81188710391039 -0.08186754155416
 1 -1.49297038563856 -0.05192720552055  0.11639391329133
 1  2.00223876837684 -1.56452550225022 -0.22232179637964
 1  0.01897240804080 -2.66623166546655 -0.34049491039104

