%nproc=4
%Mem=2GB
# td=(NStates=1) B3LYP/6-31G(d,p) 

TD

0 1
 6  12.01681602420242  0.55296589708971 -0.71342746164616
 6 -12.07920023412341 -0.04212925452545  0.93985316421642
 6  13.37309672237224 -0.27831749174917 -0.65269126812681
 6 -13.02646914681468  1.06422081358136  1.24066478087809
 6  13.20054236843684 -1.78455412781278 -0.50493225202520
 6 -13.53458805490549  1.92323083518352 -0.00452008490849
 6  11.05759755365537 -0.06715245074507  0.15156269406941
 6 -11.06073374117412  0.47482736503650 -0.03999163396340
 6  12.40105454285429 -2.09615190919092  0.80059403570357
 6 -12.20997087968797  2.59805011321132 -0.58952728862886
 6  11.22420212821282 -1.19195124962496  0.86707327572757
 6 -11.00987578177818  1.71515713751375 -0.73996286998700
 6  11.52920350805081  0.41289241434143 -2.17514599319932
 6  12.38651206460646  2.06103015811581 -0.33345486448645
 6 -12.78463605440544 -1.22818993769377  0.30330416031603
 6 -11.44511337933793 -0.53790696429643  2.19646779497950
 6  9.81422948554856  0.91181729532953  0.34017601810181
 6 -9.94547435433543 -0.54786732883288 -0.21213530133013
 6  10.28298247454745 -1.58626843854385  2.05552818771877
 6 -10.02138510871087  2.08595033413341 -1.71864332923292
 6  8.56243248294830  0.46986694289429  0.22517072327233
 6 -8.57881083948395 -0.25851571687169 -0.22984930783078
 6  7.33813238143814  1.28234703500350  0.39276188878888
 6 -7.50619951385139 -1.22089056415642 -0.35738613551355
 6  7.50718376807681  2.72394503170317  0.93622605960596
 6 -7.90426761496150 -2.56478648974897 -0.80690796839684
 6  6.18388228972897  0.75090947994799  0.27468962796280
 6 -6.19400801070107 -0.77303812641264 -0.20626273797380
 6  4.84418506920692  1.40228256015602  0.33779343834383
 6 -4.95144475627563 -1.54874085188519 -0.48233961556156
 6  3.69202791439144  0.68109567476748  0.13115506480648
 6 -3.70512589778978 -1.07517815051505 -0.30798323602360
 6  2.33720702210221  1.22678338603860  0.15504999289929
 6 -2.49057805720572 -1.78906396509651 -0.37317059715972
 6  2.20696506810681  2.75462482898290  0.55565993929393
 6 -2.49437998339834 -3.31355488198820 -0.78573992409241
 6  1.20318186668667  0.38603994559456  0.01685660266027
 6 -1.29393756685669 -1.17017558955896 -0.31211991709171
 6  1.18097246944694 -1.00202514971497 -0.18343586328633
 6  0.02870340994099 -1.77364360416042 -0.25877963396340
 1  13.96540664646465 -0.02575014551455  0.12881092399240
 1  14.14590160396040 -0.10141851755176 -1.55317885628563
 1 -12.42656902190219  1.62429481968197  1.79441300610061
 1 -13.85136599419942  0.86579607190719  2.04504094219422
 1  14.12523314531453 -2.37264808250825 -0.66328977477748
 1  12.46798267996800 -2.27765166516652 -1.15710183348335
 1 -14.07925131333133  2.82303566356636  0.29803084068407
 1 -13.98527331113111  1.30285996019602 -0.76926094819482
 1  13.04192615641564 -1.94458696529653  1.73210509250925
 1  12.09648710321032 -3.22665635773577  0.90202705830583
 1 -11.94884467656766  3.42816053675368  0.19895641264126
 1 -12.61168738263826  3.11160466826683 -1.45069897109711
 1  11.47450082058206 -0.68604168146815 -2.58604673737374
 1  12.19449633033303  0.81076573787379 -2.90715728972897
 1  10.57454502580258  0.80044315601560 -2.45739645914591
 1  12.94795574967497  2.37297419931993  0.47821516201620
 1  11.46720512741274  2.54183409430943 -0.40344450145015
 1  13.12815467176718  2.51575184508451 -1.15451772287229
 1 -13.20963019371937 -0.90881489048905 -0.67204330503050
 1 -13.75464763736374 -1.50328613281328  0.88684590529053
 1 -12.14730233343334 -2.23890229512951  0.23507762526253
 1 -10.77641013191319  0.30537489808981  2.44594425352535
 1 -10.71895842124212 -1.42166316701670  1.99057307350735
 1 -12.10882494649465 -0.74508897679768  2.86513504160416
 1  10.05808921552155  1.95927078717872  0.78683459135914
 1 -10.16587103180318 -1.52081719171917 -0.64900127812781
 1  9.49662373987399 -0.81890948564856  2.10915467306731
 1  10.79385019911991 -1.63177937583758  3.21562299229923
 1  9.79174124132413 -2.52100195019502  1.88754837643764
 1 -9.43586062136213  1.19917222982298 -1.80654315121512
 1 -9.34356916181618  2.76451997399740 -1.14453449964997
 1 -10.51310157515752  2.69321432683268 -2.50634060736074
 1  8.35157074787479 -0.53342412261226  0.14516756635664
 1 -8.32138553375338  0.88668286238624  0.08141448894889
 1  7.92117534963496  2.68741377727773  1.97253663616362
 1  6.53696557725773  3.33418112231223  0.82939551925193
 1  8.22318655635564  3.38963762576258  0.31433821092109
 1 -8.42572352455246 -2.58398545764576 -1.70411710531053
 1 -8.57175816411641 -3.05394858215822 -0.22086594729473
 1 -6.97576212881288 -3.19246189748975 -0.82746163136314
 1  6.17081794629463 -0.33436866366637 -0.21729374607461
 1 -5.71075305990599  0.14644658315832  0.13492321552155
 1  4.89142249954995  2.46330477457746  0.71786469326933
 1 -5.05204530483048 -2.60532404880488 -0.72109425052505
 1  3.86603687038704 -0.48568313821382  0.03799343774377
 1 -3.57500513171317 -0.14817848794880 -0.11276314301430
 1  2.75317601700170  3.02428282438244  1.49753840914091
 1  1.16334353515352  3.25403613541354  0.57607733523352
 1  2.71973903270327  3.44417489098910 -0.15875984558456
 1 -3.14390626022602 -3.43565192109211 -1.67499251005101
 1 -3.09890149594959 -3.82831482438244 -0.14269961856186
 1 -1.53384435573557 -3.75668600300030 -1.13435566196620
 1  0.42412481328133  1.02898881408141 -0.00166952175218
 1 -1.50556164476448 -0.19103111591159  0.03292556645665
 1  2.00904944944494 -1.34452350205021 -0.34591415561556
 1  0.02941345214521 -2.81217625992599 -0.73267412831283

