%nproc=4
%Mem=2GB
# td=(NStates=1) B3LYP/6-31G(d,p) 

TD

0 1
 6  11.95997033963396  0.67585818631863 -0.80102622152215
 6 -12.03390570467047  0.06109106750675  0.66369554845485
 6  13.40184959765977 -0.07731739173917 -0.69774577357736
 6 -12.87078357825783  1.21270566206621  1.19004971937194
 6  13.22950526472647 -1.57755342774277 -0.68004976377638
 6 -13.37948254435443  2.27347585968597  0.06216658375838
 6  10.96713850775078  0.10168443294329  0.25623316111611
 6 -10.82818048584858  0.56623650595060 -0.16363399819982
 6  12.31822626002600 -1.97941023502350  0.52335631193119
 6 -12.01292117471747  2.75472578077808 -0.65312364826483
 6  11.17408711671167 -1.08459051355136  0.78245481388139
 6 -10.88828362256226  1.75951157295730 -0.80121899559956
 6  11.53628421612161  0.51063218831883 -2.27967644624462
 6  12.31982539593960  2.13594764986499 -0.39053057205721
 6 -12.97054464526453 -0.88472559125913 -0.14004017411741
 6 -11.62672154015402 -0.86032920652065  1.94916306450645
 6  9.74062212481248  0.90023613721372  0.35138713921392
 6 -9.78709851675167 -0.37646018811881 -0.16965105290529
 6  10.22086626292629 -1.61942175387539  1.82886552145215
 6 -9.79604257445745  2.24273601270127 -1.65009647454745
 6  8.44430066976698  0.49255921212121  0.30886909310931
 6 -8.45887884628463 -0.30620048534853 -0.16558288118812
 6  7.28216678487849  1.27327612791279  0.53780639323932
 6 -7.48131702560256 -1.32565104020402 -0.22231262816282
 6  7.49411246094609  2.80594323152315  0.84982741974197
 6 -7.92303949214921 -2.71606161726173 -0.64025130273027
 6  6.10910481198120  0.75918030703070  0.39116127512751
 6 -6.18598720862086 -0.93643446604660 -0.11559367106711
 6  4.77099775047505  1.24351668356836  0.52281194019402
 6 -5.00085969776978 -1.76373235103510 -0.24355573717372
 6  3.61814052565257  0.56603416861686  0.21876382568257
 6 -3.75140052525253 -1.23502413511351 -0.23436587428743
 6  2.30775407680768  1.03534424212421  0.16042052995300
 6 -2.47746674607461 -2.03960901960196 -0.28420170027003
 6  2.13422779437944  2.58134750125012  0.55655002830283
 6 -2.59583012841284 -3.59191271777178 -0.42921427152715
 6  1.21374292279228  0.29528086968697  0.22966788378838
 6 -1.29407758085809 -1.31856042804280 -0.16048475357536
 6  1.12374674687469 -1.13824877207721 -0.04012153185319
 6 -0.01721118151815 -1.81395763556356 -0.15810956695670
 1  13.93733383918392  0.14464689418942  0.16224426732673
 1  13.92550956475648  0.24546617091709 -1.51949548794879
 1 -12.23381974697470  1.83095548574857  1.96540010481048
 1 -13.70586144374438  0.88943843614361  1.78426486458646
 1  14.22472309430943 -2.25650646834683 -0.69233267906791
 1  12.79228511021102 -1.90958485848585 -1.59641576487649
 1 -13.97556094429443  3.02097545754576  0.66835787338734
 1 -14.12000678447845  1.94301397559756 -0.72602662476248
 1  13.04849681348135 -2.09579208580858  1.23791567356736
 1  11.92754020852085 -3.04718841094109  0.42507936353635
 1 -11.51800159225922  3.59544726542654 -0.19277276027603
 1 -12.31102731663166  3.07221072887289 -1.65963986518652
 1  11.46291966246625 -0.55902898019802 -2.73104123682368
 1  12.54272115281528  0.88764342564256 -2.87449402340234
 1  10.66423399469947  1.03824693639364 -2.46003672317232
 1  12.45691664576458  2.24032093399340  0.56089342984298
 1  11.58537694459446  2.74690460136014 -0.75372952995300
 1  13.33140499679968  2.63822409230923 -0.91769404050405
 1 -13.15612484318432 -0.46485049404940 -1.28123422412241
 1 -14.05232740534053 -1.19893569776978  0.13114033473347
 1 -12.20280788398840 -1.81081948684868 -0.23376925942594
 1 -10.97455994689469 -0.17551319071907  2.84310396949695
 1 -10.88568509390939 -1.61722272297230  1.62809682588259
 1 -12.47337140114011 -1.16079054695470  2.32886141424142
 1  9.90459386598660  1.92027688778878  0.43798970687069
 1 -10.20454489918992 -1.30022513251325 -0.39908628662866
 1  9.49418349584958 -0.91089868456846  2.15922968056806
 1  10.85624643874388 -1.84304050195019  2.70879230923092
 1  9.77972003920392 -2.59321917191719  1.24328394999500
 1 -9.11390842614261  1.41944425702570 -1.85330782768277
 1 -9.10120492539254  3.04749827182718 -1.28955900210021
 1 -10.12479274427443  2.79233423882388 -2.79705967926793
 1  8.35466105690569 -0.50122090229023  0.04882793239324
 1 -7.89279267446745  0.63857805190519  0.22045839333933
 1  8.14853808590859  2.82519755565557  1.73163254575458
 1  6.57953983468347  3.53669137333733  0.90743332303230
 1  8.05479971767177  3.25871453345335  0.04180095719572
 1 -8.67891884408441 -2.56369342844284 -1.37947464106411
 1 -8.30820180848085 -3.26915010231023  0.36210234953495
 1 -7.08689324192419 -3.46843949524952 -0.96785567076708
 1  6.16680754525453 -0.18256348314831 -0.16172818951895
 1 -5.94038602320232  0.15554749324932  0.07986770997100
 1  4.76511986928693  2.30549899399940  0.58693159996000
 1 -5.33251335163516 -2.83289680608061 -0.25647778887889
 1  3.68558882558256 -0.34557912781278  0.17225686408641
 1 -3.48593622482248 -0.21968563866387 -0.24561642834283
 1  2.42596329572957  2.57841823792379  1.54632328762876
 1  0.94539173997400  2.80019075087509  0.36399612711271
 1  2.78932599139914  3.25837631113111 -0.10177414701470
 1 -2.56222809240924 -3.81205956185619 -1.48426343714371
 1 -3.38766037183718 -3.94025601850185  0.25397004840484
 1 -1.61311228252825 -3.96153648804880 -0.29069129552955
 1  0.25856825762576  0.76750266546655  0.13340398559856
 1 -1.40811189978998 -0.26878889168917  0.22959523342334
 1  2.11975051955196 -1.63360240994099  0.01666210201020
 1  0.09813032383238 -2.85829087138714 -0.40011087198720

