%nproc=4
%Mem=2GB
# td=(NStates=1) B3LYP/6-31G(d,p) 

TD

0 1
 6  12.20733507610761  0.58698929942994 -0.52698881778178
 6 -12.24224653875388 -0.06505154675468  0.77972715161516
 6  13.55842525522552 -0.24214387438744 -0.50863686268627
 6 -13.08838533843384  1.26122051355136  1.29461017541754
 6  13.10489280348035 -1.74456012841284 -0.59670142894289
 6 -13.42414701080108  2.26906541864186  0.07426779387939
 6  11.03406520042004  0.00577484198420  0.31024856265627
 6 -11.07036470427043  0.31121100340034 -0.17678531333133
 6  12.31882632003200 -2.12225451945195  0.64492846914691
 6 -12.08080796339634  2.60820112831283 -0.55440377627763
 6  11.18681838983898 -1.16024807930793  0.87350391879188
 6 -11.05549034323432  1.47447306910691 -0.80301917561756
 6  11.86541712941294  0.65541666676668 -2.04706318491849
 6  12.67996140954095  2.01579563466347 -0.14218573757376
 6 -13.18605619641964 -0.99758687738774 -0.07273344344434
 6 -11.77284615261526 -0.74573774737474  2.03768191639164
 6  9.87827589018902  0.95582169576958  0.37160916141614
 6 -9.98666847374737 -0.63270581268127 -0.17849193699370
 6  10.19555373167317 -1.67384719641964  1.75054768966897
 6 -9.90102307250725  2.04373611271127 -1.66252771767177
 6  8.65398163786379  0.48846880308031  0.32851105730573
 6 -8.63067602600260 -0.33264312961296  0.03234691179118
 6  7.43507207540754  1.30827962826283  0.29045165776578
 6 -7.48464735863586 -1.30631910701070 -0.15163556045605
 6  7.65437848754876  2.81118375557556  0.58426086308631
 6 -7.84521170937094 -2.78349836093609 -0.41717899549955
 6  6.21942584408441  0.60939532853285  0.20149230823082
 6 -6.23586219611961 -0.93020384298430 -0.17797990969097
 6  4.90039068976898  1.29859219111911  0.16069572857286
 6 -5.01172078387839 -1.63925990379038 -0.39700108170817
 6  3.71026973857386  0.64752231743174  0.00462241154115
 6 -3.79838522372237 -1.03180381308131 -0.19847228492849
 6  2.39264256565657  1.24908561626163  0.20842533043304
 6 -2.56311531093109 -1.76609166786679 -0.39266254635464
 6  2.27079145074507  2.65365473197320  0.57784215751575
 6 -2.66168671407141 -3.25197872437244 -0.69061041114111
 6  1.17955950445044  0.46604794639464  0.10788570557056
 6 -1.33558173127313 -1.14317288928893 -0.22876158125813
 6  1.19868424062406 -0.89409435663566 -0.22460998069807
 6 -0.00911037143714 -1.61021726152615 -0.40244400040004
 1  14.14581468726873 -0.09858742924292  0.40136817971797
 1  14.06904391819182 -0.22387076277628 -1.62361589999000
 1 -12.46153251825182  1.64182657285729  2.02918648344835
 1 -13.90924178177818  0.99903939623962  1.96105254335434
 1  14.09465008700870 -2.43612443014301 -0.86786023182318
 1  12.43946982868287 -1.82061596159616 -1.38446456975697
 1 -14.13213660186019  2.92142550255026  0.45975701330133
 1 -14.18441322512251  1.81331100530053 -0.61474549664966
 1  13.02471443524352 -2.24411691829183  1.41861374337434
 1  11.84447190169017 -3.06415010711071  0.50846770237024
 1 -11.57019681178118  3.36220394109411  0.10549706670667
 1 -12.14948116201620  3.05733924172417 -1.48081198239824
 1  11.49630300080008 -0.23861693899390 -2.45139327202720
 1  12.52648952965296  1.08873353465347 -2.87579415341534
 1  10.88900647194719  1.37238034973497 -2.19440015951595
 1  12.70917187128713  1.88493539543954  0.94550189068907
 1  11.78373678057806  2.67107701860186 -0.40553471047105
 1  13.62004386068607  2.40585085498550 -0.65581785288529
 1 -13.61577080778078 -0.56472048104810 -1.02687878857886
 1 -13.96739891249125 -1.38455425962596  0.58378559925993
 1 -12.65522312551255 -1.80564896979698 -0.43921980448045
 1 -10.93899639053905 -0.31547718711871  2.64906456555656
 1 -11.26761328672867 -1.74394539523952  1.96062007820782
 1 -12.71861592559256 -1.08997346524652  2.61496002410241
 1  10.04130753735374  2.02885774587459  0.25946185408541
 1 -10.31747619231923 -1.54329943994399 -0.26571294929493
 1  9.68493257075708 -0.75961355605561  2.21332509010901
 1  10.66011682578258 -2.26623282118212  2.73749517951795
 1  9.29528159535954 -2.17615746574657  1.27709733133313
 1 -9.11150818611861  1.26539885248525 -1.91993449034903
 1 -9.36836164106411  2.93435695769577 -1.26158620482048
 1 -10.44254451945195  2.60419542494249 -2.52321229452945
 1  8.40172576337634 -0.43690447064706  0.22400545014501
 1 -8.18600199539954  0.72530672477248  0.01017736523652
 1  8.14405763786379  2.85936097199720  1.44950433293329
 1  6.70346222692269  3.27825552975298  0.48056063576358
 1  8.34719895759576  3.15524418641864 -0.11189441234123
 1 -8.82126307850785 -2.91540859996000 -0.99634632823282
 1 -8.13446443474347 -3.28872205950595  0.73927006630663
 1 -6.99354390699070 -3.21498414971497 -0.92240112531253
 1  6.14556542104210 -0.41280650745074 -0.28656067276728
 1 -6.21698368296830  0.22492443094309  0.06541626482648
 1  4.89834319161916  2.27429587368737  0.37828073487349
 1 -5.05622572287229 -2.81445496189619 -0.66130827192719
 1  3.67124739143914 -0.35084965486549 -0.28180854245425
 1 -3.79830746194620  0.02363869376938  0.03343147644764
 1  2.77840854025403  2.85400579667967  1.47572622792279
 1  1.20360756155616  3.16474720652065  0.75930565806581
 1  2.70044710351035  3.30052052555255 -0.22076604620462
 1 -3.08636050565056 -3.34103245914591 -1.61302631343134
 1 -3.07124873067307 -3.67840983388339  0.17353200460046
 1 -1.70433140444044 -3.81419175357536 -0.93912613901390
 1  0.31845424622462  1.19250516571657  0.22635328052805
 1 -1.06424751335134 -0.04613662646265 -0.21483921002100
 1  2.08520706520652 -1.49400845054505 -0.47383694789479
 1 -0.07383687288729 -2.65061010331033 -0.65650651155116

