%nproc=4
%Mem=2GB
# td=(NStates=1) B3LYP/6-31G(d,p) 

TD

0 1
 6  12.16264060666066  0.39277987848785 -0.76430254915492
 6 -12.08549086318632 -0.09281432303230  0.84394357325733
 6  13.43232264496450 -0.45221488148815 -0.51420741974197
 6 -12.96266276617662  1.06924131563156  1.31342205660566
 6  13.17490980518052 -1.95787145954595 -0.35782754155416
 6 -13.41393598969897  2.03736224832483  0.25724609170917
 6  11.08005979987999 -0.00176591209121  0.32223976177618
 6 -11.01051871967197  0.39965984828483 -0.08240587538754
 6  12.30647508490849 -2.10963325732573  0.85606958325833
 6 -12.17966784938494  2.61625193339334 -0.29975831173117
 6  11.20362007000700 -1.11399345384538  1.00499706810681
 6 -11.03604839903990  1.64418003980398 -0.60872974667467
 6  11.46292688038804  0.25442656775678 -2.13037151575158
 6  12.58037145054506  1.91638569366937 -0.59838135713571
 6 -12.94732232303230 -1.07759487818782  0.18525235513551
 6 -11.47659652765276 -0.76500967456746  2.13392154035404
 6  9.91147921052105  0.92051816541654  0.41449344984498
 6 -9.93950375727573 -0.57725026712671 -0.36293038083808
 6  10.22133630993099 -1.56106591829183  2.14774740964096
 6 -10.04706767696770  2.20604234333433 -1.50867233213321
 6  8.56030226992699  0.54938489468947  0.36325453165317
 6 -8.59937289568957 -0.37624749004901 -0.16563288618862
 6  7.38202677087709  1.39882868316832  0.37282989558956
 6 -7.47411630553055 -1.35813428852885 -0.52241263816382
 6  7.53707675737574  2.85137777497750  0.42644508150815
 6 -7.81941913011301 -2.77298730983098 -0.83409068666867
 6  6.18552245374537  0.81733612261226  0.24260641964196
 6 -6.20418902880288 -0.92775359795980 -0.33763587528753
 6  4.89218986968697  1.49167149904990  0.51378103710371
 6 -5.03710332213221 -1.74042001980198 -0.41796317791779
 6  3.68116682828283  0.76918448364836  0.31603355265527
 6 -3.79604498969897 -1.17754838753875 -0.30858329602960
 6  2.36199950135014  1.32868357605761  0.24139862776278
 6 -2.44849384878488 -1.82474753345335 -0.60766404650465
 6  2.20719509110911  2.86928629512951  0.43319769306931
 6 -2.51136168156816 -3.39676320282028 -0.92649399949995
 6  1.26684823332333  0.64087542914291  0.06844176117612
 6 -1.38410658375838 -0.99670824282428 -0.44352305740574
 6  1.14633900610061 -0.80577552475248 -0.25753327302730
 6 -0.09811927232723 -1.46907314711471 -0.43297705370537
 1  13.92283238903890  0.04022645214521  0.41427947084708
 1  14.10967798159816 -0.42828120382038 -1.38644218261826
 1 -12.57875424042404  1.70864325452545  2.05226879167917
 1 -13.83952481008101  0.54353384568457  1.90090652875288
 1  14.12407302930293 -2.33244406210621 -0.24254770057006
 1  12.58911479317932 -2.12649654965497 -1.42324844814481
 1 -13.96298968716872  2.82325568556856  0.75799683728373
 1 -14.13104788858886  1.56464613881388 -0.41859588168817
 1  12.90575253905391 -1.91511401800180  1.97976985898590
 1  11.96466392089209 -3.29808350045005  1.13756061166117
 1 -11.87182697479748  3.40099782048205  0.30631714871487
 1 -12.38385459935994  3.37276078387839 -1.21569547074707
 1  11.45333870437044 -1.06644972227223 -2.44949308200820
 1  12.20234711541154  0.68941360266027 -3.01855842984298
 1  10.44687225852585  0.72822593429343 -2.27154787428743
 1  12.57121807590759  2.23704060596060  0.54983232373237
 1  11.96572497939794  2.64491440234023 -0.93583774077408
 1  13.47078893519352  2.16190646054605 -1.11534380548055
 1 -13.52957218791879 -0.64280828982898 -0.66574267496750
 1 -13.77982015461546 -1.37051285548555  0.75437265796580
 1 -12.43429103230323 -1.98817722262226 -0.26174205670567
 1 -10.87255974687469  0.11734609520952  2.66918657775778
 1 -10.97109363476348 -1.63386438713871  1.87317133333333
 1 -12.29490355435544 -1.06298076597660  2.86714524262426
 1  10.15326873347335  1.88756361646165  0.21199710761076
 1 -10.04870931563156 -1.55865097509751 -0.56927330533053
 1  9.66717079457946 -0.70605820052005  2.68756251385139
 1  10.98713952805281 -1.66510270817082  3.04477590759076
 1  9.57146921412141 -2.32178202820282  1.78824844644464
 1 -9.18438547384738  1.34938725132513 -1.84329682658266
 1 -9.72140694559456  3.05107862986299 -1.16714676087609
 1 -10.43997426242624  2.68071307670767 -2.57788776207621
 1  8.33351894269427 -0.45397617781778  0.33660671027103
 1 -8.19076247144715  0.59107330143014  0.18698504600460
 1  8.19898313041304  3.17871290719072  1.21510089258926
 1  6.69302118281828  3.58331603580358  0.54745732543254
 1  8.09107334503450  3.12481114311431 -0.51478470137014
 1 -8.54185513771377 -2.68934599369937 -1.73611030463046
 1 -8.30445143344334 -3.34653784108411  0.10458659795980
 1 -6.98677322992299 -3.36823947524752 -1.05557444264426
 1  6.05352621712171 -0.26143136993699  0.04524250755076
 1 -6.02165415001500  0.18178011651165  0.05041476467647
 1  4.85014837213721  2.41935037913791  0.85907881468147
 1 -5.30450055035504 -2.85090860726073 -0.53786592769277
 1  3.76260652735274 -0.28457302720272 -0.05925628722872
 1 -3.72659029022902 -0.01929559965997 -0.10185205190519
 1  2.14269496889689  3.10832122822282  1.67010566586659
 1  1.18873607440744  3.31837256905691  0.02831255875588
 1  3.04152121092109  3.29569004250425 -0.14011798139814
 1 -2.83077494709471 -3.65994435033503 -2.06709171997200
 1 -2.99830143594359 -3.78885087798780 -0.16218156675668
 1 -1.59049002030203 -3.67797813221322 -0.90216244264426
 1  0.21056345714571  1.19320523572357  0.02675332053205
 1 -1.69303039163916  0.05395338253825 -0.14503222932293
 1  2.01567011151115 -1.29829887958796  0.03813424922492
 1 -0.12221171037104 -2.50157519981998 -0.76883774467447

