%nproc=4
%Mem=2GB
# td=(NStates=1) B3LYP/6-31G(d,p) 

TD

0 1
 6  12.19166350895089  0.52667326782678 -0.63903002190219
 6 -12.12409472357236 -0.03261830343034  0.94680385928593
 6  13.39683909660966 -0.38528818881888 -0.63229922892289
 6 -13.00166666656666  1.08960335183518  1.34902561696170
 6  13.12372468666867 -1.76051172357236 -0.67734949374937
 6 -13.47754235033503  1.95017352945295  0.05360572767277
 6  11.11475326922692 -0.08976471197120  0.29410694849485
 6 -11.09317698549855  0.38616849914991 -0.19399703450345
 6  12.30352478987899 -2.23994628862886  0.58617259355936
 6 -12.18123800640064  2.53151345954595 -0.68427676357636
 6  11.12191189918992 -1.28290034453445  0.82519908830883
 6 -11.08230302450245  1.60034565636564 -0.79526840054005
 6  11.63586417411741  0.65717684278428 -2.12145062366237
 6  12.61691510491049  1.96932098719872 -0.20434195319532
 6 -12.96829442024202 -1.13970108880888  0.23065689558956
 6 -11.48357722572257 -0.58139131273127  2.24265241344134
 6  9.93501156375638  0.80296641024102  0.55966796729673
 6 -10.07622742964296 -0.60510305240524 -0.24038812661266
 6  10.14070824712471 -1.82198200990099  1.87234986988699
 6 -10.10313328352835  1.95384712381238 -1.88544000890089
 6  8.63409964966497  0.54756471267127  0.27797600380038
 6 -8.69039199759976 -0.34827469276928 -0.28526484938494
 6  7.44975354355436  1.38389719001900  0.39159177177718
 6 -7.56397529142914 -1.21858033313331 -0.36158655555556
 6  7.62496554625463  2.92007464466447  0.76235867286729
 6 -7.78833602180218 -2.70811082218222 -0.48716599419942
 6  6.21996589808981  0.85100948994900  0.22754491349135
 6 -6.28813742364236 -0.81410223282328 -0.30849296099610
 6  4.91409205990599  1.43503583548355  0.24696435543554
 6 -5.01423103490349 -1.66340231803180 -0.33752513411341
 6  3.72713142474247  0.71856942214221  0.17120907020702
 6 -3.86088147334733 -0.95358599129913 -0.25720815851585
 6  2.42217551895189  1.31253196089609  0.29722421032103
 6 -2.62589158855886 -1.71304636333633 -0.46393967406741
 6  2.36059043064306  2.78078744524452  0.62951732503250
 6 -2.57282782818282 -3.31505503200320 -0.56849819991999
 6  1.33707525602560  0.52284362596260  0.03830874787479
 6 -1.35660383348335 -1.04249282128213 -0.28651735683568
 6  1.15559993219322 -0.88493344054405 -0.23249076877688
 6 -0.01383084348435 -1.56775301510151 -0.46084984098410
 1  14.03372347814781 -0.20252782328233  0.25004304720472
 1  14.12634964876488 -0.09354773047305 -1.36253979237924
 1 -12.64264062906290  1.64568695889589  2.15788935373537
 1 -13.82076293389339  0.94592408470847  1.81317775587559
 1  13.95462608460846 -2.43133395109511 -0.61801524732473
 1  12.94531041274128 -2.12049594959496 -1.56932305560556
 1 -14.01435482368237  2.78462182218222  0.56939797739774
 1 -14.06301108490849  1.35939561376138 -0.62468649074908
 1  12.93064502830283 -2.53655616221622  1.46825870787079
 1  11.90114756925693 -3.06414010611061  0.11875873147315
 1 -11.67686747884789  3.42114983568357 -0.33312679567957
 1 -12.47713392729273  2.89853336113611 -1.62344624582458
 1  11.24952832333233 -0.33228630593059 -2.32780091279128
 1  12.39237611831183  1.06908156945695 -2.63281985598560
 1  10.70128770007001  1.28931204290429 -2.03736445594559
 1  12.98563951805180  1.89974687658766  0.88748608910891
 1  11.88947735463546  2.70329023992399 -0.22209636663666
 1  13.47839969626963  2.33796406630663 -0.87640991209121
 1 -13.47147637833783 -0.85545955495550 -0.69246534723472
 1 -13.79441161376138 -1.16195199939994  0.82102932363236
 1 -12.23809141234123 -2.01915031993199  0.02176629412941
 1 -10.95017750865087  0.29140350095009  2.77845750485049
 1 -10.77340386578658 -1.59068006870687  1.99807382358236
 1 -12.27424148814882 -1.11830629852985  2.93057158525853
 1  10.12063547014701  2.00536539663966  0.78944485238524
 1 -10.35038948364837 -1.58894400440044 -0.48417479547955
 1  9.67988206570657 -1.15574316901690  2.48397215481548
 1  10.72950376447645 -2.28037423532353  2.63011444144414
 1  9.26352842004201 -2.47193704370437  1.48683830543054
 1 -9.62202923822382  1.13053536613661 -2.28608110501050
 1 -9.49678448334834  2.53303682568257 -1.45633567976798
 1 -10.54739500450045  2.63526853225322 -2.81314128742874
 1  8.38295388618862 -0.55515629582958  0.02395544514451
 1 -8.55028842404240  0.71731592569257 -0.04477813031303
 1  8.13077630973097  3.02911794769477  1.76303568606861
 1  6.76457833853385  3.38394609880988  0.60767334703470
 1  8.25240947864786  3.32424108610861 -0.00911413431343
 1 -8.33067401960196 -3.01269832893289 -1.33547024062406
 1 -8.31109209750975 -3.25474866216622  0.43847998729873
 1 -7.05166971957196 -3.48390104140414 -0.40381926712671
 1  6.17831869636964 -0.26758198499850  0.26385436873687
 1 -6.11033301790179  0.21321325982598 -0.07783806060606
 1  4.89341269856986  2.51606005010501  0.41595450225023
 1 -5.08810891119112 -2.69636315271527 -0.32537467856786
 1  3.70838110481048 -0.37352192209221 -0.00996135773577
 1 -3.65320295149515 -0.06661033113311 -0.27969983668367
 1  2.61442214161416  2.88656905300530  1.81088974427443
 1  1.37032423322332  3.26134686648665  0.38138786628663
 1  2.96340339913991  3.35547602110211  0.04041007140714
 1 -3.01857372697270 -3.49028738463846 -1.61145615641564
 1 -3.11726333213321 -3.64275626852685  0.16944159555956
 1 -1.47902887418742 -3.79807014141414 -0.52872509890989
 1  0.30151255205521  0.97213312851285  0.17397804300430
 1 -1.41025211381138 -0.06760877367737 -0.25787351345135
 1  2.08609715421542 -1.44248329802980 -0.48870843504350
 1  0.07521803260326 -2.50285532783278 -0.92516337723772

