%nproc=4
%Mem=2GB
# td=(NStates=1) B3LYP/6-31G(d,p) 

TD

0 1
 6  12.09481382398240  0.48193879437944 -0.82269838873887
 6 -12.03152546664666 -0.12414745634563  0.84159333823382
 6  13.42643205590559 -0.33537319731973 -0.49883588258826
 6 -12.84503100300030  1.16215060656066  1.37136785118512
 6  13.17562987718772 -1.81720739313931 -0.36727848664866
 6 -13.18537313341334  2.10439895199520  0.22626299339934
 6  11.02346414031403  0.03712797729773  0.26134367216722
 6 -10.92894056185619  0.33099298159816 -0.04627226202620
 6  12.20340477787779 -2.16041833583358  0.78913288958896
 6 -12.07941782438244  2.61767207540754 -0.49642797869787
 6  11.10314002200220 -1.17753980848085  1.02601917031703
 6 -10.93018781298130  1.55705132693269 -0.71836070977098
 6  11.62034262196220  0.29234035913591 -2.16857533613361
 6  12.43589700310031  1.93877793289329 -0.46798831783178
 6 -13.17271486228623 -1.10039715841584  0.19022285218522
 6 -11.40036890489049 -0.68898207180718  2.22376052425243
 6  9.82914097669767  0.92889900350035  0.28900090059006
 6 -9.89111891879188 -0.56838938103810 -0.30043413121312
 6  10.10070424672467 -1.59723953565357  2.06252888778878
 6 -9.91314428462846  2.03577531663166 -1.62085355025503
 6  8.48542478217822  0.53600355655566  0.30172837903790
 6 -8.57408036643664 -0.32436230153015 -0.26443276617662
 6  7.37142571077108  1.30152895319532  0.45073768636864
 6 -7.52268116201620 -1.30099857495750 -0.51015141204120
 6  7.62392544224423  2.85092772997300  0.61455389238924
 6 -7.96902409060906 -2.70329034013401 -0.90081735933593
 6  6.14857875937594  0.72819720872087  0.26627878687869
 6 -6.23006161606161 -0.90968179077908 -0.37267937963796
 6  4.91889253995399  1.46100843274327  0.39295895489549
 6 -5.00557016881688 -1.63603958175818 -0.43525490709071
 6  3.68202691429143  0.84953251845185 -0.02792084278428
 6 -3.76503188838884 -1.19748038073807 -0.10453289098910
 6  2.28858215961596  1.37273798149815  0.23581806970697
 6 -2.49522852225223 -1.86006106480648 -0.39396267636764
 6  2.32673704530453  2.86093546004600  0.71357573087309
 6 -2.56427697309731 -3.36084961146115 -0.95074642474247
 6  1.15875742424242  0.62708405000500  0.04745966296630
 6 -1.42076024912491 -1.12609118111811 -0.27553625872587
 6  1.10790516271627 -0.76030097729773 -0.17944546424642
 6 -0.01185064546455 -1.60783702350235 -0.38320207620762
 1  13.91454155995600  0.08857128662866  0.36895493839384
 1  14.24336134993499 -0.21752012771277 -1.30301383978398
 1 -12.24967133213321  1.56002839303930  2.07037060186019
 1 -13.66693755135514  0.85538503080308  1.88539497759776
 1  14.02657327932793 -2.34788560626063 -0.23056650245024
 1  12.78290417211721 -2.03954785478548 -1.32465858915892
 1 -13.73733712191219  2.75505886588659  0.82096313391339
 1 -13.82002678647865  1.30347002120212 -0.35959998209821
 1  13.10915287908791 -2.27179968656866  1.70017189918992
 1  11.64229168366837 -3.02416610871087  0.64686154175418
 1 -11.65703549564957  3.40581830253025  0.17606412341234
 1 -12.27497371127113  3.10601410921092 -1.37339124032403
 1  11.19226259675968 -0.74700777807781 -2.46400453315332
 1  12.19805668636864  0.56867152845285 -3.15185175917592
 1  10.75177274857486  1.02149526122612 -2.28350907040704
 1  12.54637559165917  2.21557845974597  0.62662000250025
 1  11.55375378227823  2.63251316221622 -0.89972412941294
 1  13.58613046934694  2.21257152705271 -1.00201247234724
 1 -13.38272750345035 -0.85619962896290 -0.82257835853585
 1 -14.00423259585959 -1.18203400760076  0.82892011271127
 1 -12.74934253745375 -2.36021442634263  0.07565168266827
 1 -10.62787527842784 -0.10608624802480  2.49865952505251
 1 -10.94611113651365 -1.68021902260226  2.10728474467447
 1 -12.15845990999100 -0.97409187708771  3.08651717981798
 1  10.08946235283528  2.00345520562056  0.18950485838584
 1 -10.18524296899690 -1.56760187018702 -0.43455983398340
 1  9.60344442194219 -0.71599919461946  2.32547630523052
 1  10.53182399649965 -1.88558475637564  2.94709613961396
 1  9.25181724892489 -2.28656850685068  1.61159078067807
 1 -9.23361039633963  1.16129844244424 -2.08008050495049
 1 -9.16969177407741  2.69314283628363 -1.19253930013001
 1 -10.50331059605961  2.55956096149615 -2.39906988028803
 1  8.44671026182618 -0.60885166536654  0.57095014461446
 1 -8.20171356655666  0.79208340244024 -0.07263091559156
 1  7.82728596069607  3.01736677257726  1.71206058855886
 1  6.76770865156516  3.45282298649865  0.19672225192519
 1  8.35686992469247  3.10521918391839 -0.02346556945695
 1 -8.21690264246425 -2.78933599269927 -1.94064075767577
 1 -8.97011800010001 -2.94342753005301 -0.10032389308931
 1 -7.10893544614461 -3.47247989928993 -0.69738862406241
 1  6.08069893439344 -0.35465069186919  0.24164214751475
 1 -6.08520050465046  0.17257919641964 -0.21627190399040
 1  4.91908526582658  2.53776222032203  0.41902480928093
 1 -4.99085918621862 -2.75158867526753 -0.81936407750775
 1  3.72005227192719 -0.11402597249725 -0.49424978657866
 1 -3.61260889208921 -0.09458312841284 -0.02340420712071
 1  2.95617631703170  3.17263765986599  1.49271792709271
 1  1.04195139593959  2.96338707050705  0.90552027952795
 1  2.64371142994299  3.39080955445545 -0.23186715631563
 1 -3.28475034463446 -3.23198155405541 -1.89854486528653
 1 -3.08037964376438 -3.89416140904090 -0.09598494709471
 1 -1.45750672197220 -3.84165449984999 -1.02521474787479
 1  0.22036443724372  1.10935685088509  0.26977762296230
 1 -1.33354444304430 -0.08917092989299 -0.12398012411241
 1  2.07695624012401 -1.36944599429943 -0.33915347954796
 1  0.29140965176518 -2.71120616291629 -0.60891175207521

