%nproc=4
%Mem=2GB
# td=(NStates=1) B3LYP/6-31G(d,p) 

TD

0 1
 6  12.17186152875287  0.66607720822082 -0.58298441734173
 6 -12.14253656775677  0.04835979437944  0.87300647954795
 6  13.45818523122312 -0.25091475147515 -0.64895089408941
 6 -13.00039653955396  1.33226761826183  1.18996971137114
 6  13.10108242244224 -1.79601527392739 -0.58062982178218
 6 -13.40999559565956  2.22994150625063  0.02931329842984
 6  11.11148294219422  0.06752101660166  0.22837037483748
 6 -11.06282395019502  0.40510039233923 -0.12380001480148
 6  12.36127056445645 -2.04017631163116  0.63736771307131
 6 -12.08697858045804  2.64551485968597 -0.65018335423542
 6  11.17375708370837 -1.18388044254425  0.84716128452845
 6 -11.07208200240024  1.53780940274027 -0.86997587128713
 6  11.55351593929393  0.66557768286829 -2.11541001960196
 6  12.62004541794179  2.07386144124412 -0.06987850685069
 6 -12.94045163596360 -1.16612373107311  0.42283611351135
 6 -11.42791165916592 -0.44583775737574  2.31743989218922
 6  9.91916997959796  0.94505061866187  0.30354235473547
 6 -10.00992079897990 -0.57070961306131 -0.33187727552755
 6  10.14986916321632 -1.70979079077908  1.84466710161016
 6 -10.01136410661066  1.98945068416842 -1.74482594749475
 6  8.64399063876388  0.52754271047105  0.13581178737874
 6 -8.71426438483848 -0.39426929222922 -0.28297462036204
 6  7.47410597879788  1.36943574387439  0.38434104670467
 6 -7.55929482338234 -1.32135061016102 -0.34279467636764
 6  7.64989803950395  2.79550218741874  0.73923636063606
 6 -7.88945613381338 -2.78972898399840 -0.80596787438744
 6  6.23482738423842  0.73789817881788  0.14334649364936
 6 -6.35134374427443 -0.90090091269127 -0.28416052775278
 6  4.92365301600160  1.33797612951295  0.35896555555556
 6 -5.14030364216422 -1.74415039283928 -0.38753013461346
 6  3.73473218481848  0.59155672087209  0.21855380468047
 6 -3.85349073427343 -1.14370500320032 -0.21379381708171
 6  2.39077237863786  1.17481818951895  0.35965045294529
 6 -2.54759375877588 -1.81864692339234 -0.44473775387539
 6  2.31988636023602  2.57960732723272  0.68333270657066
 6 -2.56293683908391 -3.31697522402240 -0.64594594469447
 6  1.25383693219322  0.31917325892589  0.28326324332433
 6 -1.43618179127913 -1.13903247524752 -0.31570027512751
 6  1.07782215441544 -0.99847479467947 -0.21526904660466
 6 -0.09674913531353 -1.67871411121112 -0.38109186518652
 1  13.85762586838684 -0.04738230873087  0.44750279317932
 1  14.19101611541154  0.00260188448845 -1.47879141754175
 1 -12.25443180818082  1.93221561176118  1.74598816361636
 1 -13.98135899349935  1.06859635193519  1.91601803990399
 1  13.96394701670167 -2.27289810751075 -0.80781422722272
 1  12.61151703340334 -2.08628252825283 -1.58142426572657
 1 -14.07475086328633  2.95920928092809  0.27632867046705
 1 -13.97910269406941  1.39053872807281 -0.52601662376238
 1  13.03124508830883 -1.97665017161716  1.44883676567657
 1  12.13661111561156 -3.16769046114611  0.67746460206021
 1 -11.60173996609661  3.41857957865787 -0.17619110211021
 1 -12.42815902980298  3.15277878567857 -1.60446434763476
 1  11.07425079557956 -0.34906798409841 -2.40358849154916
 1  12.05310219091909  1.29322398369837 -2.82848942294229
 1  10.77578514981498  1.33829694139414 -2.09278999849985
 1  12.57081803590359  1.96951385328533  0.88836617711771
 1  11.82628103500350  2.82293220412041 -0.40534469146915
 1  13.66159801610161  2.24431470137014 -0.60036230733073
 1 -13.49494872557256 -0.73712772177218 -0.41651775247525
 1 -13.77402957555756 -1.33356916111611  1.13409062976298
 1 -12.48362596579658 -2.02943134803480  0.07534165166517
 1 -10.39363185408541  0.09102346294629  2.65364502360236
 1 -11.02773929932993 -1.35355635633563  2.15964998119812
 1 -12.13356742074207 -0.49227369526953  3.26787531563156
 1  10.11432483908391  2.13026788688869  0.45626153405341
 1 -10.16160060476047 -1.61014612461246 -0.49960633863386
 1  9.31793587108711 -0.91779937463746  2.16409016661666
 1  10.73285409950995 -1.94851104900490  2.70761219121912
 1  9.44695676287629 -2.55557540754075  1.51896151775178
 1 -9.38398543384338  1.10433274587459 -2.04718721562156
 1 -9.18973377827783  2.52529605160516 -1.14860490669067
 1 -10.12875314031403  2.33854886028603 -2.66645661896190
 1  8.47008259905991 -0.56828760896090 -0.15585253565357
 1 -8.25164856005601  0.66357055115512 -0.18123177567757
 1  8.01870510261026  3.00892592849285  1.67270665316532
 1  6.70990287098710  3.31442914711471  0.40076265596560
 1  8.26769100680068  3.28221688368837 -0.05790901380138
 1 -8.29230018221822 -2.64580163926393 -1.96348304190419
 1 -8.50872186048605 -3.23971715901590 -0.19338319901990
 1 -7.08140269286929 -3.38063071437144 -0.68927781298130
 1  6.32232309680968 -0.43622884968497 -0.24265628232823
 1 -6.12084406900690  0.08227016551655 -0.06951722852285
 1  4.83416677397740  2.38546699079908  0.81409431623162
 1 -4.96286638693869 -2.89202271867187 -0.56749889098910
 1  4.05126539323932 -0.48998356825683  0.23941357975798
 1 -3.69832746394639 -0.12379604970497 -0.02762462916292
 1  2.76577727712771  2.90143053915392  1.56293494879488
 1  1.30605780658066  2.91719245104510  0.60090981848185
 1  2.76125318411841  3.17087756125613 -0.17542151175117
 1 -3.11905377497750 -3.58391674757476 -1.55814082488249
 1 -2.85458706450645 -3.50301229412941  0.25486013741374
 1 -1.51655262656266 -3.77640797519752 -0.75274750115012
 1  0.31269367016702  0.86150206540654  0.47552819801980
 1 -1.35288637723772  0.03015100230023 -0.08726645274527
 1  1.93966251075107 -1.65673472317232 -0.39508907310731
 1  0.11997250805080 -2.75961100340034 -0.71493235413541

