%nproc=4
%Mem=2GB
# td=(NStates=1) B3LYP/6-31G(d,p) 

TD

0 1
 6  12.19360370297030  0.52872347284728 -0.88057417631763
 6 -12.25243755785579 -0.02278732033203  0.80166934583458
 6  13.43635304800480 -0.28610827082708 -0.85683168216822
 6 -13.16223272317232  1.03574796629663  1.18592930733073
 6  13.18062037623762 -1.81457713011301 -0.66965872467247
 6 -13.59933452955296  1.96915542764276  0.05582594969497
 6  11.11668346224623 -0.01658739423942  0.15085262306231
 6 -11.07590525832583  0.39119900220022 -0.15089272407241
 6  12.43235767316732 -2.18769106310631  0.63934791109111
 6 -12.35573545614561  2.58854916311631 -0.57895623152315
 6  11.22220192819282 -1.18573062756276  0.75223179157916
 6 -11.11707650185018  1.55886150795080 -0.84198307200720
 6  11.58048863656366  0.54666579167917 -2.24930340894089
 6  12.70317373077308  1.95931998709871 -0.32709422842284
 6 -13.06509410021002 -1.15407252595260  0.03424725462546
 6 -11.69386825482548 -0.73111628522852  2.05677382558256
 6  10.03716177877788  0.92284839843984  0.29311131163116
 6 -9.97848765566557 -0.59853239533953 -0.42800688848885
 6  10.15222939923992 -1.71575138683868  1.83939657455746
 6 -10.15866883708371  2.08619035813581 -1.80939240414041
 6  8.58170441014101  0.52551250745074  0.23629183538354
 6 -8.62061501990199 -0.36938680398040 -0.30831715461546
 6  7.49508807700770  1.34789358965897  0.39951256385639
 6 -7.49211810571057 -1.31693016811681 -0.38657905480548
 6  7.65504855455546  2.76497913511351  0.79261169816982
 6 -7.82324951315131 -2.71183119421942 -0.80390766836684
 6  6.28180208170817  0.69295368436844  0.30290244924492
 6 -6.25956456635664 -0.76438726132613 -0.42583469516952
 6  4.99134978567857  1.30415274717472  0.39974963396340
 6 -4.97564717651765 -1.50074605240524 -0.31023240484048
 6  3.75656436803680  0.60193775897590  0.38964091339134
 6 -3.81056644184418 -0.91450208290829 -0.11015345304530
 6  2.53362666406641  1.22518322602260  0.37852234013401
 6 -2.53879287868787 -1.64999005770577 -0.12148542864286
 6  2.38437280888089  2.69449881638164  0.68476284958496
 6 -2.60439098449845 -3.12183571007101 -0.29264061416142
 6  1.29408095659566  0.54333567516752  0.25280019701970
 6 -1.36078425152515 -1.01463003500350 -0.05890459555956
 6  1.17631200340034 -0.83056800400040  0.06545902620262
 6 -0.02893235363536 -1.60109634943494 -0.00175393139314
 1  14.17915802160216 -0.21624919541954 -0.05107706480648
 1  14.07128414221422 -0.05439381508151 -1.86089962836284
 1 -12.67903426842684  1.86688907910791  1.83806737153715
 1 -14.06097695529553  0.48935842814281  1.80435687378738
 1  14.07407802980298 -2.47819863756376 -0.71003444924492
 1  12.53551943364337 -1.98465236523652 -1.56326244954495
 1 -14.23301668986899  2.76659001900190  0.40550158775878
 1 -14.35959074287429  1.45191486568657 -0.65365938803880
 1  13.09479144294430 -1.99715222182218  1.50476235823582
 1  11.96524397889789 -3.32693638573857  0.65034188978898
 1 -11.78027781988199  3.45630335103510  0.08628514551455
 1 -12.59612582648265  2.68326183398340 -1.65366926812681
 1  11.71801517201720 -0.53712678997900 -2.58299643234323
 1  12.16867374807481  1.08122278357836 -2.84397097109711
 1  10.71927949924992  1.10510362206221 -2.33988470797080
 1  12.68399935403540  2.07674457635764  0.78411575207521
 1  12.12326073297330  2.96944685558556 -0.46552070907091
 1  13.66812866916692  2.15858612851285 -0.75591786288629
 1 -13.36917614831483 -0.87669167816782 -1.07872397309731
 1 -13.98818099069907 -1.43396920112011  0.52124934563456
 1 -12.48692629582958 -2.07784618951895 -0.23228911141114
 1 -11.07691018191819  0.07603196379638  2.52610226932693
 1 -11.15840236563657 -1.75416641734173  1.96699071527153
 1 -12.46215027902790 -1.02593706160616  2.69347787588759
 1  10.21700510711071  1.97148200830083  0.50765667356736
 1 -10.37705214991499 -1.56766187618762 -0.40022640064006
 1  9.18519259675968 -1.01683927862786  2.09837359495950
 1  10.62223303740374 -2.25691188908891  2.82508393839384
 1  9.66168823602360 -2.93464331433143  1.53364298589859
 1 -9.37221425672567  1.53415572817282 -2.09405190209021
 1 -9.68214301920192  3.01555507750775 -1.54818486468647
 1 -10.84955522052205  2.52547755315532 -2.53745371867187
 1  8.53684927572757 -0.46658743894389 -0.02602955335534
 1 -8.30872426762676  0.62428662276228 -0.21244489698970
 1  7.95144837693769  2.70761579747975  1.95044442694269
 1  6.61438331903190  3.25227293149315  0.60091267096710
 1  8.49134337203720  3.17543620562056  0.17141391849185
 1 -8.47180813301330 -2.72960001910191 -1.74327102070207
 1 -8.49752074037404 -3.37151033833383 -0.10265412611261
 1 -7.06323087568757 -3.48935158645865 -1.05772465766577
 1  6.36747761226123 -0.33616884368437  0.12849083238324
 1 -6.18906089068907  0.38091002950295 -0.31635191199120
 1  4.84887824512451  2.26908535263526  0.78508141494149
 1 -5.13633373367337 -2.56605012141214 -0.46276841794179
 1  3.85765603230323 -0.50263483338334  0.22814245264526
 1 -3.50081771297130  0.15696202610261  0.08459659295930
 1  2.69345004440444  3.11962235833583  1.57695635093509
 1  1.32640984178418  2.92242297409741  0.60203993149315
 1  2.88050510931093  3.21057153065306 -0.25130910051005
 1 -3.14296616621662 -3.28234659055906 -1.33538854965496
 1 -3.03382498829883 -3.46934892779278  0.49237388878888
 1 -1.64105507680768 -3.58242857725773 -0.53619584598460
 1  0.22058445924592  1.06044195939594  0.36815746094610
 1 -1.41140222882288 -0.04718673147315 -0.02547027312731
 1  1.94067261176118 -1.45724477417742  0.09512994879488
 1  0.04984549534953 -2.62525756805681 -0.21688254915492

