%nproc=4
%Mem=2GB
# td=(NStates=1) B3LYP/6-31G(d,p) 

TD

0 1
 6  12.10029437203720  0.48236883738374 -0.76152227112711
 6 -12.13939625372537 -0.09869491109111  0.71418059695970
 6  13.44212362506251 -0.37971763176318 -0.71050704970497
 6 -13.13687018691869  0.98349274077408  1.29405011941194
 6  13.20006232043204 -1.80308598099810 -0.51595335413541
 6 -13.36936153225322  1.91576008810881  0.07622798989899
 6  11.06953874777478 -0.07497323282328  0.25493303110311
 6 -10.98372604040404  0.47847773007301 -0.06005364016402
 6  12.41311574897490 -2.12073436743674  0.78560253655366
 6 -12.11532141474147  2.64989529772977 -0.36007434333433
 6  11.23063277127713 -1.16697875237524  0.99655622402240
 6 -10.98213300750075  1.69193481528153 -0.54617349104911
 6  11.48710929862986  0.38711983708371 -2.20342882148215
 6  12.53057647104711  1.98675273037304 -0.46995851485149
 6 -13.05788337913791 -1.24111122982298 -0.09470564066407
 6 -11.61324019201920 -0.88737191079108  1.97776592479248
 6  9.81402946554656  0.73996010961096  0.42506450695070
 6 -9.86541634853485 -0.51031357345735 -0.21719580738074
 6  10.34092826912691 -1.65255506720672  2.16525916081608
 6 -9.94061703190319  2.28410014911491 -1.47648911381138
 6  8.52808904860486  0.33823377957796  0.35799400560056
 6 -8.54541750015001 -0.29665953125313 -0.15214153705371
 6  7.34504307250725  1.28628742904290  0.45330794339434
 6 -7.54945383928393 -1.32478095319532 -0.41494189108911
 6  7.68609165886589  2.76670930813081  0.65219765676568
 6 -8.02747993619362 -2.78723873497350 -0.66501377897790
 6  6.14388829032903  0.79039342834283  0.35425758475848
 6 -6.27175578547855 -1.00962178477848 -0.27466957865787
 6  4.85626627732773  1.52134446634663  0.38508816781678
 6 -5.02836244804481 -1.70635661346135 -0.32869425102510
 6  3.77340605220522  0.89565713091309  0.16051800110011
 6 -3.78410379557956 -1.02367300000000 -0.35861829952995
 6  2.34463776517652  1.37948865656566  0.16866135403540
 6 -2.51208020742074 -1.78876393509351 -0.40268354845485
 6  2.27072144374437  2.99471883838384  0.25129950325033
 6 -2.50384092949295 -3.21869539603960 -0.68527987808781
 6  1.19828137663766  0.66285762736274 -0.05947103010301
 6 -1.36243441654165 -1.05287385938594 -0.22911161626163
 6  1.13520789298930 -0.79667461466147 -0.22949046874687
 6 -0.03183264366437 -1.53634987478748 -0.19612336833683
 1  13.76884699049905 -0.24487205770577  0.28711675457546
 1  13.97885489928993 -0.11522989868987 -1.83497703610361
 1 -12.83506987198720  1.70180257045705  1.90355392019202
 1 -13.97828868646865  0.57424691699170  1.54221065916592
 1  14.23707432943294 -2.30080089778978 -0.48881232703270
 1  12.91309719141914 -2.24076797679768 -1.47157328062806
 1 -14.10801418961896  2.53205656565657  0.49211024862486
 1 -13.99113389718972  1.34519419361936 -0.52032605470547
 1  12.97119908370837 -2.14915742234223  1.61963384538454
 1  11.82380983548355 -3.08333202530253  0.57314417001700
 1 -11.83160295239524  3.59714743544354  0.43739025602560
 1 -12.19706592049205  3.08352185998600 -1.18024192539254
 1  11.46600997149715 -0.67336041334133 -2.61741987468747
 1  12.22297917861786  0.78180284158416 -2.77086366036604
 1  10.48822639393939  0.68225133683368 -2.32852357185719
 1  12.71807276137614  2.12516941884188  0.68799614011401
 1  11.59209761666166  2.64683459435944 -0.84870902790279
 1  13.35568742504250  2.33652392229223 -1.10331260236024
 1 -13.29051828252825 -0.88406241524152 -0.94628072877288
 1 -14.05126729932993 -1.40474627882788  0.49458667936794
 1 -12.40448805200520 -2.15678408330833 -0.06593247574757
 1 -10.67937042794279  0.03356771737174  2.33590324942494
 1 -11.30379690509051 -1.85053605430543  1.79455347154716
 1 -12.40320438443844 -0.99171363926393  2.78658718681868
 1  10.25152855945595  1.74031889198920  0.52001790969097
 1 -10.26337078177818 -1.62749785978598 -0.46386276427643
 1  9.66936101360136 -0.91221881658166  2.59158291589159
 1  10.85469628372837 -2.05734193209321  3.10041147114711
 1  9.90961302850285 -2.77522737273727  1.99705932753275
 1 -9.17421445674567  1.46716902950295 -1.76167866476648
 1 -9.36223102800280  3.08620214221422 -0.94143418961896
 1 -10.49236950195020  3.01637664306431 -2.33487346064607
 1  8.39576516731673 -0.71493227342734  0.31503455305531
 1 -8.43596699189919  0.78966316041604 -0.20230388288829
 1  8.36731996409641  2.86751178707871  1.50210959345935
 1  6.84549643034303  3.45934363856386  0.77375995569557
 1  8.29031326902690  3.18600726272627 -0.19280250315031
 1 -8.86656760896090 -2.55219227832783 -1.47116380998100
 1 -8.48082907120712 -3.14477766506651  0.25798193749375
 1 -7.20902545514551 -3.48784143544354 -1.14211309650965
 1  6.12072293679368 -0.37808303510351  0.25618360166017
 1 -5.87705969056906  0.19656159465947  0.10548027122712
 1  4.75184854215421  2.45831427552755  0.57095000180018
 1 -5.17295739603960 -2.70652416881688 -0.37250939203920
 1  3.99606987368737 -0.16040060996100  0.06062570097010
 1 -3.68319595079508  0.11474780468047 -0.43944581128113
 1  2.71141184058406  3.61939233533353  1.21776043134313
 1  1.33201040184018  3.32963369516952  0.09338906640664
 1  2.77024408320832  3.48481895539554 -0.61179514911491
 1 -3.04243611321132 -3.61140949684969 -1.78353336413641
 1 -2.90219182498250 -3.74745673857386  0.18477312871287
 1 -1.36975794709471 -3.64190452485248 -0.83515574197420
 1  0.37628002880288  1.41067698289829  0.09499014421442
 1 -1.46920800940094 -0.09407141994199  0.09193146704670
 1  2.21963050755075 -1.14654370407041 -0.39225879007901
 1  0.04434494529453 -2.69799484178418 -0.23005386628663

