%nproc=4
%Mem=2GB
# td=(NStates=1) B3LYP/6-31G(d,p) 

TD

0 1
 6  12.15644998759876  0.53572417291729 -0.71681780068007
 6 -12.11907422152215 -0.05218025962596  0.73656283518352
 6  13.48528794149415 -0.34872453245325 -0.73224922392239
 6 -13.01476797669767  1.13177756925693  1.18998971337134
 6  13.17147946214621 -1.82314798719872 -0.75595735453545
 6 -13.47528212431243  2.01763027512751  0.08081844894489
 6  11.01691348524852 -0.06345208070807  0.11050858865887
 6 -10.97596526432643  0.48339822212221 -0.18598623342334
 6  12.21472590999100 -2.17994028802880  0.38569254555456
 6 -12.27932781538154  2.54004431263126 -0.74433276917692
 6  11.14050375837584 -1.22668472297230  0.72840940934093
 6 -11.11385617981798  1.65025064686469 -0.89278815251525
 6  11.55279586728673  0.73278440354035 -2.20378885748575
 6  12.61495490889089  1.94416847194719 -0.18254977397740
 6 -12.96437402820282 -1.15614273297330  0.13878770867087
 6 -11.42744161216122 -0.68400157375738  2.04024217241724
 6  9.86561462406241  0.85183129672967  0.39405140564056
 6 -9.96635644254425 -0.47456999909991 -0.32911699949995
 6  10.14416859315932 -1.82118192989299  1.63420605550555
 6 -10.12956592679268  2.00864260336034 -1.86927839273927
 6  8.55732197189719  0.52759271547155  0.28922712891289
 6 -8.53614657305731 -0.24455432073207 -0.34915123802380
 6  7.42602117031703  1.36716551685169  0.56105871847185
 6 -7.46526542044205 -1.27361583668367 -0.29331972887289
 6  7.57881093079308  2.78818145534553  0.91022345934593
 6 -7.90378756695670 -2.78829884098410 -0.54192146974697
 6  6.14396829832983  0.83825821482148  0.40830298929893
 6 -6.16780539043904 -0.85186600920092 -0.27870998269827
 6  4.87070772147215  1.39506183808381  0.52677233623362
 6 -5.00075968776878 -1.66058203600360 -0.27000838243824
 6  3.70154886648665  0.69651721692169  0.25697764706471
 6 -3.74644002920292 -1.15247588028803 -0.38057049474947
 6  2.36284958635864  1.33573428112811  0.30012450035003
 6 -2.49419841924192 -1.85630068876888 -0.32566584668467
 6  2.25711008260826  2.79511887838784  0.51619599289929
 6 -2.48111865726573 -3.35910943744374 -0.33466481658166
 6  1.20806235473547  0.53725506710671  0.32907782478248
 6 -1.32216038913891 -1.06279485148515 -0.16235494059406
 6  1.09377374957496 -0.82763771097110  0.05734821512151
 6  0.03701424102410 -1.62493873367337  0.09228547254725
 1  14.04798490429043 -0.11264883538354  0.09850789368937
 1  14.09179619341934 -0.14754313001300 -1.61116465486549
 1 -12.28541490649065  1.88657104730473  1.80216378117812
 1 -13.95799665726573  0.61783127542754  1.84207064516452
 1  14.06832745474548 -2.49797061476148 -0.68730217601760
 1  12.77475335703570 -2.05749964996500 -1.61956808010801
 1 -13.99276266446645  2.96948030803080  0.58343938153815
 1 -14.04528931273127  1.40561023522352 -0.55257928002800
 1  12.94045600940094 -2.49566207280728  1.18754063606361
 1  11.68133558805881 -3.28186187828783  0.07332418801880
 1 -11.94382417451745  3.44787250795080 -0.24189767276728
 1 -12.60913712761276  2.85108861666167 -1.67119102030203
 1  11.05410878137814 -0.25656873417342 -2.45271340404040
 1  12.47479436013601  0.94204886618662 -2.88696527052705
 1  10.75880345164516  1.42945605730573 -2.58303902340234
 1  13.08406936103610  1.89363626552655  0.81637897839784
 1  11.85844425132513  2.73800371127113 -0.26778093509351
 1  13.58123998029803  2.47708797869787 -0.62380465156516
 1 -13.36601583228323 -0.96011002000200 -0.82712881358136
 1 -13.71783395599560 -1.29162496669667  0.99785700640064
 1 -12.35558316151615 -2.00257866276628 -0.09889577207721
 1 -10.86186867776778  0.11114547514752  2.74454411351135
 1 -10.66109263466347 -1.39118011871187  1.59892390859086
 1 -12.15167923192319 -1.11833630153015  2.70287881598160
 1  9.99818322492249  1.89056391649165  0.32359826772677
 1 -10.19503394809481 -1.49407451745175 -0.32918929692969
 1  9.47136121362136 -1.09228682338234  2.13748750635064
 1  10.66647746184618 -2.33125932383238  2.52983441344134
 1  9.59057112431243 -2.76710656065607  1.25141476307631
 1 -9.46721375667567  1.38692100470047 -2.23232572947295
 1 -9.63323812871287  3.05315883788379 -1.58575862206221
 1 -10.60094035903590  2.47112211761176 -2.71531150445045
 1  8.38002359315931 -0.70771155135514  0.29513256285629
 1 -8.09067246244624  0.80129432353235 -0.28679233173317
 1  8.26794002610261  2.89123415931593  1.71626100860086
 1  6.70475235593559  3.41694939913991  0.85546812651265
 1  8.13151738943894  3.38805746774677  0.03001977907791
 1 -8.17842879507951 -2.71060811991199 -1.58747544114411
 1 -8.75650663896390 -2.80924411171117 -0.01744560526053
 1 -7.18696324892489 -3.39261191249125 -0.38428731393139
 1  6.22160302480248 -0.17883311011101  0.23354133743374
 1 -5.93992597719772  0.17408934743474 -0.36634691149115
 1  4.69730308760876  2.52434087818782  0.68226113291329
 1 -5.09011911221122 -2.81638515491549 -0.34944708580858
 1  3.68212847954796 -0.33842841274127  0.06216585498550
 1 -3.58520615181518 -0.10130380048005 -0.09642150885089
 1  2.82298299769977  3.33006340244024  1.43100175547555
 1  1.17805500630063  3.02584331613161  0.78666839433943
 1  2.57761482028203  3.33978445194519 -0.44647861746175
 1 -3.09229109870987 -3.90528888478848 -1.14220923172317
 1 -2.92242384818482 -3.95587758065807  0.60290494189419
 1 -1.61862283358336 -3.88286862126213 -0.50447267366737
 1  0.19837223802380  1.12351826702670  0.39223986918692
 1 -1.47250833943394  0.12188017521752 -0.16689441554155
 1  2.01212975747575 -1.38155720542054 -0.18703826802680
 1  0.40643115391539 -2.83689873217322 -0.09744060496050

