%nproc=4
%Mem=2GB
# td=(NStates=1) B3LYP/6-31G(d,p) 

TD

0 1
 6  12.05342968556856  0.50329092959296 -0.93565968486849
 6 -12.14096641074107 -0.12676771837184  0.55362454135414
 6  13.30896030873087 -0.30498015801580 -0.79309530853085
 6 -13.03852035193519  1.08676306780678  1.23151386578658
 6  12.89512182638264 -1.87019269166917 -0.76858861766177
 6 -13.41717631373137  1.98577708980898  0.11866223332333
 6  10.99078087198720  0.03207747224722  0.24123166096610
 6 -10.94700236803680  0.45023490579058 -0.21407904270427
 6  12.34119855725573 -2.14835712971297  0.68376235253525
 6 -12.16035591819182  2.66999730793079 -0.56438477437744
 6  11.25428513651365 -1.14452650715072  0.89400596899690
 6 -11.04012880708071  1.73159878167817 -0.79917879157916
 6  11.31058164586459  0.52644376947695 -2.31727020562056
 6  12.42267568096810  1.91791584668467 -0.54364588358836
 6 -13.06088367916792 -1.18002512121212  0.04876870677068
 6 -11.58564743274327 -0.70835400900090  1.84494264246425
 6  9.81526958955896  0.82459857345735  0.25042704320432
 6 -9.92497230413041 -0.52713525562556 -0.44201828962896
 6  10.29062323862386 -1.60228003970397  2.03405604050405
 6 -9.94079704990499  2.17472921202120 -1.62945441034103
 6  8.50448668836884  0.42419237543754  0.24821302750275
 6 -8.55549850825082 -0.33305317061706 -0.29642596549655
 6  7.39487805600560  1.34000280058006  0.42561517411741
 6 -7.46803569746975 -1.28455693079308 -0.36554695159516
 6  7.68381143084309  2.83998663586359  0.71398383538354
 6 -7.77051423962396 -2.66870688178818 -0.78356563416342
 6  6.18003190469047  0.84102849184918  0.47122928192819
 6 -6.13883249314931 -0.83490431303130 -0.18753086478648
 6  4.90588123882388  1.34821715361536  0.71295095409541
 6 -4.95932554435444 -1.66103208100810 -0.24930631223122
 6  3.73980269186919  0.70187775297530  0.40324227352735
 6 -3.64757014221422 -1.05363599629963 -0.12175461316132
 6  2.45483878527853  1.24245495319532  0.47764225212521
 6 -2.43065206460646 -1.85104016271627 -0.21050433053305
 6  2.37966233783378  2.76143551005101  0.66911128442844
 6 -2.59440998639864 -3.35531905840584 -0.42151350145015
 6  1.28640018851885  0.57407874947495  0.19267418441844
 6 -1.33089126222622 -1.13506207820782 -0.04485319041904
 6  1.24246861906191 -0.89630457765777 -0.16217373707371
 6 -0.01028048844884 -1.58173441324132 -0.20857461346135
 1  13.87991809760976  0.09493192269227  0.01104914781478
 1  14.03772078587859 -0.11492986868687 -1.62973651205121
 1 -12.49391575657566  1.72008439863986  1.94815838063806
 1 -13.94176503410341  0.66341583388339  1.85021145924592
 1  13.77802842484248 -2.58152897059706 -0.78744219001900
 1  12.08490437213721 -2.35697959795980 -1.41708783208321
 1 -14.25246863506351  2.66891025102510  0.23273431103110
 1 -13.97566235003501  1.22110178437844 -0.66612063416342
 1  13.13670563436344 -1.95569807640764  1.50592247424743
 1  11.98841629612961 -3.11156484858486  0.75207206280628
 1 -11.94165395749575  3.52713043374337  0.00416693369337
 1 -12.51203741764176  3.13820732853285 -1.47253115431543
 1  10.90927429792979 -0.53405648294829 -2.59537767046705
 1  12.04234111481148  0.83360802210221 -3.10797737173717
 1  10.64277184848485  1.35664877657766 -2.42144286378638
 1  12.60188114221422  2.31803870577058  0.56627396789679
 1  11.83475188208821  2.66581649254926 -0.74966912391239
 1  13.30572242854285  2.30341061096110 -1.10724299539954
 1 -13.75456468716872 -0.68997300630063 -0.71541764246425
 1 -13.79600177277728 -1.42542834703470  0.79423664436444
 1 -12.69794739793980 -2.07699610451045 -0.31761764426443
 1 -10.98511100200020 -0.02534817421742  2.55286494559456
 1 -10.97908443384338 -1.75765676637664  1.43419743594359
 1 -12.49269333333333 -0.89618408630863  2.35396392449245
 1  9.82576598319832  2.06892175227523 -0.03876796889689
 1 -10.01622606730673 -1.47387249724973 -0.67813419141914
 1  9.55019909740974 -0.87233482818282  2.27141089868987
 1  10.72531334543454 -1.78756495439544  2.87580901090109
 1  9.83959602680268 -2.43238308830883  1.76469609120912
 1 -9.47492452775277  1.24612692529253 -2.05413791069107
 1 -9.00748555345534  2.62298582058206 -0.99645969216922
 1 -10.32913317831783  2.84518952435244 -2.46049602290229
 1  8.12786837763776 -0.71626240644064  0.32021507110711
 1 -8.05352874807481  0.81922611671167  0.10954730223022
 1  8.27196042814282  2.91272630853085  1.52121150365036
 1  6.69380126082608  3.48390609480948  0.83494607430743
 1  8.18343258095810  3.21993065506551 -0.16133935683568
 1 -8.35213616581658 -2.83191025012501 -1.76901359495950
 1 -8.59816080438044 -2.96955014231423 -0.08812267296730
 1 -6.87298185078508 -3.44643729502950 -0.72829171437144
 1  6.04985585008501 -0.25825105190519  0.24315229852985
 1 -6.02433441804180  0.28306024452445  0.23962368556856
 1  4.94437779507951  2.49215765986599  0.92208511531153
 1 -5.09476957725773 -2.67768128452845 -0.50353249434944
 1  3.98265853255326 -0.41900647054705 -0.02769313091309
 1 -3.70916854805481  0.05896222612261 -0.29949181588159
 1  2.67803850325032  2.90035043114311  1.74758341364136
 1  1.25547274807481  3.03481421322132  0.81256098359836
 1  2.84858191699170  3.14884535803580 -0.16079004860486
 1 -3.01139300890089 -3.47117547344734 -1.48954396519652
 1 -3.28829043484348 -3.85437743064306  0.29470412181218
 1 -1.59452042334233 -3.94400473487349 -0.49055128152815
 1  0.28069046984698  1.10460637583758  0.33002364756476
 1 -1.46169725832583 -0.13004501730173  0.06315858975898
 1  2.06656520102010 -1.69413846354635 -0.42535209940994
 1  0.00175068586859 -2.59250429272927 -0.53952481338134

