%nproc=4
%Mem=2GB
# td=(NStates=1) B3LYP/6-31G(d,p) 

TD

0 1
 6  12.02223656625663  0.58827942844284 -0.81703782268227
 6 -12.06503881798180  0.06234119251925  0.82483166206621
 6  13.42303171587159 -0.26469612961296 -0.75778177717772
 6 -13.04080057995800  1.32414680618062  1.10156087048705
 6  13.13204551875187 -1.73165883828383 -1.00143190199020
 6 -13.38624322042204  2.03819233133313 -0.08005763866387
 6  11.02469426332633 -0.00585632113211  0.16616415421542
 6 -10.97260492829283  0.45724560686069 -0.20887852265227
 6  12.34145858325833 -2.15978827282728  0.30668464476448
 6 -12.13385326792679  2.71435174337434 -0.78519685558556
 6  11.21390109810981 -1.23491554605461  0.81357792619262
 6 -11.02056685088509  1.56656227802780 -0.92112098579858
 6  11.41853244094409  0.61002212731273 -2.34759323792379
 6  12.47251066446645  1.87836189128913 -0.31787330633063
 6 -13.03647123792379 -1.13384050275027  0.43132696259626
 6 -11.48435730373037 -0.40346351995200  2.20206835503550
 6  9.78002606520652  0.89050516411641  0.32031403190319
 6 -9.95848565546555 -0.61750429252925 -0.30690477827783
 6  10.36761093739374 -1.56699651135114  1.96064869976998
 6 -9.98344131433143  1.98358009710971 -1.86333779867987
 6  8.49790603030303  0.46917687388739  0.47773597979798
 6 -8.55097805620562 -0.44881474677468 -0.28882520542054
 6  7.34663323152315  1.34496329662966  0.60947355995600
 6 -7.52631152505251 -1.35857433253325 -0.40690108700870
 6  7.71362441214121  2.75681831903190  0.72414485148515
 6 -7.96460364856486 -2.79785979707971 -0.45465274287429
 6  6.16964086558656  0.72838722772277  0.53541570057006
 6 -6.24571318121812 -0.90072089468947 -0.49339145084508
 6  4.84319497019702  1.35705803770377  0.68336799579958
 6 -4.90805041684168 -1.67886386418642 -0.44831621322132
 6  3.63980269186919  0.70089765496550  0.61639358865887
 6 -3.73997938313831 -1.16614724742474 -0.41787422512251
 6  2.35252855425543  1.25417612531253  0.64685917381738
 6 -2.47759675907591 -1.85027008570857 -0.37029030913091
 6  2.23982835443544  2.77695706220622  0.71587596089609
 6 -2.42990353575358 -3.45786931343134 -0.68006935703570
 6  1.18249979847985  0.51583292489249  0.37296221322132
 6 -1.36150432353235 -1.07883645564556 -0.36301500660066
 6  1.04923929612961 -0.83878882608261  0.11408388868887
 6  0.01933247284728 -1.62820906070607 -0.30359411541154
 1  13.97758786458646 -0.03065063556356  0.35866390929093
 1  14.02025903970397  0.17248887318732 -1.57758129652965
 1 -12.41437780278028  2.00170256045605  1.76615017981798
 1 -13.82916377397740  0.64714420672067  1.56516295439544
 1  14.05850647264726 -2.43452427012701 -1.05214866066607
 1  12.43089897159716 -2.07937183718372 -1.96472259555956
 1 -13.98759214741474  2.74659801980198  0.15908694629463
 1 -13.73709849364937  1.35830550475047 -0.82032605470547
 1  13.14681664546455 -2.36941944854485  1.17888977097710
 1  11.82871032553255 -3.25874956705671  0.58698555415542
 1 -11.64231402350235  3.59959768046805 -0.42836631963196
 1 -12.50590680458046  2.76736024382438 -2.01549545074508
 1  11.14697806830683 -0.36329940724072 -2.85540367306731
 1  12.18966584728473  1.25518017931793 -3.00128670267027
 1  10.56232380368037  1.38313142484248 -2.16521724122412
 1  13.10211116521652  1.99222612451245  0.54506184668467
 1  11.64981338823882  2.52313222412241 -0.34777893489349
 1  13.20853270957096  2.42684295419542 -1.20700297139714
 1 -13.77730696139614 -0.88197220622062 -0.46711281198120
 1 -13.58800097269727 -1.67854365856586  1.16135335603560
 1 -12.50258786198620 -1.95947435233523 -0.17478336083608
 1 -10.75869836073607  0.25196955755576  2.78994865396540
 1 -10.91789831523152 -1.33013401410141  1.95682969916992
 1 -12.38110217421742 -0.44873934183418  2.75927445554555
 1  9.88707211381138  1.90307516761676  0.53376928482848
 1 -10.35364980968097 -1.63025813581358 -0.18695507350735
 1  9.67679175667567 -0.85680327502750  2.28686244384438
 1  11.05002581668167 -2.28590478837884  2.75860729072907
 1  9.51879394659466 -2.37568741874187  1.72772239383938
 1 -9.22933996929693  1.26310862346235 -2.26308880578058
 1 -9.14642944784478  2.68142166416642 -1.06477652385239
 1 -10.26668693369337  2.60270527592759 -2.81494146744675
 1  8.38135372617262 -0.53886466666667  0.22041509110911
 1 -8.13224661986199  0.56423061716172 -0.39720337283728
 1  8.33766699879988  3.12153718961896  1.53344272677268
 1  6.85026690739074  3.37615531973197  0.79317189688969
 1  8.23637787548755  3.14006266826683 -0.10371359425943
 1 -8.84812576477648 -2.79399645874587 -1.30745743934393
 1 -8.37295828412841 -3.32625581288129  0.65088122742274
 1 -7.13778833143314 -3.53050570187019 -0.53227211241124
 1  6.09519038353835 -0.29768499529953  0.18248623192319
 1 -6.08469045364536  0.15832777127713 -0.20827110391039
 1  4.67004036133613  2.26341478557856  0.98233113991399
 1 -5.13958405870587 -2.69350286668667 -0.65903804490449
 1  3.44152441914191 -0.33540811071107  0.46409604800480
 1 -3.49206683788379 -0.02678634873487 -0.37306917361736
 1  3.03198389778978  3.11984238033803  1.59934859015902
 1  1.16382358315832  3.25765649744974  1.06772650015002
 1  2.77765482428243  3.24312478597860 -0.33004697429743
 1 -3.03563543314332 -3.73872222812281 -1.55203021382138
 1 -2.84928653445345 -3.74142613551355  0.22308696009601
 1 -1.39640061136114 -3.65004533893389 -0.96986921332133
 1  0.19271167196720  1.15153106830683  0.49541018621862
 1 -1.43800488908891 -0.03806581938194  0.09660193409341
 1  1.86697524202420 -1.61984103380338  0.62933336913691
 1  0.21095160596060 -2.76496153845385 -0.18106896779678

