%nproc=4
%Mem=2GB
# td=(NStates=1) B3LYP/6-31G(d,p) 

TD

0 1
 6  12.16375071767177  0.57387798829883 -0.48586470537054
 6 -12.12992530663066  0.04146910531053  0.85376455535554
 6  13.43491290399040 -0.32870253025303 -0.43588958795880
 6 -12.91304780468047  1.13165755725573  1.42906362076208
 6  13.15567788198820 -1.80057572997300 -0.45181694049405
 6 -13.35669026512651  2.09426793889389  0.23426379347935
 6  11.05560735463546  0.02843710821082  0.22590012781278
 6 -10.96936460426043  0.39789967226723 -0.10007764256426
 6  12.24216865426543 -2.11693398739874  0.70598457475748
 6 -12.06690657325733  2.61975228342834 -0.43263159905991
 6  11.12027173517352 -1.14793684818482  0.81318788718872
 6 -11.04307910211021  1.62469809160916 -0.73410228392839
 6  11.71135172287229  0.78603972907291 -1.95306378497850
 6  12.66866027942794  1.98935299039904 -0.17902942194219
 6 -13.03816140694070 -0.97048416711671  0.12536636653665
 6 -11.53706257425742 -0.84124729832983  2.10758890709071
 6  9.83223128572857  0.97742385598560  0.37119912041204
 6 -9.89998980588059 -0.62536507860786 -0.12967705550555
 6  10.09511368766877 -1.61264107580758  1.84701733663366
 6 -10.16686965716572  2.14455619471947 -1.86879834473447
 6  8.54194043374337  0.42906286248625  0.25406361256126
 6 -8.57779073747375 -0.38734860016002 -0.24444076697670
 6  7.39938850705071  1.28005680598060  0.38597120972097
 6 -7.49748864276428 -1.23877235233523 -0.28303870077008
 6  7.55961901160116  2.66713935113511  0.57761019801980
 6 -7.81440862906291 -2.67259727082708 -0.37108438603860
 6  6.17195109660966  0.64531892089209  0.24758691769177
 6 -6.24882349224923 -0.86455727832783 -0.28720083178318
 6  4.94352500320032  1.35723805570557  0.29071873087309
 6 -5.10048966076608 -1.59754573237324 -0.52987436903690
 6  3.76955566716672  0.66422398759876 -0.01593964466447
 6 -3.80588597379738 -1.07389802250225 -0.25817825552555
 6  2.41421472287229  1.24223493119312  0.05770025792579
 6 -2.60391939133913 -1.83590864956496 -0.38909218931893
 6  2.24426879847985  2.73799316581658  0.36131050435044
 6 -2.64969551495150 -3.36364989148915 -0.62033338343834
 6  1.27335888438844  0.47054839643964 -0.02478756175618
 6 -1.32273044614461 -1.26209478147815 -0.31251995709571
 6  1.16262063426343 -0.90099504670467 -0.31740926062606
 6 -0.02527198759876 -1.69474571437144 -0.41754551055106
 1  13.98135824162416 -0.17686525702570  0.49533757665767
 1  14.25290230403040 -0.04376275197520 -1.18105164356436
 1 -12.48560492549255  1.50125251545154  2.10583414821482
 1 -13.99926078367837  0.83065255755576  1.83715015311531
 1  14.10420104210421 -2.22136295399540 -0.40165361116112
 1  12.79893577527753 -2.06874077407741 -1.33989011231123
 1 -13.97729111731173  2.95887924792479  0.71411244884488
 1 -13.84214899869987  1.59041871607161 -0.72803682578258
 1  12.76894885868587 -2.22680518711871  1.72495437743774
 1  11.93370082458246 -3.09750344244424  0.61432828842884
 1 -11.53975376747675  3.30920864156416  0.21977849484948
 1 -12.39543575747575  3.25404891269127 -1.51579548074807
 1  11.24525789628963 -0.16233931123112 -2.53771190389039
 1  12.43131001170117  1.18624328562856 -2.63435000900090
 1  10.84136170747075  1.52818593029303 -2.08617933743374
 1  12.84968592269227  2.07825472737274  0.95455279577958
 1  11.97292569946995  2.87609752065207 -0.39619377637764
 1  13.62026388268827  2.21045131503150 -0.79866213731373
 1 -13.47926715741574 -0.44653866286629 -0.79092519321932
 1 -13.86718889148915 -1.36854265846585  0.61793901460146
 1 -12.45366296949695 -1.82072047694770 -0.41072695519552
 1 -10.58398088898890 -0.54449008840884  2.58233789288929
 1 -10.91028755415542 -1.71802280298030  1.77968198439844
 1 -12.29627369136914 -1.13669813771377  2.74529305740574
 1  9.83261666826683  1.96750161026103  0.42835874377438
 1 -10.38597304200420 -1.53801891189119 -0.08944532253225
 1  9.36196027352735 -0.77157475217522  2.15220897849785
 1  10.56649746384639 -1.95726192409241  2.70245167516752
 1  9.53976604380438 -2.42181203120312  1.22656227782778
 1 -9.20509754505450  1.54003631623162 -2.16873937083708
 1 -9.69516432133213  3.04058758075808 -1.44485453165317
 1 -10.61940220522052  2.35470047544755 -2.80071004430443
 1  8.19299489028903 -0.65430621082108  0.25634868446845
 1 -8.14080747594759  0.78703289738974 -0.28232188468847
 1  8.23632686478648  2.91737677357736  1.59232861536154
 1  6.61418329902990  3.15171287548755  0.90212279197920
 1  8.03951818951895  3.28785744774477 -0.32368559145915
 1 -8.35168612081208 -2.66088314741474 -1.26304299789979
 1 -8.47020800910091 -3.31602478977898  0.39094523382338
 1 -6.96178073067307 -3.20257290859086 -0.34081296649665
 1  6.13721458595860 -0.45635086188619  0.03399138243824
 1 -5.95039702430243  0.19860179867987 -0.17523780058006
 1  4.77947130443044  2.37379582368237  0.63020592739274
 1 -5.41149124942494 -2.75323884028403 -0.65906804790479
 1  3.88201846854686 -0.48542311221122 -0.15740610221022
 1 -3.66079371057106 -0.09367303740374 -0.27395926262626
 1  2.86612731213121  3.23911430753075  1.30137879317932
 1  1.26900410121012  3.00682141394139  0.44742446994699
 1  2.73130018881888  3.14547502100210 -0.47249121872187
 1 -2.97736960656066 -3.45286364226423 -1.66148115891589
 1 -3.29374097989799 -3.91979397229723  0.17516216761676
 1 -1.69144011531153 -3.78825916031603 -0.80156238263826
 1  0.47503990479048  1.17181309650965  0.10763140834083
 1 -1.52307339593959 -0.18721073387339 -0.07781550765077
 1  2.07263580808081 -1.47373642334233 -0.31950151435143
 1 -0.04197368656866 -2.82102714501450 -0.76931779267927

