%nproc=4
%Mem=2GB
# td=(NStates=1) B3LYP/6-31G(d,p) 

TD

0 1
 6  12.07455179777978  0.49682028252825 -0.81785790469047
 6 -12.04130644474447 -0.03643868546855  0.87986716561656
 6  13.42553196589659 -0.30129978997900 -0.75144114311431
 6 -12.95276177607761  1.13812820432043  1.25313602800280
 6  13.27591990619062 -1.74286995939594 -0.51800355915592
 6 -13.50048464456446  2.01741025312531  0.04074444154415
 6  10.99366116001600 -0.01275701120112  0.14780231803180
 6 -10.99555722352235  0.40568045034503 -0.15469310411041
 6  12.37430186758676 -2.02916521052105  0.63090706700670
 6 -12.27416729932993  2.58673898209821 -0.65911424732473
 6  11.27902761076108 -1.16516857135714  0.83198976737674
 6 -11.14227902210221  1.58911453325333 -0.81417029072907
 6  11.61365195289529  0.53558468356836 -2.29188766736674
 6  12.42724613801380  2.01613566866687 -0.55537705670567
 6 -12.96277386818682 -1.17706482518252  0.20236406630663
 6 -11.39185805380538 -0.55985915951595  2.22429057725773
 6  9.86884494709471  0.86492260586059  0.32234423492349
 6 -9.92663247014701 -0.60014255635564 -0.37425151295130
 6  10.33177735403540 -1.68551836353635  1.82595523042304
 6 -10.09732270247025  2.05420715981598 -1.86639810471047
 6  8.56865310501050  0.48188814501450  0.22973117931793
 6 -8.61376433483348 -0.33343320862086 -0.45131145404540
 6  7.37086565476548  1.26562536283628  0.56854946754675
 6 -7.55364425832583 -1.19699817491749 -0.46525692259226
 6  7.57523057275728  2.74527716491649  0.91097353435344
 6 -7.94929211741174 -2.63914392549255 -0.77528480608061
 6  6.22384628612861  0.70469485848585  0.35963812281228
 6 -6.25720433033303 -0.82178300090009 -0.37492960466047
 6  4.89732038273827  1.23862619451945  0.51458111711171
 6 -5.03947355915592 -1.61059703750375 -0.39202058365837
 6  3.68032674427443  0.63311087628763  0.18137008630863
 6 -3.74434982018202 -0.99852048474847 -0.22753519121912
 6  2.39812311371137  1.19167987568757  0.47457194509451
 6 -2.51368036743674 -1.74833989268927 -0.24345762586259
 6  2.30934530613061  2.64444381088109  0.70387476077608
 6 -2.64096464186419 -3.24199772627263 -0.50054140424042
 6  1.19328087658766  0.49028036963696  0.27364228122812
 6 -1.34118229132913 -0.98751732373237 -0.17290599569957
 6  1.14595896809681 -0.92193714091409  0.02683516381638
 6 -0.07985744614461 -1.63313955375538 -0.13195695169517
 1  13.93004311011101  0.18215064456446  0.15328337123712
 1  14.07120413421342 -0.01704007970797 -1.40074361276128
 1 -12.40791715671567  1.90769315951595  1.79268283308331
 1 -13.77271812941294  0.71918141044104  1.75894233233323
 1  14.14134475647565 -2.22509332703270 -0.47752119791979
 1  12.84581046274628 -2.15005890589059 -1.43641976527653
 1 -14.28229161736174  2.72612597259726  0.26088712631263
 1 -14.02622740654065  1.40539021322132 -0.58994301640164
 1  12.88465042884289 -2.25225773237324  1.73013489548955
 1  12.11148860336034 -3.19127281938194  0.48734559015902
 1 -11.76413620572057  3.33531125182518  0.02591910891089
 1 -12.27984419831983  3.15556906470647 -1.59390329152915
 1  11.54024739523952 -0.44390746804680 -2.81693982668267
 1  12.45830271097110  1.13939860116012 -2.91444801880188
 1  10.73880145144514  1.18353146484648 -2.50458117761776
 1  12.52835378947895  2.11541844374438  0.45008234873487
 1  11.50675908280828  2.65654556545655 -0.72879703670367
 1  13.29254111041104  2.42229249914991 -1.06131840294029
 1 -13.35726495719572 -0.86194020302030 -0.96661276197620
 1 -13.68722089468947 -1.67786359055906  0.87094431513151
 1 -12.40771837503750 -1.90786919181918 -0.17391327382738
 1 -10.63393588448845  0.02769713031303  2.78752841194119
 1 -11.21214774017402 -1.57067806850685  1.88243225942594
 1 -12.27852191619162 -0.75637010491049  2.82208073617362
 1  9.99380278687869  1.82382724282428  0.41028693659366
 1 -10.24351879657966 -1.58785389538954 -0.37178355635564
 1  9.81031510901090 -0.76148374307431  2.44992875047505
 1  10.78626944104411 -2.25480167806781  2.60885231523152
 1  9.52348441564157 -2.40470032003200  1.31181080268027
 1 -9.57845488078808  1.43579589218922 -2.41111360826083
 1 -9.33693849874988  2.66794031603160 -1.31772181838184
 1 -10.59095936093610  2.82877788318832 -2.55433540684068
 1  8.52847843864386 -0.69975075527553  0.20151320092009
 1 -8.19894328952895  0.68359255335534 -0.43244689718972
 1  8.08143137523752  2.77394243014301  2.00950033253325
 1  6.81171305200520  3.36172387658766  0.61935451515152
 1  8.26680091779178  3.20384904690469  0.27305408250825
 1 -8.18077903010301 -2.98700575967597 -1.82384907850785
 1 -8.58113910221022 -2.98889207650765 -0.08441230193019
 1 -6.95593014561456 -3.31805445674567 -0.63287217241724
 1  6.25521638613861 -0.50820604740474 -0.02628464516452
 1 -6.06150813541354  0.12859479797980 -0.09040931773177
 1  4.68694205150515  2.29511795589559  0.89670257705771
 1 -5.06086618691869 -2.63810732713271 -0.47130927202720
 1  3.84730499719972 -0.37253182308231 -0.04565492709271
 1 -3.78830646184618  0.11430776067607 -0.24036590329033
 1  2.84831553095310  3.26625702180218  1.62770142544254
 1  1.32573977477748  2.55469620142014  0.94604433193319
 1  2.47948500730073  3.27196767026703 -0.15781975157516
 1 -3.03739560916092 -3.28457681358136 -1.48685369616962
 1 -3.07630923672367 -3.82868486138614  0.20099475087509
 1 -1.71274224552455 -3.76564689908991 -0.31596382278228
 1  0.39610201100110  1.18855477067707  0.48029867506751
 1 -1.27465855445545  0.02228021522152  0.14886716061606
 1  2.16147469196920 -1.35447449714972 -0.11038060226023
 1  0.15543605440544 -2.73353839613961 -0.18444930583058

