%nproc=4
%Mem=2GB
# td=(NStates=1) B3LYP/6-31G(d,p) 

TD

0 1
 6  12.17106144874487  0.44967556805681 -0.72711883078308
 6 -12.12483479757976 -0.13221826342634  0.77287646654665
 6  13.39988940164016 -0.51561122112211 -0.55463146214621
 6 -12.95001150105010  1.08265265676568  1.23803451785179
 6  13.02767508170817 -2.02600827322732 -0.54859661846185
 6 -13.31758635473547  1.93814232633263  0.19446981408141
 6  11.03667546144614 -0.02591832733273  0.18783632143214
 6 -10.95038270607061  0.37198708100810 -0.13985161996200
 6  12.08626306370637 -2.26983927792779  0.60837481378138
 6 -12.21120100270027  2.59414972317232 -0.54555289118912
 6  11.11248095609561 -1.21564361886189  0.77062363076308
 6 -11.04675947014701  1.51371699349935 -0.72709158285829
 6  11.55120570827083  0.44402552765277 -2.23573205180518
 6  12.61544495789579  1.85844990009001 -0.40457197619762
 6 -12.94965255605561 -1.17068418711871 -0.05158132823282
 6 -11.59590845884588 -0.79286245984598  2.03700184838484
 6  9.88839690229023  0.83388950255026  0.26466846734673
 6 -9.96090589748975 -0.66136867896790 -0.30575466326633
 6  10.14602877917792 -1.69283909560956  1.91552418731873
 6 -9.96249922012201  2.05401714081408 -1.69802126702670
 6  8.55596183588359  0.57835779197920  0.34085229142914
 6 -8.60219317771777 -0.42991285658566 -0.32579890279028
 6  7.44888345654565  1.41653045334533  0.37457006960696
 6 -7.45972486638664 -1.37613608870887 -0.35050544744474
 6  7.68578162786279  2.86803944114411  0.62933537053705
 6 -7.83159034723472 -2.77862787388739 -0.76023330093009
 6  6.21731563306331  0.87223161216122  0.27867002600260
 6 -6.14788339823982 -0.79231005360536 -0.23787589928993
 6  4.95571622232223  1.51473380528053  0.47943760276028
 6 -5.01453106490649 -1.57949392719272 -0.33439482108211
 6  3.72142085368537  0.91479904510451  0.28165011431143
 6 -3.73945933113311 -1.02970360306031 -0.27870030773077
 6  2.40618391979198  1.43262397009701  0.26534102200220
 6 -2.54820381978198 -1.72096715541554 -0.29803308340834
 6  2.22763713531353  2.89430879737974  0.65154952825283
 6 -2.59701024642464 -3.27767129362936 -0.58283963406341
 6  1.25791734023402  0.65990733233323  0.09407432443244
 6 -1.39405757885789 -0.95135370737074 -0.07986669176918
 6  1.07822219441944 -0.67455240244024 -0.12383990369037
 6 -0.09455891629163 -1.46705294509451 -0.19755351135114
 1  13.82781288708871 -0.21907947844784  0.26954499739974
 1  14.13774078787879 -0.11776015171517 -1.26516005440544
 1 -12.20170653565357  1.69215160536054  2.05052861766177
 1 -13.79574043164317  0.62103159545955  1.82754919301930
 1  13.89812043404340 -2.69397021472147 -0.58201164696470
 1  12.52957883958396 -2.30271417141714 -1.61270739403940
 1 -13.94183757195720  2.59025238523852  0.67643868146815
 1 -14.02059684348435  1.53087276147615 -0.51156517861786
 1  12.86641860566057 -2.30281278787879  1.51047292929293
 1  11.68963641814181 -3.40846453855386  0.52569942554255
 1 -11.84839463156316  3.43253097379738  0.08808532553255
 1 -12.46797301120112  2.92725623342334 -1.49358325952595
 1  11.06129950045004 -0.55466854415442 -2.43732186488649
 1  12.48628550925092  0.87116177747775 -2.67316389038904
 1  10.43966153745374  0.90929404110411 -2.17373809330933
 1  13.04963591769177  1.68698560046005  0.74232157265727
 1  11.84517292419242  2.74504441534153 -0.51469562656266
 1  13.51551340764076  2.13974424432443 -1.07410968206821
 1 -13.33315254595460 -0.79392340134013 -1.02065816651665
 1 -13.53826599919992 -1.79271507570757  0.73671089178918
 1 -12.33321092429243 -2.24415282018202 -0.22709859235924
 1 -10.89810230113011 -0.14751039043904  2.69576923602360
 1 -10.99190571597160 -1.66295729642964  1.75150916711671
 1 -12.65389945394539 -1.24826929482948  2.56724525262526
 1  10.09317272387239  1.91558641874187  0.18976488438844
 1 -10.40205465016501 -1.73733884388439  0.06793041504150
 1  9.79708378587859 -0.61577917261726  2.28048180578058
 1  10.88486930103010 -2.17382358025803  2.64541597159716
 1  9.51467353455346 -2.60604045404540  1.72519214081408
 1 -9.43950098539854  1.23431574417442 -1.94377687458746
 1 -9.28471327622762  2.91743526552655 -1.20157020322032
 1 -10.34306457145715  2.79453445884588 -2.57947792109211
 1  8.09895548634863 -0.52133291349135  0.47745079467947
 1 -8.20058345354535  0.70557475157516 -0.47454110661066
 1  8.07945117721772  3.09864490039004  1.70867024952495
 1  6.73883576427643  3.38103580778078  0.73735631533153
 1  8.38540277797780  3.31106976897690 -0.00393361626163
 1 -8.43913486568657 -2.69573663276328 -1.75394208780878
 1 -8.65550653895390 -3.17971115841584 -0.02805666636664
 1 -6.88661321392139 -3.52209486078608 -0.62668155335534
 1  6.14682554705471 -0.23690891769177  0.10921890519052
 1 -6.09752173677368  0.27178911741174 -0.12919319611961
 1  5.12816617391739  2.64640308440844  0.57527043384338
 1 -5.15435553585359 -2.58690220662066 -0.74826696779678
 1  3.73968423512351 -0.13342791269127  0.25006464486449
 1 -3.66094372557256 -0.10363403350335  0.09921805510551
 1  2.85763646304630  3.11767216331633  1.52047070237024
 1  1.36362356315632  3.28807953975398  0.63187291479148
 1  2.78681574037404  3.54113458695870 -0.23353732333233
 1 -3.17027889748975 -3.40575893179318 -1.48873388418842
 1 -3.04779638543854 -3.64231622452245  0.29691434283428
 1 -1.63546451775177 -3.82253258765877 -0.66138836523652
 1  0.35190759155916  1.33108902410241 -0.12297165196520
 1 -1.57340842944294  0.10482847004700  0.23612588648865
 1  2.06458500300030 -1.31757080678068 -0.18494805900590
 1 -0.06711620082008 -2.41101614391439 -0.40344120502050

