%nproc=4
%Mem=2GB
# td=(NStates=1) B3LYP/6-31G(d,p) 

TD

0 1
 6  12.16155049764977  0.52169276977698 -0.58959507840784
 6 -12.08746106020602  0.02548750715072  0.88123730263026
 6  13.39903931663166 -0.28787844784478 -0.48920491949195
 6 -12.92414891479148  1.23521791329133  1.30995170957096
 6  13.24864717891789 -1.78926459885989 -0.43951571037104
 6 -13.28916351245124  2.23989250135013  0.16473684078408
 6  10.96544833873387  0.05717998249825  0.36441397919792
 6 -11.00474814261426  0.49212909520952 -0.06918455325533
 6  12.37080151755175 -2.10935322932293  0.72824680098010
 6 -11.99396927952795  2.66672698089809 -0.57405574147415
 6  11.11561126912691 -1.16165822032203  0.93290985938594
 6 -10.95784057825782  1.59959558135814 -0.63679255295530
 6  11.54823541124112  0.59471059615962 -2.09300777937794
 6  12.60634404780478  2.09288334343434 -0.31679319831983
 6 -13.00405799659966 -0.99788690739074  0.16363019291929
 6 -11.54136300430043 -0.73111628522852  2.11648979717972
 6  9.87578564116412  0.93308942254225  0.46434843534353
 6 -9.88406821372137 -0.58447098919892 -0.20706479427943
 6  10.08640281658166 -1.65440525222522  1.84990762566257
 6 -9.84333730393039  2.01001274037404 -1.60096156105611
 6  8.60442668236824  0.54480443664366  0.37491569776978
 6 -8.54879783818382 -0.37909777507751 -0.10508683158316
 6  7.33213178137814  1.29754855515552  0.29920253285329
 6 -7.51555044894489 -1.41954042914291 -0.38712910981098
 6  7.55812886258626  2.73637627482748  0.61219365636564
 6 -8.10378756695670 -2.77118712981298 -0.69836711431143
 6  6.13033693519352  0.75424981398140  0.13843600260026
 6 -6.26000461036104 -1.03167398999900 -0.17824993669367
 6  4.88738938963896  1.36631896379638  0.18598825782578
 6 -5.05279489128913 -1.71740771857186 -0.35859724132413
 6  3.59317802940294  0.67636520172017  0.01175312461246
 6 -3.73768915411541 -1.18631926462646 -0.36417885558556
 6  2.33409671107111  1.24242495019502  0.15124961286129
 6 -2.55745474487449 -1.98357341604160 -0.44242752285229
 6  2.31148552015202  2.69762912941294  0.53123749704970
 6 -2.54363490889089 -3.44453798029803 -0.71978332843284
 6  1.15282683118312  0.56570791239124 -0.06480156315632
 6 -1.38877705080508 -1.14254282628263 -0.22732143724372
 6  1.14308868106811 -0.85270021722172 -0.38741626132613
 6 -0.00810027042704 -1.51418765856586 -0.44952870887089
 1  13.83379348514852 -0.04908247874788  0.39395743864386
 1  14.15021203500350  0.14589621392139 -1.27511104950495
 1 -12.44779114411441  1.79225161536154  2.01420498529853
 1 -13.93905476307631  0.80120961326133  1.62401883998400
 1  14.15944656665667 -2.38111892959296 -0.34285773157316
 1  12.77744362606261 -2.04847874787479 -1.35306142944294
 1 -14.00431381958196  3.12989634963496  0.54288532613261
 1 -13.91978676247625  1.63024269846985 -0.47894191629163
 1  13.04685664946495 -1.91231373797380  1.56855873787379
 1  11.96159361386139 -3.16350004210421  0.81304816041604
 1 -11.55641543364336  3.47510523122312  0.15195171217122
 1 -12.05728194209421  3.18945245304530 -1.45168907010701
 1  11.42812618311831 -0.42117519481948 -2.49489762246225
 1  12.19377625832583  1.32372703400340 -2.59313588758876
 1  10.51302887418742  0.99823293499350 -2.03436415591559
 1  13.13832478657866  2.28664556645665  0.63917125762576
 1  11.64390279717972  2.68229814071407 -0.63107726472647
 1  13.37117897419742  2.32143241314131 -0.95282755385539
 1 -13.31487071777178 -0.62617662666267 -0.74110021072107
 1 -13.87467964056406 -1.43187899209921  0.77134435513551
 1 -12.30998860206021 -1.88674707960796 -0.08958484098410
 1 -10.84281677257726 -0.02339797919792  2.65520517961796
 1 -11.11948847424742 -1.71111211191119  1.65688970517052
 1 -12.34758882288229 -0.92993746164616  2.87944647274727
 1  9.91263467006701  2.01279613971397  0.64005991389139
 1 -9.99194363906391 -1.64101921192119 -0.45467184518452
 1  9.35582966046605 -0.82175977067707  2.33753751135113
 1  10.37921873597360 -2.30500669856986  2.67852928292829
 1  9.27050911811181 -2.58464831483148  1.53520314191419
 1 -9.04817185248525  1.17367968056806 -1.74018651555155
 1 -9.40546535143514  2.99771329332933 -1.07461750795080
 1 -10.40718098309831  2.25806081148115 -2.57200717401740
 1  8.30287587838784 -0.48466924712471  0.30543359295930
 1 -8.05003839903990  0.52798699279928  0.31890823832383
 1  8.26286951905190  2.71864690059006  1.46368575107511
 1  6.67908978967897  3.34297200140014  1.02965554525453
 1  8.07302153985399  3.34998366036604 -0.06349957285729
 1 -8.39522047424743 -2.83888094719472 -1.88515520912091
 1 -8.98940992929293 -3.02410559785979 -0.13518737943794
 1 -7.29521407400740 -3.53136578787879 -0.64704358955896
 1  6.14733559805981 -0.38041326812681 -0.12151416811681
 1 -6.05747773237324  0.21363330183018  0.23818354155416
 1  4.90212356965697  2.50751919601960  0.37528043484348
 1 -5.17105720602060 -2.68375189158916 -0.54591673277328
 1  3.69040930763076 -0.36689125902590 -0.23239360096010
 1 -3.61392902410241 -0.18970264036404 -0.35259712641264
 1  2.91191189058906  2.82144254035403  1.56751540684068
 1  1.26740394119412  3.19879061086109  0.72191191869187
 1  2.81594865366537  3.32539301280128 -0.22386635623562
 1 -3.12785465506551 -3.58668702460246 -1.52418742954295
 1 -3.13210481628163 -3.99162115501550  0.24335898729873
 1 -1.60741171247125 -3.70875120952095 -0.83541576797680
 1  0.12845524632463  1.22669858505851  0.05873651885188
 1 -1.50338142674267 -0.15763777657766 -0.13534126022602
 1  2.26322486698670 -1.05045409510951 -0.69928949314932
 1  0.17408791959196 -2.69895493779378 -0.54184504540454

