%nproc=4
%Mem=2GB
# td=(NStates=1) B3LYP/6-31G(d,p) 

TD

0 1
 6  12.26524086668667  0.49600020052005 -0.70664678357836
 6 -12.05362767686769 -0.08076311791179  1.01782096099610
 6  13.52975238793879 -0.37894755475548 -0.43375937493749
 6 -13.01228772867287  1.01427581908191  1.39138985338534
 6  13.27977029122912 -1.87577324972497 -0.46657841664166
 6 -13.47590218631863  1.92384089618962  0.23932429952995
 6  11.00215200910091 -0.04164990049005  0.18142568036804
 6 -11.15373304110411  0.32669255155516 -0.17902553735374
 6  12.27566200360036 -2.14869716371637  0.73884786108611
 6 -12.29189907250725  2.51904221242124 -0.62239057495750
 6  11.08091779977998 -1.24152620712071  0.83410997939794
 6 -11.07542233643364  1.49556517831783 -0.84589346304630
 6  11.73429401710171  0.36842796789679 -2.13448192679268
 6  12.48153156655666  1.95552960806081 -0.45957747674767
 6 -12.90039763056306 -1.17480459915992  0.39064289418942
 6 -11.36735560356036 -0.55300847444744  2.30821897009701
 6  9.86120418301830  0.85441155475548  0.29827182768277
 6 -9.99022882978298 -0.68861140324032 -0.31318540634063
 6  10.14797897419742 -1.70893070477048  1.92506514141414
 6 -10.05422839303930  1.90372211131113 -1.88489995489549
 6  8.55445168486849  0.44394435063506  0.29339754595460
 6 -8.62124508290829 -0.30118998429843 -0.25446176907691
 6  7.45763433163316  1.33830263056306  0.45141775437544
 6 -7.51242013591359 -1.27091556665667 -0.45311570847085
 6  7.66653970367037  2.74717735493549  0.74659709670967
 6 -7.88764595279528 -2.68068807990799 -0.70427770537054
 6  6.21762566406641  0.74494888388839  0.36346850585058
 6 -6.23785239513951 -0.77280810341034 -0.35171728342834
 6  4.90977162786279  1.25653798569857  0.46419607860786
 6 -5.11962157395740 -1.62663864166417 -0.50604198579858
 6  3.67214592619262  0.77285485068507  0.22903485278528
 6 -3.86022140734073 -1.04839547224722 -0.37482992069207
 6  2.36216951835184  1.41013172087209  0.30181466936694
 6 -2.56777577697770 -1.63522858155816 -0.35960924102410
 6  2.38791316291629  2.87157652415241  0.54468884218422
 6 -2.51003154855486 -3.11854538103810 -0.94303565366537
 6  1.24289583808381  0.68034937653765  0.00443536053605
 6 -1.38712688578858 -0.94399297129713 -0.25756446154615
 6  1.06837120932093 -0.64749969716972 -0.15509302900290
 6 -0.04942440284028 -1.41979821962196 -0.36065982198220
 1  14.15989609540954 -0.15202277277728  0.61700974387439
 1  14.35074208800880 -0.07074545024502 -1.17621115951595
 1 -12.42527889288929  1.73755614581458  2.13043660846085
 1 -13.74093495109511  0.59260875317532  1.77694413251325
 1  14.24711533353335 -2.52926374407441 -0.50989443524352
 1  12.86675255695570 -2.13166706670667 -1.51157728102810
 1 -14.20816420462046  2.85239859985999  0.35709674727473
 1 -14.18027281108111  1.22035170937094 -0.47345136723672
 1  12.77491945574558 -2.29968247484749  1.62676455845585
 1  11.84801225572557 -3.28352204430443  0.35712256785679
 1 -11.87188698079808  3.18742646334633  0.01131764876488
 1 -12.88398461236124  2.76333984178418 -1.58098199939994
 1  11.56983035353535 -0.67867094439444 -2.37895602830283
 1  12.37583446414641  0.97662232353235 -2.78087466146615
 1  10.57745531683168  0.76468958065807 -2.13524424392439
 1  12.59557051115112  2.21822872477248  0.61934927542754
 1  11.65039344624462  2.81111102200220 -0.83421757875788
 1  13.35293715001500  2.31806207610761 -1.04923719481948
 1 -13.24443367406741 -0.85456946594659 -0.46636273697370
 1 -13.93700587318732 -1.36807261146115  1.08837605830583
 1 -12.31763936713671 -2.02364076897690  0.38870298779878
 1 -10.77017950885089  0.31112547314731  2.62645230433043
 1 -10.70414694009401 -1.30550155085509  1.98981299749975
 1 -12.00315437943794 -0.89528399629963  3.14037256535654
 1  10.04657806440644  1.87938279837984  0.44174008190819
 1 -10.08556300100010 -1.69543465346535 -0.44325070307031
 1  9.65586966446645 -0.79415701040104  2.27282103970397
 1  10.64144495859586 -2.13503970187019  2.84188561856186
 1  9.50044211141114 -2.46149599959996  1.46590621222122
 1 -9.45112214751475  1.02337465006501 -2.05284778167817
 1 -9.61521632653265  2.79415293729373 -1.48079812601260
 1 -10.71164142914292  2.21527653305330 -2.82303227652765
 1  8.30649624042404 -0.77936871707171  0.05638868846885
 1 -8.09598299349935  0.66359055315532 -0.19350300280028
 1  7.99516274837484  2.90340537643764  1.88378776127613
 1  6.74144602530253  3.24306201040104  0.58254083378338
 1  8.43934817251725  3.11800046204620  0.01038781588159
 1 -8.62659361156116 -2.72381944104410 -1.50275696929693
 1 -8.16348733703370 -3.23856704400440  0.11903804310431
 1 -6.88429298189819 -3.35054770607061 -0.92897178237824
 1  6.31619248374837 -0.30234546134613 -0.07061907860786
 1 -6.16462844744474  0.40034197269727 -0.07507778457846
 1  4.80822417971797  2.39200764486449  0.85658856565657
 1 -5.14393449374938 -2.66584010041004 -0.70150229132913
 1  3.69167943464346 -0.34626919681968 -0.07952831443144
 1 -3.55886351755175  0.02938926882688 -0.32007387408741
 1  3.05993669306931  3.16283667976798  1.40013866916692
 1  1.31287848864886  3.22865359715972  0.73452317981798
 1  2.74183124192419  3.39859033253325 -0.25468943854385
 1 -2.76021789138914 -3.33203155905591 -1.99975498629863
 1 -3.16883848964896 -3.63604559745975 -0.23972932153215
 1 -1.36467743904390 -3.60661099549955 -0.73736596299630
 1  0.17837023782378  1.23531944714471  0.23242388758876
 1 -1.41882297089709  0.17698568576858 -0.16611433753375
 1  2.04598314281428 -1.10856990669067 -0.12248181238124
 1  0.07005751655166 -2.47565260756076 -0.49148000890089

