%nproc=4
%Mem=2GB
# td=(NStates=1) B3LYP/6-31G(d,p) 

TD

0 1
 6  12.20226456905690  0.48990959145915 -0.64069018791879
 6 -12.21967428152815 -0.04596963856386  0.88906808570857
 6  13.46925633833383 -0.40854051405141 -0.60787678667867
 6 -12.94124062396240  1.16466085758576  1.26752746714671
 6  13.05731804600460 -1.86993266566657 -0.64086584538454
 6 -13.26575117121712  2.16616512861286  0.08973934103410
 6  11.06970876477648 -0.03325906140614  0.22788032583258
 6 -11.00336800460046  0.29222910521052 -0.07845548034803
 6  12.19839427682768 -2.24102639663966  0.55926990329033
 6 -11.99661954455446  2.61630193839384 -0.54174251015102
 6  11.14994470247025 -1.21658371287129  0.88347491589159
 6 -11.05497029122912  1.43893951575158 -0.82844171787179
 6  11.61731231893189  0.64753587868787 -2.14170264886489
 6  12.60475388878888  1.96858091319132 -0.15057657665767
 6 -13.09504709550955 -1.11465858455846  0.26274010391039
 6 -11.56227509550955 -0.63713688728873  2.21489963816382
 6  9.85964402700270  0.83054916851685  0.36757875837584
 6 -9.89962976987699 -0.55588813091309 -0.24737882568257
 6  10.05918009430943 -1.72380219191919  1.90081271617162
 6 -10.01929489968997  1.90559229832983 -1.83694515941594
 6  8.62042828252825  0.55957591379138  0.29306751295130
 6 -8.61370432883288 -0.39423928922892 -0.04882120502050
 6  7.45721428962896  1.38298709900990  0.40668328092809
 6 -7.52227112101210 -1.32945142024202 -0.25351574847485
 6  7.67319036873687  2.87436007320732  0.77592002900290
 6 -7.87995518371837 -2.83520353145315 -0.63348062566257
 6  6.16770067156716  0.75331972097210  0.30875303430343
 6 -6.22060066996700 -0.92551337393739 -0.33982609430943
 6  4.89410006070607  1.35717804970497  0.33674333333333
 6 -5.01115072687269 -1.67832381018102 -0.46337771937194
 6  3.67436614821482  0.76236380158016  0.12321427072707
 6 -3.86854223942394 -1.08065869856986 -0.40343278097810
 6  2.39583288468847  1.37240794849485  0.21716620452045
 6 -2.55247424682468 -1.74017907660766 -0.46609989008901
 6  2.15536990859086  2.86473584008401  0.51746611991199
 6 -2.58704925032503 -3.30603412991299 -0.68302965306531
 6  1.32110365886589  0.65733707530753  0.05552046904690
 6 -1.39131730483048 -1.04937350935093 -0.28367707280728
 6  1.20992536473647 -0.84671961916192 -0.17842536223622
 6 -0.02465192559256 -1.45006124592459 -0.32087584358436
 1  14.00218032383238 -0.11587915841584  0.36072411531153
 1  14.05321233503350 -0.10979935563556 -1.33031657005701
 1 -12.31868823382338  1.68357074727473  1.98339190399040
 1 -13.89966082368237  0.73639313161316  1.64729116721672
 1  13.99802042404241 -2.53283410111011 -0.61012445824582
 1  12.57198308000800 -2.10513441344134 -1.54976109940994
 1 -13.92116550475047  2.94137749774978  0.30003104070407
 1 -13.83475825962596  1.62045171937194 -0.50490451255126
 1  12.95170713451345 -2.29371187778778  1.41883376537654
 1  11.87439489398940 -3.43528722082208  0.42621947754775
 1 -11.51886167826783  3.48738645934593 -0.11109459245925
 1 -12.31321753565357  2.97418092589259 -1.51969587078708
 1  10.80916428692869 -0.30631370867087 -2.47205533823382
 1  12.45168204890489  0.96436109740974 -2.72396897089709
 1  10.89939751105110  1.49158226992699 -2.18853957345735
 1  13.01231218531853  1.92499940184018  0.89662700320032
 1  11.64473288018802  2.72161207210721 -0.25056921392139
 1  13.57253911021102  2.44903517341734 -0.88199047014702
 1 -13.35523475417542 -0.67513152215222 -0.83122922362236
 1 -13.84115628822882 -1.35749155335534  0.97498471917192
 1 -12.65696329952995 -2.16217462236224 -0.07719360186019
 1 -10.97308979987999  0.21531589218922  2.56665632473247
 1 -11.04261078647865 -1.50362136283628  1.89528354455446
 1 -12.34845890989099 -0.99548401630163  2.99413794189419
 1  10.19380278687869  1.95340020012001  0.39684559245925
 1 -10.13250769546955 -1.60768587858786 -0.47561393939394
 1  9.38074215171517 -0.95395298999900  2.08035179277928
 1  10.49537035113511 -2.15696189408941  2.89826125612561
 1  9.59118118531853 -2.61946179617962  1.41103072467247
 1 -9.24332136743674  1.14054636723672 -2.21106360326033
 1 -9.25015982088209  2.67763128512851 -1.59298934513451
 1 -10.62070233523352  2.34543954935494 -2.75373534683468
 1  8.35504109490949 -0.46489726992699  0.39819286888689
 1 -8.33568696389639  0.60190438453845  0.17071341884188
 1  8.34411764386439  3.17043207910791  1.58283766626663
 1  6.64716659735974  3.22656036023602  1.06921950165017
 1  7.97848208590859  3.31166982898290 -0.16201942484248
 1 -8.49570052225223 -2.90638769786979 -1.61898859245925
 1 -8.45587657595760 -3.06818000530053  0.29801594089409
 1 -6.97333188578858 -3.39685233653365 -0.71575046024602
 1  6.26249711421142 -0.28462368916892  0.07530551385139
 1 -6.25867785238524  0.11315325382538 -0.04035431223122
 1  4.98702205950595  2.41011945604560  0.65946885368537
 1 -5.03693379367937 -2.88603211961196 -0.36140828192819
 1  3.86275654235424 -0.37232180208021  0.08130776917692
 1 -4.03275090629063  0.12775910581058 -0.15019688638864
 1  2.40526122552255  3.00594099019902  1.68821747704770
 1  1.09424662546255  3.17395812761276  0.62110183768377
 1  2.60299735853585  3.66045651915192 -0.00784475407541
 1 -2.94197606720672 -3.50589894579458 -1.57827283808381
 1 -3.15461706750675 -3.75996798969897  0.26725137653765
 1 -1.53630460176018 -3.58610894529453 -0.74579680608061
 1  0.23359576037604  1.06449236443644 -0.03738309310931
 1 -1.45239632823282  0.06441442864286 -0.27399512561256
 1  2.20504904940494 -1.22361141084108 -0.20797036123612
 1  0.20888139893989 -2.70568561086109 -0.10869173007301

