%nproc=4
%Mem=2GB
# td=(NStates=1) B3LYP/6-31G(d,p) 

TD

0 1
 6  12.16147048964896  0.58219882038204 -0.65636175507551
 6 -12.11987430153015 -0.02252729432943  0.96827600650065
 6  13.56307572027203 -0.16057571757176 -0.45072107110711
 6 -12.98858535843584  1.05072946444644  1.45582629702970
 6  13.28927124132413 -1.75720139253925 -0.36915867466747
 6 -13.41568616471647  1.98262677477748  0.21622198929893
 6  11.02750454435444 -0.01566730223022  0.27420495829583
 6 -10.98618628642864  0.48051793409341 -0.04166180098010
 6  12.31873631103110 -2.14266656065607  0.71548552485249
 6 -12.21924180678068  2.54119442764276 -0.59184752065207
 6  11.14344405240524 -1.13949600410041  0.94107067546755
 6 -10.99659445364536  1.67719334113411 -0.69876875057506
 6  11.84464505220522  0.57485861096110 -2.05096357495750
 6  12.42267568096810  1.97789184428443 -0.13852537153715
 6 -13.02227981878188 -1.01465858455846  0.40539436933693
 6 -11.44874374237424 -0.54199737333733  2.28975712391239
 6  9.81773983658366  0.85808192179218  0.46768876937694
 6 -9.93262306920692 -0.59838238033803 -0.25221930973097
 6  10.20540471677168 -1.76622643434343  1.94432706760676
 6 -10.17151012121212  2.14859659875988 -1.86806827172717
 6  8.53795003470347  0.43708366456646  0.36500470667067
 6 -8.63204616301630 -0.34404426972697 -0.11013733663366
 6  7.39562813101310  1.28818761906191  0.44066667926793
 6 -7.56161505540554 -1.34089256435644 -0.30029042594259
 6  7.48875192489249  2.76724936213621  0.70583302030203
 6 -7.93460064826483 -2.78268827992799 -0.54820209780978
 6  6.16798069956996  0.73473786278628  0.28068022702270
 6 -6.27398600850085 -0.91078190079008 -0.14080619231923
 6  4.90148079877988  1.30784311621162  0.21307096609661
 6 -5.04401401320132 -1.68302428022802 -0.40994237583758
 6  3.66892560416042  0.58811637683768  0.18232018131813
 6 -3.75577096229623 -1.06807744044404 -0.47307974567457
 6  2.43624692609261  1.23565427312731  0.10258474637464
 6 -2.46449544894489 -1.81862692139214 -0.64356763686369
 6  2.35476984858486  2.78801816831683  0.19175354865487
 6 -2.60027057245725 -3.27318084458446 -1.01956330643064
 6  1.30813236173617  0.53235457705771 -0.21618670167017
 6 -1.31301947504750 -1.10502907490749 -0.43498220332033
 6  1.13821819401940 -0.92382732993299 -0.37001452115212
 6 -0.06242570297030 -1.52194843464346 -0.43792754875488
 1  14.10917102290229  0.11019344884488  0.45045308820882
 1  14.19746676047605  0.08288991329133 -1.26094963336334
 1 -12.47572393739374  1.69759214941494  2.04472803760376
 1 -13.93821467906791  0.74511400370037  1.94558099619962
 1  14.42013263526353 -2.30238105580558 -0.43312675847585
 1  12.83832971467147 -1.99972387238724 -1.40977710101010
 1 -14.29210259845985  2.64841820182018  0.39168020562056
 1 -13.92752753655366  1.15417509170917 -0.54343836593659
 1  12.90753271707171 -2.05890839743974  1.79698158015802
 1  12.05004245874587 -3.19690338243824  0.72750960656066
 1 -11.88179797189719  3.59464718541854 -0.13600708370837
 1 -12.46608282218222  3.02564607240724 -1.58662256345635
 1  11.26032940344034 -0.40958403570357 -2.29770790349035
 1  12.62874975567557  0.82423708500850 -2.68330490449045
 1  10.90074764606461  1.23851696339634 -2.34186490599060
 1  12.71829278337834  2.03033993589359  0.79252659315932
 1  11.70666907380738  2.82298220912091 -0.39476363336334
 1  13.28753060936094  2.25880615051505 -0.88980125122512
 1 -13.38549778047805 -0.52652666166617 -0.56326242694269
 1 -13.88432060466047 -1.24761056525653  0.84434165486549
 1 -12.46396399959996 -2.01268967386739  0.43530764826483
 1 -10.74649714061406  0.28855321592159  2.66793645274528
 1 -10.77093361876188 -1.49218021872187  2.00623463966397
 1 -12.12343640764076 -1.00702517041704  3.06985551365136
 1  10.12059546614662  1.89687454755476  0.27087299519952
 1 -10.27754219891989 -1.57334244424442 -0.18861523952395
 1  9.39170324782478 -1.10575817051705  2.33183694129413
 1  10.63890470457046 -2.25566176407641  2.81863329332933
 1  9.59597166436644 -2.56762661266127  1.45142476407641
 1 -9.26594362966297  1.45206751935194 -2.40340283718372
 1 -9.68108291319132  2.95931945394539 -1.37675772197220
 1 -10.77727799279928  2.46699170457046 -2.62304227752775
 1  8.23142873367337 -0.54686546674667  0.40023307290729
 1 -8.23006640184019  0.77438163226323 -0.01635528802880
 1  7.84250748284829  3.02190722662266  1.59599898239824
 1  6.61006288698870  3.40643834803480  0.77397997769777
 1  8.10731496919692  3.43633229522952  0.12320909800980
 1 -8.45710666286629 -2.71701876097610 -1.36611330493049
 1 -8.84805579387939 -3.04369755705571  0.14571071037104
 1 -7.20929548214821 -3.52528517981798 -0.34742362756276
 1  6.22346321082108 -0.33504873167317  0.18297628092809
 1 -6.01990397499750  0.00939287778778  0.35093481668167
 1  4.84193755105511  2.39599804390439  0.27391029782978
 1 -5.14980508080808 -2.66804032043204 -0.71133327442744
 1  3.60130039673967 -0.46128069796980  0.04505414381438
 1 -3.95366299749975 -0.00337400750075 -0.53420528722872
 1  2.48337903730373  2.81469186528653  1.25871452675268
 1  1.36772397319732  3.38053878567857 -0.17018729122912
 1  3.28227528632863  3.36085655915592 -0.29044301390139
 1 -3.15024689428943 -3.62330068596860 -1.97408241904190
 1 -3.22237384318432 -3.76959895279528 -0.12782813141314
 1 -1.54724569586959 -3.86893722812281 -0.99364159055906
 1  0.29192159295930  0.96936285148515 -0.08399775457546
 1 -1.38147923652365 -0.12494450725072 -0.14364209030903
 1  2.01649019351935 -1.54759380908091 -0.32352191639164
 1 -0.05129461866187 -2.68435347764777 -0.67397825872587

