%nproc=4
%Mem=2GB
# td=(NStates=1) B3LYP/6-31G(d,p) 

TD

0 1
 6  12.14686902950295  0.50493109360936 -0.75853197209721
 6 -12.09359167326733 -0.12008705030503  0.85720489938994
 6  13.35058447114712 -0.31032069206921 -0.61790778977898
 6 -13.11556805670567  1.03230762226223  1.11876259065907
 6  13.12335464966497 -1.83309898229823 -0.64001576037604
 6 -13.57269186528653  1.96037454955496 -0.05127476037604
 6  11.01256305020502  0.02949721422142  0.12454999279928
 6 -10.99433710151015  0.50202008430843 -0.02884051885189
 6  12.20946538393839 -2.12532482648265  0.63654763106311
 6 -12.26888677127713  2.62887319551955 -0.64692302820282
 6  11.10719042704270 -1.15051710621062  0.77478404680468
 6 -11.09352414661466  1.68332395419542 -0.87629650335033
 6  11.67186777447745  0.59976110121012 -2.18641712031203
 6  12.57308072147215  1.97699175427543 -0.35013653265327
 6 -12.91584917571757 -1.18112523122312  0.11501533143314
 6 -11.45590445844584 -0.64255742934293  2.00885903410341
 6  9.88762682528253  0.94582069566957  0.25704770527053
 6 -9.86498630553055 -0.44444698679868 -0.27262134993499
 6  10.08403257955796 -1.66250606230623  1.72374500940094
 6 -10.12376534673467  2.06362810191019 -1.77752921782178
 6  8.66926316601660  0.48386834303430  0.15631383758376
 6 -8.50925388378838 -0.17789765506551 -0.33638996189619
 6  7.40936950515052  1.31536033633363  0.34511712431243
 6 -7.55363425732573 -1.24116259135914 -0.34973537043704
 6  7.67056010571057  2.83789642684268  0.55711814881488
 6 -7.80596778497850 -2.64187419851985 -0.60268754635464
 6  6.23462736423642  0.66442083108311  0.39167132613261
 6 -6.23202181208121 -0.84432525512551 -0.16367847954795
 6  4.91165181588159  1.30471280318032  0.56812647164716
 6 -5.00887049884989 -1.60069604740474 -0.31080246184618
 6  3.73689240084008  0.61664923012301  0.31076302560256
 6 -3.72712809800980 -1.15089572227223 -0.39846228392839
 6  2.37853115451545  1.31927263496350  0.50811529942994
 6 -2.53859285868587 -1.84684974367437 -0.39861314141414
 6  2.23079745134513  2.77090645714571  0.82147652095210
 6 -2.57528807420742 -3.39458298479848 -0.54798614871487
 6  1.27893944244424  0.48286962856286  0.44003892089209
 6 -1.32083025612561 -1.07805637763776 -0.23095180028003
 6  1.18163253545355 -0.95436038323832  0.13379585988599
 6  0.00480101970197 -1.61521776157616 -0.17246100210021
 1  13.87448755455546 -0.11285885638564  0.28707675057506
 1  14.12123913771377 -0.19175755145515 -1.53277681608161
 1 -12.59592595759576  1.71154354455446  1.85512907770777
 1 -13.93148400600060  0.63591308360836  1.85385182328233
 1  14.08505912791279 -2.42138295599560 -0.58449189498950
 1  12.53266914861486 -2.04519841984198 -1.47388351165116
 1 -14.28843223142314  2.75289864986499  0.16041707930793
 1 -13.96421120492049  1.28278795299530 -0.84223824592459
 1  12.80918288208821 -2.26415892249225  1.42875475747575
 1  11.81281873637364 -3.18284197629763  0.51196805240524
 1 -11.98694848694869  3.57493521422142 -0.15694917791779
 1 -12.64836105000500  2.99341284908491 -1.63811771297130
 1  11.54380775127513 -0.42035511281128 -2.24050218291829
 1  12.34500138083808  1.17497215851585 -3.03034960896090
 1  10.53662123342334  1.14752786448645 -2.51757247674768
 1  12.77189814391439  1.98439534143414  0.76282362286229
 1  11.86598500540054  2.79034894579458 -0.61410556755676
 1  13.61364322062206  2.01976224612461 -0.82989526062606
 1 -13.46037526822682 -0.66094010301030 -0.59658575927593
 1 -13.55998817141714 -1.95444124832483  0.89667688838884
 1 -11.97652525572557 -1.85368377327733 -0.60698658115812
 1 -10.86869936083608  0.06323068366837  2.75963562266227
 1 -10.73312983838384 -1.41962296299630  1.86593060926093
 1 -12.31420548454845 -0.80763523142314  2.72624115221522
 1  10.16971037763776  1.95847070717072  0.37867377527753
 1 -10.24408885358536 -1.46750186018602 -0.34363074107411
 1  9.50526460396040 -0.88956655135514  2.39388314591459
 1  10.74601541564156 -2.18469466736674  2.35127655765577
 1  9.34140620782078 -2.41186103610361  1.43868348994900
 1 -9.28887592289229  1.33156546914691 -2.06707920482048
 1 -9.63487829272927  3.03642716471647 -1.18578862506251
 1 -10.81742200720072  2.31635664106411 -2.73698367166717
 1  8.67947353815381 -0.51577235743574 -0.18100505090509
 1 -8.04649804500450  0.84449864396440 -0.22185583808381
 1  8.03854708680868  2.97301233713371  1.58911829432943
 1  6.71181306200620  3.34580228442844  0.71590417011701
 1  8.14485872357236  3.35819448144815 -0.17736095899590
 1 -8.20424137633763 -2.87465452455246 -1.65823251685168
 1 -8.53082407070707 -3.03877706500650  0.18483462276228
 1 -6.98717326992699 -3.30190284158416 -0.59960884608461
 1  6.23808467296730 -0.39960518731873  0.28786676997700
 1 -5.93643562816282  0.24631657015702 -0.03376365316532
 1  4.93274663196320  2.38342678677868  0.65490839763976
 1 -5.10586068636864 -2.64433795019502 -0.60139228032803
 1  3.69732999969997 -0.43673824372437  0.04228386678668
 1 -3.72934056525653 -0.05818948904890  0.09685781908191
 1  2.79439013841384  2.96141653775378  1.63490214551455
 1  1.17094429522952  3.08295902770277  0.69011873937394
 1  2.83681073987399  3.15987646114611  0.19533556395640
 1 -3.29678154775478 -3.73314167006701 -1.34287929872987
 1 -3.00738234403440 -3.86421841474147  0.36334098549855
 1 -1.65359633093309 -3.90710104450445 -0.65331755815582
 1  0.31862426322632  0.89754566976698  0.60799144434443
 1 -1.60907199579958 -0.10777279007901 -0.25242296839684
 1  2.05036358085809 -1.55012406210621 -0.04822438663866
 1  0.02809332013201 -2.57815285758576 -0.51341220212021

