%nproc=4
%Mem=2GB
# td=(NStates=1) B3LYP/6-31G(d,p) 

TD

0 1
 6  12.29322366496650  0.48992959345935 -0.58570468936894
 6 -12.23222553665367 -0.14564960656066  0.71722090099010
 6  13.49533894659466 -0.34176383638364 -0.51535753475348
 6 -13.14951145104510  0.98634302580258  1.38169888428843
 6  13.18934124832483 -1.83887956035604 -0.63309506830683
 6 -13.51935653175317  2.04924343644364  0.25090545764576
 6  11.13535532943294 -0.11207694319432  0.23703124092409
 6 -11.03660132793279  0.39831971427143 -0.03897153195320
 6  12.33313775117512 -2.16005829982998  0.59645362166217
 6 -12.22159204180418  2.57402771097110 -0.42513084898490
 6  11.24653436143614 -1.28598065256526  0.84202077047705
 6 -11.12182697689769  1.61790741254125 -0.74141301500150
 6  11.78469905760576  0.63209433453345 -2.06866534513451
 6  12.70795420882088  1.91035509060906 -0.10728224722472
 6 -13.17656524732473 -1.19793691239124  0.12275610551055
 6 -11.53752262026203 -0.86769994359436  1.99400754895490
 6  9.92124018661866  0.85397151075107  0.35215721622162
 6 -9.91552135903590 -0.54538708080808 -0.41734582238224
 6  10.21591576787679 -1.72295210691069  1.79550218511851
 6 -10.02462543274327  2.08864060316032 -1.80963242814281
 6  8.63844008370837  0.49540949714971  0.22453065926593
 6 -8.59886284468447 -0.27568743404340 -0.21846816971697
 6  7.44338290649065  1.35213401370137  0.31994460706071
 6 -7.52815170907091 -1.31464994009401 -0.51400179707971
 6  7.57702075177518  2.81439407660766  0.78323076007601
 6 -7.88620580878088 -2.73117312841284 -0.69209648724872
 6  6.20600450195020  0.74643903290329  0.14704686368637
 6 -6.27156576647665 -0.76261708430843 -0.30491260296030
 6  4.95132578327833  1.32156448834883  0.22629228822882
 6 -5.03030264206421 -1.48180415821582 -0.32997437903790
 6  3.73430214181418  0.74780234543454 -0.01097914861486
 6 -3.80835622082208 -1.08142877557756 -0.27693013071307
 6  2.50470377177718  1.33029373707371  0.06679116701670
 6 -2.64525352475248 -1.74214927362736 -0.23513679377938
 6  2.33479785138514  2.80859022552255  0.29652402570257
 6 -2.63383392879288 -3.26454998149815 -0.32915426552655
 6  1.25720726922692  0.65845718731873 -0.01321640464046
 6 -1.43540171327133 -1.06550512251225 -0.13233193829383
 6  1.10495486768677 -0.73739868706871 -0.03015053475348
 6 -0.08028748914891 -1.49414565436544 -0.07743149914991
 1  14.16188629442944 -0.27125469596960  0.52316035893589
 1  14.17671468526853 -0.18797717341734 -1.40461399979998
 1 -12.76195256025603  1.41210360056006  2.19198276307631
 1 -13.98793965156516  0.68183767606761  1.82313875197520
 1  13.91119174117412 -2.50853167086709 -0.75455890169017
 1  12.49690557225723 -1.79152305230523 -1.54258038133813
 1 -14.08680206840684  2.80081344134413  0.77512855045505
 1 -14.10771555535554  1.44665433963396 -0.61564558665867
 1  12.96855881968197 -2.07276978357836  1.45760764276428
 1  12.17594504900490 -3.28275196729673  0.75979283488349
 1 -11.88310810291029  3.26816453715372  0.21516803380338
 1 -12.24844105800580  3.13855736353635 -1.19433333453345
 1  11.70667403790379 -0.37679075637564 -2.52485061776178
 1  12.74173105380538  1.17585224652465 -2.44183075707571
 1  10.94442201350135  1.26224933663366 -2.13055377487749
 1  12.90397135123512  2.00831773367337  0.98813615411541
 1  11.86835524242424  2.56163607450745 -0.42605676267627
 1  13.69369122542254  1.90261053095310 -0.67029930103010
 1 -13.71728095879588 -0.77661167016702 -0.76722282298230
 1 -13.85982815541554 -1.80241604580458  0.82314953565357
 1 -12.54657226042604 -2.02507091199120 -0.38422430493049
 1 -10.77492998389839 -0.30854649404940  2.48545820492049
 1 -11.34926145154516 -2.07309831053105  1.67230124632463
 1 -12.39125318931893 -0.84571903980398  2.74918344644464
 1  10.11474488108811  1.86251111121112  0.53976988488849
 1 -10.18364280898090 -1.67569267926793 -0.75512189018902
 1  9.58358243574358 -0.88064565926593  2.32747650525053
 1  10.94556537063706 -2.13870006790679  2.69258068806881
 1  9.62510457765777 -2.55584543454345  1.54106372797280
 1 -9.44439147444744  1.29392170477048 -2.25417791469147
 1 -9.40128493339334  2.74401792379238 -1.38580862706271
 1 -10.69389965496550  2.70464546994699 -2.52085205850585
 1  8.31895748654865 -0.63048382858286  0.11058410801080
 1 -8.35936933213321  0.73388758285829  0.05444179167917
 1  8.10236346844684  3.02282731863186  1.64924430693069
 1  6.64598647934794  3.41138884308431  0.80688326802680
 1  8.22254649234923  3.44350301230123  0.06009278637864
 1 -8.68952990519052 -2.65103216231623 -1.52240893449345
 1 -8.43671465976598 -3.10917410471047  0.29220535983598
 1 -7.14721927452745 -3.43088573987399 -0.91573045824582
 1  6.11702256675668 -0.27738296509651 -0.24765678237824
 1 -6.13142512711271  0.37251919041904 -0.35474575137514
 1  4.97146050335033  2.36405484958496  0.14746765356536
 1 -5.27909801010101 -2.68966248264827 -0.52385452655265
 1  3.81404167086709 -0.37750232013201 -0.06772713431343
 1 -3.67930556175618 -0.00618428852885  0.08934706800680
 1  2.93004370377038  3.25423581968197  1.23662231753175
 1  1.44470167096710  3.23157388918892  0.27903763126313
 1  2.83946100490049  3.53913438693869 -0.48357232683268
 1 -3.25324719431943 -3.56859521542154 -1.18761377217722
 1 -3.10007161296130 -3.53911590449045  0.56777142854285
 1 -1.78177914921492 -3.83934426882688 -0.26760898729873
 1  0.27994039483948  1.11487740294029  0.08833947914791
 1 -1.62126321492149  0.05510349754975 -0.13191091719172
 1  2.14125266976698 -1.19110816051605  0.08321875767577
 1 -0.05820530973097 -2.62076711901190 -0.00758161906191

