%nproc=4
%Mem=2GB
# td=(NStates=1) B3LYP/6-31G(d,p) 

TD

0 1
 6  12.08624296689669  0.52371297179718 -0.85463158205821
 6 -12.11366368046805 -0.05876091769177  0.86441562046205
 6  13.36005541824182 -0.40723038303830 -0.69858585758576
 6 -12.95675217511751  1.11853624512451  1.26869758415842
 6  13.05406772097210 -1.81666733913391 -0.54883664246425
 6 -13.40180477657766  2.02398091019102  0.13131349844985
 6  10.94340613451345  0.06072033653365  0.25359289708971
 6 -10.96055372317232  0.39570945324532 -0.07761539633963
 6  12.26149058645865 -2.08817111111111  0.77719169546955
 6 -12.08477836043604  2.58728903710371 -0.43048138403840
 6  11.09665937393739 -1.15500755525553  0.87886445484548
 6 -10.99741453565357  1.62668829062906 -0.77882675637564
 6  11.52067265496550  0.30295142024202 -2.27302578117812
 6  12.48759217261726  1.98705276037604 -0.63068458745875
 6 -12.93933152395240 -1.12061918061806  0.24079790969097
 6 -11.45650451845184 -0.65885905950595  2.14672282048205
 6  9.85373343594360  1.00099621322132  0.31415341584158
 6 -9.87293710061006 -0.49245178727873 -0.24328841664166
 6  10.21664584088409 -1.60375018671867  1.93620625552555
 6 -10.04062703290329  1.94714645374537 -1.83775524042404
 6  8.55326156585659  0.50552050825083  0.35296350255025
 6 -8.53352631103110 -0.29432929822982 -0.26717304020402
 6  7.38575714391439  1.28748754905491  0.56874948754875
 6 -7.44363325722572 -1.23980245534553 -0.43417381428143
 6  7.61631468116812  2.77559019621962  0.64822725972597
 6 -7.83386057425743 -2.65963597469747 -0.85530280788079
 6  6.12744664616462  0.70057444644464  0.39124128312831
 6 -6.24081269116912 -0.76152697529753 -0.41225333703370
 6  4.94085473617362  1.34776710861086  0.64754441344134
 6 -4.97293690549055 -1.60769674747475 -0.55532691429143
 6  3.69304801640164  0.78622618781878  0.26796874617462
 6 -3.67026241144114 -1.14017465016502 -0.46044848254825
 6  2.33034633603360  1.23582429012901  0.33276776467647
 6 -2.48089708910891 -1.79962502120212 -0.38822210231023
 6  2.13751812341234  2.77550691719172  0.72011638493849
 6 -2.50272081748175 -3.32478600510051 -0.68410976107611
 6  1.21525307380738  0.53347468906891  0.24537945494549
 6 -1.36032420552055 -1.11527009900990 -0.15254395949595
 6  1.14286865906591 -0.86568151535154 -0.10056757645765
 6  0.00968150775077 -1.64271051085109 -0.27667142314231
 1  13.96552665846585 -0.11459903040304  0.20354839773977
 1  14.01326834063406 -0.21740011571157 -1.41031456985699
 1 -12.20340670567057  1.77071946214621  1.82297586238624
 1 -13.79254011161116  0.81697118941894  1.80785722382238
 1  13.94543516551655 -2.35319613731373 -0.54478792459246
 1  12.40317619931993 -2.34488838883888 -1.35991211451145
 1 -14.13335672387239  2.84958831883188  0.58104914251425
 1 -14.07015179897990  1.50865053925393 -0.60722474457446
 1  12.89152111591159 -1.62310481708171  1.69710159215921
 1  11.96369382388239 -3.19069276137614  1.12951980758076
 1 -11.77928772087209  3.40315803650365  0.12259877687769
 1 -12.38052426632663  3.00797430523052 -1.38941284248425
 1  11.51978534903490 -0.69408248554855 -2.39776790949095
 1  12.24205108580858  0.80585524682468 -2.92741931593159
 1  10.72911048234823  0.93047615931593 -2.27703842334233
 1  12.93254420852085  2.21883878577858  0.38722606310631
 1  11.71779018591859  2.70048995989599 -0.81783594059406
 1  13.21409326562656  2.29753002290229 -1.41317358845885
 1 -13.52421165186519 -0.92433644264426 -0.58810491119112
 1 -13.49758193079308 -1.48886469066907  1.15480270097010
 1 -12.42666026922692 -1.98857726262626 -0.16201208370837
 1 -10.88857134803480  0.08952331293129  2.78428808790879
 1 -10.81146767216722 -1.35871687238724  2.01280529672967
 1 -12.31917598159816 -1.21116558445845  2.49004753285328
 1  10.13273668026803  1.97149200930093  0.48744465236524
 1 -10.24673911861186 -1.53678878887889 -0.08343472147215
 1  9.18966304380438 -0.92192978767877  1.88261201880188
 1  10.72878369246925 -1.45188138603860  3.17357878787879
 1  9.79133120032003 -2.71193104310431  1.73678329992999
 1 -9.55427246254625  1.13054536713671 -2.41303380028003
 1 -9.19670447534753  2.56095961796180 -1.54211425762576
 1 -10.45878614361436  2.55275028042804 -2.59517949124912
 1  8.54580017081708 -0.49178995919592  0.12214526412641
 1 -8.20368376357636  0.81085527962796 -0.16925057755776
 1  7.98967219931993  2.89050408630863  1.52292167466747
 1  6.64919680038004  3.49452715691569  0.71862444214421
 1  8.31063530123012  3.22436109810981 -0.23130635353535
 1 -8.43881483368337 -2.48435549464946 -1.80148684228423
 1 -8.32337332563256 -3.13527671497150 -0.13506736743674
 1 -7.03405795839584 -3.40658330963096 -1.25303418861886
 1  6.05295616011601 -0.41284651145115  0.13677166046605
 1 -5.97394937953795  0.22112405090509 -0.18712898969897
 1  4.71647500480048  2.29045748984899  1.05291819861986
 1 -5.08304840514051 -2.65420893729373 -0.72149429052905
 1  3.59935020172017 -0.32147671757176 -0.14611497309731
 1 -3.70749838103810  0.02722905280528 -0.20812267896790
 1  2.70887158655866  2.97973836993699  1.68507716301630
 1  1.11486868766877  3.18864959675968  0.98703843134313
 1  2.62668972777278  3.32476294979498 -0.05630960056006
 1 -3.00795266486649 -3.43576193209321 -1.56237124792479
 1 -3.24371597739774 -3.83231522442244  0.10096474787479
 1 -1.42793376467647 -3.77313764816482 -0.58745097149715
 1  0.19676207700770  0.84174008920892  0.61760240544054
 1 -1.57431852045204  0.00959894709471  0.00257253115312
 1  2.08638718321832 -1.60966001570157 -0.36499606380638
 1  0.17768827962796 -2.68160320262026 -0.34735559645965

