%nproc=4
%Mem=2GB
# td=(NStates=1) B3LYP/6-31G(d,p) 

TD

0 1
 6  12.04117846044604  0.65767636813681 -0.74592071097110
 6 -12.09092140624062  0.14603956235624  0.90668984788479
 6  13.27534694739474 -0.12364202420242 -0.74675067406741
 6 -12.84761126102610  1.32279667116712  1.34339505390539
 6  13.05485779998000 -1.68931460386039 -0.67718947774777
 6 -13.30207480358036  2.31312982508251  0.14498486558656
 6  10.97595938983898  0.00849511401140  0.22487002480248
 6 -10.96113378117812  0.46510639293929 -0.16882451725173
 6  12.35718015541554 -1.97966026002600  0.62015599189919
 6 -12.01226110871087  2.68759906810681 -0.59951828772877
 6  11.13639334733473 -1.19439149364936  0.85695226362636
 6 -10.97519231343134  1.59101472327233 -0.81377025072507
 6  11.44457504520452  0.62467359245925 -2.26203468206821
 6  12.48818223162316  2.12930698579858 -0.30650216921692
 6 -13.06904449524952 -0.92080919961996  0.24023785368537
 6 -11.38406727472747 -0.57295046864686  2.09325747394739
 6  9.76823488608861  0.89337545114511  0.50897289778978
 6 -9.90269007590759 -0.54622716481648 -0.23398748654865
 6  10.25707988428843 -1.74113392509251  1.86813944884488
 6 -9.91916488668867  1.88851059015902 -1.96121758665867
 6  8.51660790049005  0.39265922212221  0.32232043824382
 6 -8.57888084648465 -0.35387525282528 -0.27029335223522
 6  7.41890045824583  1.24014281458146  0.42426503910391
 6 -7.47554644854485 -1.31185966106611 -0.46362675957596
 6  7.55381843154315  2.82200483768377  0.61980441744174
 6 -7.88027521572157 -2.69813982508251 -0.65908318591859
 6  6.03612751425143  0.70527491649165  0.38118027702770
 6 -6.14860347024702 -0.94865568816882 -0.26074818651865
 6  4.78826947764776  1.39845217711771  0.43765342434243
 6 -4.92859247104711 -1.66666264406441 -0.61001238283828
 6  3.55761447304730  0.63018058325833  0.37904985428543
 6 -3.67294267946795 -1.27179781248125 -0.37998043574357
 6  2.25095839723972  1.24590529822982  0.42558704660466
 6 -2.44167316671667 -2.03489854855486 -0.46579986008601
 6  2.22766713831383  2.73868323482348  0.67406177947795
 6 -2.47308785418542 -3.54597812431243 -0.70197154725473
 6  1.14892644114411  0.40442178377838  0.27383230023002
 6 -1.30299847294729 -1.28772734473447 -0.31136984208421
 6  1.21377574977498 -1.02904785198520  0.10835331563156
 6  0.02233277287729 -1.80081632143214 -0.13277703370337
 1  13.98712881868187  0.12482491199120  0.08180622352235
 1  14.00484749854986  0.28091971627163 -1.67589112751275
 1 -12.14033039803980  1.95832822302230  2.07244080888089
 1 -13.77861871947195  1.07118661096110  1.94618105620562
 1  13.87389801180118 -2.25561637933793 -0.82911635743574
 1  12.44008989068907 -2.03371727172717 -1.55316143944394
 1 -13.94969835803580  3.21334469446945  0.53791482908291
 1 -14.13723850765077  1.82239191339134 -0.44594861696170
 1  13.08867083088309 -1.86089859645965  1.38468035003500
 1  11.99638709320932 -3.01428512061206  0.69037589318932
 1 -11.68731852395240  3.42441016171617  0.06539305630563
 1 -12.18280449434944  3.18625213301330 -1.49334323552355
 1  11.45309868036804 -0.53203628092809 -2.58655678837884
 1  12.07421430213021  1.05088975027503 -3.10807738173817
 1  10.40478805010501  1.10929404110411 -2.27271799129913
 1  12.65623657775778  2.25879278117812  0.73539087958796
 1  11.64732313921392  2.84155406630663 -0.55402955995600
 1  13.42747460376038  2.56320659055906 -0.79158142924292
 1 -13.34971420212021 -0.62607661666167 -0.75825192589259
 1 -14.18270044264426 -1.14838064226423  0.80984820552055
 1 -12.61558916211621 -1.92264066896690  0.03486760426043
 1 -10.54072656355636 -0.04806044544454  2.72880253935394
 1 -10.88662518791879 -1.39058005870587  1.66757077327733
 1 -12.27988205220522 -0.68342281018102  2.79855838393839
 1  10.04570797739774  1.84650951105111  0.33281918981898
 1 -10.36812125682568 -1.77369247924792 -0.27307368536854
 1  9.34971904940494 -1.13238083278328  2.18956271387139
 1  11.01419223332333 -2.02677887578758  2.73639506950695
 1  9.89893196039604 -2.69032888288829  1.54231385298530
 1 -9.44342137743774  0.87920023262326 -2.47249974687469
 1 -8.94469927482748  2.58667218921892 -1.65313535973597
 1 -10.61073133813382  2.30618562396240 -2.76980695399540
 1  8.24069966076608 -0.66817759795980  0.25181823142314
 1 -8.28708210341034  0.64435862996300 -0.29743339583958
 1  8.04216744884488  2.82689772567257  1.58903828632863
 1  6.61682356305631  3.16454415861586  0.61208378807881
 1  8.16442067976798  3.07622628462846 -0.17084030693069
 1 -8.09938089028903 -2.71500855995599 -1.73743043664366
 1 -8.64119510781078 -2.98512169946995 -0.02129599029903
 1 -7.10984553715372 -3.33200585188519 -0.37668655385539
 1  6.02725358985899 -0.38376360316032  0.24195217851785
 1 -6.01754373897390  0.16763870237024 -0.03150342714271
 1  4.57985134243424  2.34962340644064  0.63588649544954
 1 -5.11231133143314 -2.76439995639564 -0.75027716881688
 1  3.58416868356836 -0.29432400230023  0.51844148254825
 1 -3.77481511271127 -0.33134680478048 -0.10084195089509
 1  2.55282598199820  2.80963135923592  1.79223787908791
 1  1.00015721652165  3.05592632443244  0.46770649814981
 1  3.04319137793779  3.43650412391239  0.18326435683568
 1 -2.78831070067007 -3.67645600150015 -1.84319933073307
 1 -3.25416702250225 -3.90737273017302  0.03180783218322
 1 -1.37365833713371 -4.09440977537754 -0.63081530793079
 1  0.07422982378238  1.04296021122112  0.36034667986799
 1 -1.59810089868987 -0.15673768656866 -0.04065179127913
 1  2.08919746424642 -1.58708775847585  0.21256169196920
 1  0.06303681448145 -2.82754779707971 -0.29178003890389

