%nproc=4
%Mem=2GB
# td=(NStates=1) B3LYP/6-31G(d,p) 

TD

0 1
 6  12.19075341794179  0.60092069256926 -0.64334045294529
 6 -12.11150346444644  0.05481043944394  0.81197037593759
 6  13.50563997669767 -0.12388204820482 -0.70892689168917
 6 -12.95441194109411  1.26999139063906  1.29778049244925
 6  13.23776609080908 -1.68418409080908 -0.65418717751775
 6 -13.33909850595060  2.17865637773777  0.08454882198220
 6  10.97727952185219  0.05519978447845  0.29501703950395
 6 -11.08941660946095  0.46922680498050 -0.19126676147615
 6  12.54888932633263 -2.10750304430443  0.53066704300430
 6 -12.17395727832783  2.61802211041104 -0.71720005590559
 6  11.26207591559156 -1.20838289278928  0.81669823822382
 6 -11.15328012221222  1.59213483528353 -0.90076895059506
 6  11.47225781348135  0.65007613271327 -2.13614209280928
 6  12.50929434283428  2.06702075717572 -0.28959047804780
 6 -12.98865645644564 -1.06334345304530  0.15353918381838
 6 -11.52725159315932 -0.44459763336334  2.13239138733873
 6  9.81621968456846  0.94023013661366  0.43821582208221
 6 -9.92517232413241 -0.48624116621662 -0.29378346614661
 6  10.34802897919792 -1.89574938663866  1.78705134003400
 6 -10.04108707890789  1.97157889698970 -1.79944140904090
 6  8.54985122482248  0.54650460666067  0.31028923512351
 6 -8.57975093349335 -0.30254011931193 -0.33045936883688
 6  7.36771533973397  1.27031583188319  0.48023063566357
 6 -7.59948884278428 -1.36076455155516 -0.31163156005601
 6  7.63377642734273  2.71230386758676  0.86634907190719
 6 -8.05427261546155 -2.82459247034703 -0.68217549514951
 6  6.17829173067307  0.70063445244524  0.30685284428443
 6 -6.29295790569057 -0.99202002460246 -0.19251136283628
 6  4.84692534323432  1.34061639353935  0.24189384838484
 6 -5.06084569636964 -1.73369934773477 -0.21069245084508
 6  3.74396310791079  0.64975254045405  0.10178212751275
 6 -3.79575496069607 -1.16080671337134 -0.19653209090909
 6  2.38085138653865  1.21737244494449  0.25686017391739
 6 -2.55265426482648 -1.92392745144514 -0.37002028212821
 6  2.25714008560856  2.69373874037404  0.69702407570757
 6 -2.52073261866187 -3.36579010551055 -0.48651000110011
 6  1.22368391689169  0.48863020462046  0.16683160016002
 6 -1.34102227532753 -1.20403897589759 -0.26153485858586
 6  1.11459583178318 -0.94706965416542 -0.12900041974197
 6 -0.02553201360136 -1.58520476027603 -0.38576233223322
 1  14.10828093389339  0.16056848634863  0.29561760466047
 1  14.19819683348335  0.07605923022302 -1.63580711911191
 1 -12.44341070607061  1.91374376457646  2.16068963376338
 1 -13.77156801440144  0.84799429172917  2.03611004910491
 1  14.20557117911791 -2.25184600230023 -0.82730617641764
 1  12.78344422612261 -2.03287718771877 -1.68912503580358
 1 -14.01431481968197  2.99523288328833  0.55054609220922
 1 -13.95905068886889  1.61098077227723 -0.68828285038504
 1  13.30873283708371 -1.95843835043504  1.36141802380238
 1  12.33328078257826 -3.09612330443044  0.42590944654465
 1 -11.71518131023102  3.43009072977298 -0.11369485248525
 1 -12.54721093499350  3.06787029482948 -1.68048194939494
 1  10.90998436893689 -0.44256733403340 -2.47767590029003
 1  12.09425630633063  1.11352601390139 -3.05576215021502
 1  10.32347991929193  0.99446255795580 -2.18207892739274
 1  13.12822377647765  2.23427032893289  0.81366870737074
 1  11.82675108200820  2.87993790469047 -0.14793895089509
 1  13.39131098739874  2.47630790069007 -0.79105137623762
 1 -13.74074330503050 -0.45257926692669 -0.55163126382638
 1 -13.70840301290129 -1.47039284348435  0.72767998869887
 1 -12.70015761896190 -1.78185659055906 -0.52682856535654
 1 -10.72050454135414  0.05211957255726  2.73669332843284
 1 -11.10855738113811 -1.46032703340334  2.26061007720772
 1 -12.39007307130713 -0.35138960686069  2.88079660776078
 1  10.23275668226823  1.88746360646065  0.78718462636264
 1 -10.14315876057606 -1.62570768076808 -0.33409978797880
 1  9.60154423192319 -1.18247584228423  2.29161291889189
 1  10.88966978107811 -2.23726992489249  2.57830926092609
 1  9.67526959415942 -2.64964481448145  1.44904452605261
 1 -9.76233326862686  0.81707402000200 -2.17770026692669
 1 -9.08118292319232  2.59162268426843 -1.23640368656866
 1 -10.45108537353735  2.71536654205421 -2.67232720602060
 1  8.29651524232423 -0.59018979917992  0.30420346994699
 1 -8.12289568476848  0.76327052115212 -0.07881153365336
 1  8.40039327142714  2.73372840874087  1.65493487598760
 1  6.86172805350535  3.47472517671767  1.12288486818682
 1  8.17870210791079  3.06494515651565 -0.01343456635664
 1 -8.71338229042904 -2.74834189328933 -1.60545723932393
 1 -8.58680966926693 -3.36151933923392  0.16484262356236
 1 -7.10050460306031 -3.38618126942694 -0.82500138533853
 1  6.15524638913891 -0.29383461026103  0.10659864316432
 1 -6.02469445404541  0.06887882638264  0.12629235243524
 1  4.72986634393439  2.39838828292829  0.63410631743174
 1 -5.31100120042004 -2.82646616301630 -0.46060820192019
 1  3.57618788548855 -0.45247981788179  0.06017565596560
 1 -3.89189682088209 -0.05948961906191 -0.13313518021802
 1  3.02306300570057  2.94955535163516  1.42842149744974
 1  1.19460666146615  3.04362509430943  1.12030175767577
 1  2.59573663246325  3.48429890339034 -0.13420739033903
 1 -2.84003587318732 -3.91297965386539 -1.43217822862286
 1 -3.11757336313631 -3.69183117601760  0.39310396179618
 1 -1.53624459575958 -3.85951628602860 -0.18871109750975
 1  0.27041944274427  0.87267318251825  0.30170081528153
 1 -1.58298938753875 -0.10164217701770 -0.01440916701670
 1  2.14327287178718 -1.42152120182018 -0.36361592579258
 1  0.18024853565357 -2.49578462076208 -0.87656851775177

