%nproc=4
%Mem=2GB
# td=(NStates=1) B3LYP/6-31G(d,p) 

TD

0 1
 6  12.21992633523352  0.55964656515652 -0.51637775667567
 6 -12.15078739283928 -0.07684272587259  0.89649882878288
 6  13.48878829152915 -0.29141880188019 -0.29101510051005
 6 -12.92004850475048  1.09081347284728  1.44795550995100
 6  13.27504981918192 -1.87419309170917 -0.44193595239524
 6 -13.44868946504650  1.90152866496650  0.24473484058406
 6  11.09369116301630  0.00109437393739  0.33824136193619
 6 -11.03603127092709  0.45948583088309 -0.03355098989899
 6  12.35115955335534 -2.16420871487149  0.70763473977398
 6 -12.16566644924492  2.58761907010701 -0.41266960286029
 6  11.14796450445045 -1.17660971547155  0.87382395079508
 6 -11.02628742294229  1.63133875567557 -0.69397827152715
 6  11.74529511721172  0.46313743884388 -1.92695117371737
 6  12.57853126652665  2.00872492759276 -0.17191871087109
 6 -13.01317890869087 -1.14233135183518  0.11950578047805
 6 -11.50013888188819 -0.91087426102610  2.07758590679068
 6  9.85301336393639  0.92761887548755  0.41745374587459
 6 -9.94024383128313 -0.52209475157516 -0.14182827062706
 6  10.12665684198420 -1.87753756545655  1.75652828772877
 6 -10.10257322752275  2.04155589468947 -1.70249171407141
 6  8.57331357105711  0.46106606280628  0.28821702790279
 6 -8.62575553395340 -0.26016588188819 -0.05204152705271
 6  7.39600816901690  1.29346814711471  0.41022363496350
 6 -7.52533142704270 -1.30125860096010 -0.26563696059606
 6  7.54763781348135  2.83243588078808  0.57822025902590
 6 -7.90936812501250 -2.72351236233623 -0.49639691729173
 6  6.11876577807781  0.68318270727073  0.27211937093709
 6 -6.26258486838684 -0.81405222782278 -0.22956506820682
 6  4.93767441814181  1.36743907580758  0.19139879887989
 6 -5.03369298109811 -1.49670564836484 -0.50935231683168
 6  3.75079379097910  0.70444801000100  0.05751770107011
 6 -3.84623000820082 -0.99269990269027 -0.46932937063706
 6  2.46099940134013  1.33911461916192  0.03040752865287
 6 -2.54946394579458 -1.71880693939394 -0.52359563966397
 6  2.33894826642664  2.85023438993899  0.12137651095110
 6 -2.62832337773777 -3.23498702520252 -0.60132148224822
 6  1.29403095159516  0.51347268886889 -0.11039612261226
 6 -1.32960113321332 -0.95779435143514 -0.46988569366937
 6  1.13535790799080 -0.84010895809581 -0.22689020872087
 6  0.03870441004100 -1.57580382018202 -0.44586834283428
 1  13.98001810761076  0.01223365286529  0.77337538043804
 1  14.27777479127913  0.14685630993099 -1.30028356675668
 1 -12.41394775977598  1.72183457365737  2.16979054385439
 1 -13.81750260786079  0.65210470277028  1.94856129422942
 1  14.09318994099410 -2.36514733243324 -0.28869231503150
 1  12.67919380108011 -1.93138703870387 -1.23945006830683
 1 -14.28776216441644  2.79702306230623  0.61743278087809
 1 -13.88703348714871  1.18829850405040 -0.66292031413141
 1  12.87081904570457 -2.20752325892589  1.66390827282728
 1  11.81396885138514 -3.20600429252925  0.37588444404440
 1 -11.92131192329233  3.44599231993199  0.16505302230223
 1 -12.66776299019902  2.99755326312631 -1.49306320752075
 1  11.63752712321232 -0.61876495379538 -2.32453058575858
 1  12.50849773047305  0.95652031333133 -2.65746232023202
 1  10.61830940224022  1.01587469916992 -2.19217993749375
 1  12.47356831093109  2.09741664356436  0.85734307480748
 1  11.88782718961896  2.87053696459646 -0.45041919891989
 1  13.72614447074707  2.14311458135814 -0.56972924402440
 1 -13.41197042774277 -0.64486849584959 -0.94613071377138
 1 -13.91969414201420 -1.44592039623962  0.71835905660566
 1 -12.46383398659866 -2.11200960586059 -0.03788967146715
 1 -11.05144763566357 -0.19037467686769  2.63161282038204
 1 -10.69353587898790 -1.68226922762276  1.65472948914891
 1 -12.16461052505251 -1.41257572547255  2.67690621872187
 1  10.01918532513251  1.89369422952295  0.65754166206621
 1 -10.35181962666267 -1.44798990899090 -0.63971034903490
 1  9.51339541704171 -1.04149174387439  2.21676543414341
 1  10.28568938303830 -2.23640983888389  2.81398282828283
 1  9.52603467066707 -2.61464131413141  1.42989261086109
 1 -9.45001203650365  1.15964827742774 -1.98828132503250
 1 -9.48264306920692  3.03714723672367 -1.61697174337434
 1 -10.79313957895790  2.31956696209621 -2.71610158345835
 1  8.37883347414741 -0.71501228142814  0.08357140674067
 1 -8.39809320452045  0.72621681578158  0.20486683418342
 1  7.63905713781378  3.02297733363336  1.76665604810481
 1  6.45928780948095  3.31570927512751  0.35030761046105
 1  8.40570480818082  3.24963362536254 -0.30309353225323
 1 -8.58530948314831 -2.93458051715172 -1.32893958755876
 1 -8.89014000230023 -3.05936912421242  0.27976411571157
 1 -7.05837038963896 -3.41451410271027 -0.51233011821182
 1  6.22505336983698 -0.42345757255726  0.22905088838884
 1 -6.10784276887689  0.37066900540054  0.11168089128913
 1  4.76960031733173  2.42256070017002  0.08118102490249
 1 -5.22622272257226 -2.75112862926293 -0.65165730683068
 1  3.64308457515752 -0.47323189308931 -0.23245360696070
 1 -3.58056568776878 -0.00127379747975 -0.00316218291829
 1  2.73038373777378  3.20304070017002  1.03358201350135
 1  1.33878107890789  3.08032876467647  0.01120084758476
 1  2.87498455725573  3.36273674717472 -0.73857782738274
 1 -2.92972484208421 -3.46144450035003 -1.53190820162016
 1 -3.14308591439144 -3.76238823172317  0.17854250565057
 1 -1.62582355365537 -3.60010034443444 -0.60518274467447
 1  0.32138453925393  1.06099201440144 -0.26317567236724
 1 -1.50382147074707  0.22274026122612 -0.60940866696670
 1  1.97700624512451 -1.38577762746275 -0.41061062526253
 1  0.17735824662466 -2.49226426872687 -0.54441530243024

