%nproc=4
%Mem=2GB
# td=(NStates=1) B3LYP/6-31G(d,p) 

TD

0 1
 6  12.11464580718072  0.69365996649665 -0.64330044894489
 6 -12.15704801890189 -0.00853589518952  0.85431461036104
 6  13.45287470017002 -0.23463312331233 -0.56503250225023
 6 -12.95962246214621  1.28551294279428  1.36943765816582
 6  13.14661697589759 -1.76007167956796 -0.40055181398140
 6 -13.24030862696270  2.29243775587559  0.24623499059906
 6  11.10612240614061  0.13221748624862  0.23993153095310
 6 -10.90692836063606  0.41925180748075 -0.03171080588059
 6  12.29090352775277 -2.01348364236424  0.83626760306031
 6 -11.88997888048805  2.80157046524652 -0.39521785768577
 6  11.16433614161416 -1.01543359785979  0.89920648904890
 6 -10.80681547574757  1.73336895869587 -0.57290616431643
 6  11.60553114081408  0.58661978707871 -2.13103158175818
 6  12.42260567396740  2.10527458255826 -0.33944546354635
 6 -13.16179377017702 -0.85487260596060  0.02737656755676
 6 -11.71199006700670 -0.72982615621562  2.16901504970497
 6  9.71595965856586  0.97196330993099  0.39496149664966
 6 -9.89786959385938 -0.61822436453645 -0.26138022582258
 6  10.29885406170617 -1.49072888458846  2.02837547244724
 6 -9.76203917411741  2.02752449154915 -1.61143260816082
 6  8.51051729142914  0.46063601980198  0.33022122832283
 6 -8.56620957935794 -0.34916478177818 -0.29465578847885
 6  7.33734230243024  1.29310811111111  0.36388900150015
 6 -7.58230712461246 -1.37401587668767 -0.43792418931893
 6  7.44147719741974  2.74701733893389  0.56121855885589
 6 -7.91978916711671 -2.90923093419342 -0.76462373997400
 6  6.12025592709271  0.66654104310431  0.29787194619462
 6 -6.28201681158116 -1.00986180878088 -0.21511362306231
 6  4.84650530123012  1.23899623152315  0.32592225122512
 6 -4.99558917071707 -1.70360633843384 -0.37534891649165
 6  3.73711242284228  0.52689025422542  0.12222417171717
 6 -3.76502188738874 -1.13340397309731 -0.24329676737674
 6  2.47174047544754  1.10491119881988  0.17153164106411
 6 -2.49702870227023 -1.86972203090309 -0.35767904800480
 6  2.25358973057306  2.55836520302030  0.51224559785979
 6 -2.68653919931993 -3.42457598409841 -0.62797414751475
 6  1.20792234073407  0.50488182978298 -0.05573065606561
 6 -1.34034220732073 -1.22286085808581 -0.38340704580458
 6  1.14353872607261 -1.06051099829983 -0.41806932663266
 6  0.02617315691569 -1.70071631143114 -0.60237399339934
 1  14.30611071687169  0.24737716721672  0.15305334823482
 1  14.06471348514851 -0.19458783448345 -1.49990352875288
 1 -12.47872423742374  1.53663605380538  2.17726129092909
 1 -13.97491834943495  1.11297078937894  1.96934337243724
 1  14.10217083908391 -2.24758557625763 -0.45737918371837
 1  12.66782266396640 -2.04191809180918 -1.42654877817782
 1 -13.95752914111411  3.03630699069907  0.50921195879588
 1 -13.93291807560756  1.87725739993999 -0.61465548764877
 1  12.75990795459546 -1.94639714631463  1.87974985698570
 1  11.77524497899790 -3.10748444054405  0.86804365996600
 1 -11.41277106920692  3.47014473517352 -0.01147463046305
 1 -12.17149336323632  3.18221172897290 -1.36143004420442
 1  11.46226959745974 -0.41700477777778 -2.55548368106811
 1  12.17161404210421  1.12519718101810 -2.90172674667467
 1  10.63620119141914  0.96448956065607 -2.29099981948195
 1  12.83043399749975  1.99858676057606  0.70363770427043
 1  11.63194160106010  2.91930184108411 -0.48760291729173
 1  13.25012686898690  2.62342261216122 -0.92554482558256
 1 -13.23180241094109 -0.36031004000400 -0.92386848754876
 1 -13.98120029262926 -1.14095990019002  0.62675989668967
 1 -12.59005660886089 -1.84998340324032 -0.24449033153315
 1 -10.91927441834183 -0.16780241964196  2.59731939103910
 1 -11.31528805420542 -1.70849184988499  1.72571658785879
 1 -12.48319238323832 -0.54073854175418  2.71958048614862
 1  9.91274468106811  1.95500036013601  0.67291319921992
 1 -10.22051649634964 -1.68713382338234 -0.07827420542054
 1  9.60289436693669 -0.75424301900190  2.75676943454345
 1  10.82714352845285 -2.13976017391739  2.72456388638864
 1  9.54233630083008 -2.31622147214721  1.68419804140414
 1 -9.04108114341434  1.20072238483848 -1.90158265516552
 1 -9.07487229212921  2.92215573757376 -1.25033507970797
 1 -10.00372063706371  2.43006801220122 -2.51468144144414
 1  8.43704929572957 -0.53363414361436 -0.02853980438044
 1 -8.10484387958796  0.54101829592959  0.19958630613061
 1  8.36671990409041  3.05645068096810  1.30536991949195
 1  6.48591047174718  3.40654835903590  0.93530611031103
 1  7.58352258995900  3.35918458045805 -0.37062028492849
 1 -8.63099405160516 -2.87262432153215 -1.79502619621962
 1 -8.43161414971497 -3.24260744804480  0.14414055335534
 1 -7.18126267886789 -3.53454610591059 -0.83916280148015
 1  6.21636250075008 -0.42631785858586  0.04716269956996
 1 -6.20544252885288  0.05134707320732  0.05476519971997
 1  4.77601095839584  2.35252369646965  0.47859076587659
 1 -4.99683978427843 -2.69490300670067 -0.84706684778478
 1  3.88496876357636 -0.70846541644164  0.13061269966997
 1 -3.70794842604260 -0.04815848594859  0.09708784208421
 1  2.44046474587459  2.74693508960896  1.51160981628163
 1  1.32346954775478  2.93684441624162  0.20189991749175
 1  2.66032309110911  3.33242371587159 -0.25825979557956
 1 -3.09984185378538 -3.32781113701370 -1.69226423722372
 1 -3.49734133993399 -3.81285327822782  0.13009766116612
 1 -1.87306827812781 -4.14599493389339 -0.49468169456946
 1  0.30327272807281  0.88404431963196 -0.02580193499350
 1 -1.42704379297930 -0.24234624742474 -0.25124285038504
 1  2.03536208070807 -1.73016206590659 -0.46294585878588
 1  0.17411792259226 -2.76759180148015 -0.82886374727473

