%nproc=4
%Mem=2GB
# td=(NStates=1) B3LYP/6-31G(d,p) 

TD

0 1
 6  12.13868821142114  0.54309490999100 -0.74780089898990
 6 -12.06153846794679  0.04890984938494  0.81827100600060
 6  13.42516192889289 -0.31144080408041 -0.76493249224923
 6 -13.11422792269227  1.07947233873387  1.27448816321632
 6  13.10604291849185 -1.82212788518852 -0.64213597239724
 6 -13.45812040814081  1.98294680678068 -0.01607124002400
 6  11.13749554345435 -0.00711644714471  0.25925346314631
 6 -10.91451911971197  0.50293017531753 -0.11776941174117
 6  12.39802423982398 -2.13583587758776  0.71612558885889
 6 -12.25960584318432  2.56034634283428 -0.55440377627763
 6  11.22474218221822 -1.23703575807581  0.86197276567657
 6 -10.96819161336134  1.64040966276628 -0.69990886458646
 6  11.54101468916892  0.51802292739274 -2.15735421402140
 6  12.48923233663366  1.96046010111011 -0.37293881288129
 6 -12.98562615341534 -1.10294741344134  0.16679050895090
 6 -11.50285915391539 -0.49963313691369  2.17722587078708
 6  9.90453851645165  0.86359247284728  0.33025502600260
 6 -9.96310611751175 -0.53853639573957 -0.32921700950095
 6  10.30184436073607 -1.60294010571057  1.96419905480548
 6 -10.05388835903590  2.13116485558556 -1.76863832873287
 6  8.61033727342734  0.50419037523752  0.25064327052705
 6 -8.56131909030903 -0.39686955225523 -0.23157948084809
 6  7.48622719091909  1.37653645394539  0.43565617821782
 6 -7.47275616951695 -1.33784225932593 -0.39508990589059
 6  7.69448249794979  2.83090572777278  0.75880831783178
 6 -7.90535772397240 -2.69247925902590 -0.88548582618262
 6  6.15217911941194  0.84558894789479  0.23267542654265
 6 -6.20337894779478 -0.89312013461346 -0.19179129082908
 6  4.85229588028803  1.52484481638164  0.55333499249925
 6 -5.00222983478348 -1.65844182198220 -0.44124550615062
 6  3.79110782238224  0.83023058825883  0.11230317961796
 6 -3.71558694389439 -1.13685431813181 -0.23663610131013
 6  2.31169447084709  1.21167187488749  0.37413190109011
 6 -2.57038603800380 -1.90709576827683 -0.34347762786279
 6  2.10601497309731  2.75717508400840  0.65739011231123
 6 -2.59718026342634 -3.40277380388039 -0.59079042914291
 6  1.21708325682568  0.52364370597060  0.17194211121112
 6 -1.37211538463846 -1.25655422742274 -0.12334103920392
 6  1.11971634383438 -0.91276622382238 -0.04651217091709
 6 -0.10813027342734 -1.71957819761976 -0.27240099609961
 1  13.84528463426343 -0.10138770927093  0.22950099299930
 1  14.16967398119812 -0.18940731643164 -1.57382092049205
 1 -12.50317668266826  1.82328471867187  2.08296186098610
 1 -14.10942179977998  0.79862935523552  1.65584202230223
 1  14.04714533653365 -2.52903372107211 -0.70707415321532
 1  12.56626250795080 -2.15139903990399 -1.54406052935294
 1 -14.05131852005201  2.87617097709771  0.29046008360836
 1 -14.02889767356736  1.37061673587359 -0.62847686978698
 1  13.34849681348135 -2.32365487208721  1.50151203320332
 1  12.04647210171017 -3.10698439053905  0.62252910851085
 1 -12.00849064116412  3.59449717041704 -0.06296977997800
 1 -12.32781899579958  3.00890439823982 -1.47083098429843
 1  11.27521089158916 -0.52747582488249 -2.69978811151115
 1  12.25481236193619  1.14324898619862 -3.09486606060606
 1  10.53989156045605  0.95452856455646 -2.39300001950195
 1  12.86379733383338  1.88825572747275  0.67084442494249
 1  11.74807321422142  2.65999591049105 -0.55722987998800
 1  13.31392324862486  2.30754102400240 -0.95481775287529
 1 -13.29427865856586 -1.01459546854685 -0.74336043674367
 1 -13.82571474407441 -1.28209401360136  0.74898211891189
 1 -12.20979858305831 -1.72386079097910  0.07414153165317
 1 -10.59275176607661  0.16219057965797  2.45140479957996
 1 -10.85615214061406 -1.35996699739974  1.86443045924592
 1 -12.23333739773977 -0.86067053495350  2.81838036613661
 1  10.11173458005801  1.95768062816282  0.76744265216522
 1 -10.29461390609061 -1.62257736773677 -0.42420879887989
 1  9.64645872337234 -0.65085267996800  2.18294205180518
 1  10.70951176527653 -2.20423662156216  2.88877030703070
 1  9.83660572777278 -2.38306815681568  1.82304192579258
 1 -9.50859789508951  1.25264757735774 -1.91173367026703
 1 -9.49946475137514  3.03987750975098 -1.27438748494850
 1 -10.61301156615662  2.51898690409041 -2.62059203250325
 1  8.14678026882688 -0.53769454965497 -0.29571652205220
 1 -8.13170656585659  0.57630182428243 -0.03933758625863
 1  8.13047627972797  3.00442547844784  1.72985236773677
 1  6.66345822652265  3.39141684588459  0.51205378507851
 1  8.40780501820182  3.15652431443144 -0.03420664356436
 1 -8.45666661886189 -2.68907596669667 -1.92420911451145
 1 -8.67322831113111 -3.18606179347935 -0.21515537623762
 1 -7.15645019761976 -3.37981063236324 -1.01760064526453
 1  6.01887275177518 -0.19850507730773  0.01389937323732
 1 -6.17186917151715  0.16621856035604 -0.08701897869787
 1  4.80784414171417  2.43591203530353  1.04602750955095
 1 -4.97582768306831 -2.66979049544954 -0.65213735483548
 1  3.81424169086909 -0.07307187708771 -0.35655601720172
 1 -3.59066669786979 -0.01369503960396 -0.16592845954595
 1  2.61892259165917  2.93277367346735  1.65135379067907
 1  1.08299550035003  3.07306803860386  0.69322905040504
 1  2.74415147394739  3.38676915041504  0.06786281668167
 1 -2.92140401000100 -3.76278463436344 -1.65080009080908
 1 -3.47665927172717 -3.86385837873787  0.02097674907491
 1 -1.50338130943094 -3.74009434383438 -0.67754998139814
 1  0.25375777657766  1.06857277247725  0.05285593079308
 1 -1.57704879347935 -0.25793780658066  0.05508778267827
 1  2.06316486098610 -1.38546759645965 -0.01064062826283
 1  0.16989750055005 -2.70343538583858 -0.49742060296030

