%nproc=4
%Mem=2GB
# td=(NStates=1) B3LYP/6-31G(d,p) 

TD

0 1
 6  12.25362970557056  0.56792739323932 -0.61893801270127
 6 -12.07799011311131 -0.00270531213121  0.85348452735274
 6  13.46315572827283 -0.36907656765677 -0.51598759775978
 6 -12.99058555845585  1.14582897439744  1.28604931933193
 6  13.13976629082908 -1.80334600700070 -0.65602736153615
 6 -13.37166176227623  2.01867037913791  0.02030239733973
 6  11.05501729562956 -0.00900663616362  0.26715425322532
 6 -10.89606727452745  0.46608649094909 -0.07815545034503
 6  12.07071150855086 -2.19435172917292  0.44061803810381
 6 -12.19004888748875  2.65676598479848 -0.51220955685569
 6  10.96023573157316 -1.30333238773877  0.76163273167317
 6 -11.11459625382538  1.64180980278028 -0.79529840354035
 6  11.86891747944795  0.66991811691169 -2.05271374997500
 6  12.66501991539154  1.97407146224622 -0.13692521152115
 6 -12.95997358815882 -0.97244436313631  0.09788361826183
 6 -11.42218108610861 -0.75076825042504  2.13698184638464
 6  9.91737980058006  0.93157927152715  0.40636263676368
 6 -9.94652445934593 -0.55041758385839 -0.29981406920692
 6  10.07308148444844 -1.77200701240124  1.75156779167917
 6 -10.07309027922792  2.06981872097210 -1.84453591849185
 6  8.65070130983098  0.62548250445044  0.31737994419442
 6 -8.63186614501450 -0.33366323162316 -0.21307763066307
 6  7.43583215141514  1.40558935923592  0.41175378797880
 6 -7.56217511141114 -1.30530900600060 -0.35255565246525
 6  7.55647869756976  2.93839647684768  0.77971040804080
 6 -7.84049123732373 -2.74454446554655 -0.59542682028203
 6  6.24723862536254  0.76442083108311  0.17279943894389
 6 -6.25645425532553 -0.87370819341934 -0.24939705140514
 6  4.86517716841684  1.44448678057806  0.19990964996500
 6 -4.99688930073007 -1.79683566136614 -0.37928931053105
 6  3.71392010361036  0.75913347854785  0.20672262156216
 6 -3.83551893709371 -1.22861349404940 -0.20044248194819
 6  2.41397469886989  1.26925763346335  0.20233472137214
 6 -2.58598759815982 -1.87035209390939 -0.36322960306031
 6  2.07369174077408  2.80674004050405  0.35079945324532
 6 -2.54467501290129 -3.39086261276128 -0.70827217731773
 6  1.25836738523852  0.46650799239924  0.16535145214521
 6 -1.39208738183818 -1.11914048604860 -0.13808251335134
 6  1.11049542174217 -0.97238218541854 -0.01486900660066
 6 -0.04896435683568 -1.67750399019902 -0.11896565256526
 1  13.98787889368937 -0.12844041454145  0.45794383728373
 1  14.11951896569657 -0.14633300900090 -1.37492103050305
 1 -12.49651601660166  1.73311570177018  1.98642220702070
 1 -14.03095395299530  0.79178867116712  1.88101453955396
 1  14.16512713471347 -2.36272709040904 -0.55976942274227
 1  12.88248413011301 -2.06968086808681 -1.69602572587259
 1 -14.28717210541054  2.73053641364136  0.29294033163316
 1 -13.78676346014602  1.39261893609361 -0.77538156025603
 1  12.65119708350835 -2.31796430303030  1.33449533153315
 1  11.51764921942194 -3.15423911601160  0.33169002460246
 1 -11.92271206330633  3.49057677837784  0.01222773977398
 1 -12.48480469436944  3.14758826662666 -1.43599750095010
 1  11.77259062956296 -0.27566064336434 -2.56295442814281
 1  12.78218509920992  1.08950361166117 -2.67706428042804
 1  11.02705027632763  1.29339245094509 -2.30705142464246
 1  12.84091504560456  1.96125302720272  0.81346868736874
 1  11.82173057995800  2.81045095599560 -0.43577773477348
 1  13.48775063136314  2.25889615951595 -0.72144441554155
 1 -13.58483771447145 -0.52715672467247 -0.60892699339934
 1 -13.61855402800280 -1.27185298949895  0.87911513221322
 1 -12.42634023722372 -1.84222262716272 -0.36869275177518
 1 -10.66833932483248 -0.06419205860586  2.64545420452045
 1 -10.87840436583658 -1.61724272497250  1.86944096029603
 1 -12.15564962896290 -0.86609107700770  2.69135766386639
 1  10.29669307590759  1.93186804690469  0.63502941084108
 1 -10.46054049874988 -1.62586769676968 -0.14813119111911
 1  9.45098917641764 -0.97440503520352  2.25880963856386
 1  10.54207502160216 -2.05073127102710  2.71211264126413
 1  9.49887195439544 -2.61667151715171  1.36490611221122
 1 -9.20765780108011  1.41642395499550 -1.78599109600960
 1 -9.71709651455145  3.15908943094309 -1.39795984218422
 1 -10.74659492449245  2.13296830223022 -2.69218919221922
 1  8.27564315511551 -0.41423220342034  0.00017306690669
 1 -8.46942033723372  0.68065225932593  0.13964031153115
 1  7.93275650775078  3.05361039693969  1.84753413591359
 1  6.58465034573457  3.37942564676468  0.39523210291029
 1  8.25746998469847  3.43453211521152  0.11778855595560
 1 -8.49416036823682 -2.95922298139814 -1.43291998559856
 1 -8.38814980328033 -3.11962514981498  0.16520265956596
 1 -6.83493804640464 -3.44137678897890 -0.59843872907291
 1  6.13602446694669 -0.25835106190619 -0.14656667336734
 1 -5.88992097669767  0.17262920142014 -0.39461973877388
 1  4.72372572987299  2.41295974007401  0.29980288708871
 1 -5.00780088038804 -2.75926944334433 -0.40550269136914
 1  3.69715998269827 -0.32819738963896  0.23953359175918
 1 -3.72343997519752 -0.20360403050305  0.03622175547555
 1  2.45958665806581  3.25089548564857  1.23999265456546
 1  1.05281248204820  3.18931966376638  0.19098882638264
 1  2.70997805660566  3.27494796829683 -0.41752572217222
 1 -3.25370724032403 -3.68355671157116 -1.51507651845185
 1 -2.63922552835283 -3.84551654455446  0.30586523792379
 1 -1.63117408870887 -3.77715805020502 -1.01645387178718
 1  0.40871327212721  1.10138605380538  0.42679332453245
 1 -1.61823291189119 -0.03412542534253  0.11820409430943
 1  2.14345288978898 -1.54362341204120 -0.05414497869787
 1  0.08655916671667 -2.73490853315332 -0.16598745964596

