%nproc=4
%Mem=2GB
# td=(NStates=1) B3LYP/6-31G(d,p) 

TD

0 1
 6  12.16191053365336  0.58139874037404 -0.67050316921692
 6 -12.17001931603160 -0.13369841144114  0.79550872977298
 6  13.46666607930793 -0.27534719471947 -0.49562556155616
 6 -13.02610911081108  1.08119251075108  1.31406212061206
 6  13.29386170037004 -1.80278595099510 -0.45260701950195
 6 -13.48176277237724  1.93473198529853  0.18403877097710
 6  11.10970276417642 -0.05066080158016  0.20914845264526
 6 -11.02143981178118  0.41365124742474 -0.01152878767877
 6  12.46328076547655 -2.16916921092109  0.79530350665067
 6 -12.27693757635764  2.58700900910091 -0.44794313021302
 6  11.23816352435244 -1.15663771827183  0.97150371877188
 6 -11.14369916411641  1.55080070187019 -0.68804767846785
 6  11.77165775347535  0.56614773987399 -2.22312079067907
 6  12.53340675407541  1.93358741384138 -0.36524804380438
 6 -13.05307289808981 -1.15190230893089  0.07114094399440
 6 -11.60265913391339 -0.77100027362736  2.13084123232323
 6  9.96815487808781  0.82798891249125  0.37931993249325
 6 -9.88120792769277 -0.48930147224722 -0.30933502130213
 6  10.21649582588259 -1.63953376507651  1.94209684458446
 6 -10.07607057725773  2.17943968306831 -1.65858732363236
 6  8.69987622732273  0.42850280648065  0.13090129632963
 6 -8.57053001140114 -0.34559442474247 -0.20396671957196
 6  7.46129469766977  1.26851565186519  0.28738135073507
 6 -7.52912180608061 -1.27979645474547 -0.50270066696670
 6  7.65719876957696  2.68169080628063  0.63269570657066
 6 -7.99806699489949 -2.76915692679268 -0.77804508210821
 6  6.25506940844084  0.66072046104610  0.16915907490749
 6 -6.20813942384238 -0.80746156875688 -0.39774188588859
 6  4.87146779747975  1.28386071797180  0.36746640564056
 6 -5.05249486128613 -1.63007898569857 -0.54320570217022
 6  3.71582029362936  0.71056862206221  0.18259020832083
 6 -3.83040842604260 -1.09048968166817 -0.30712315001500
 6  2.35256855825583  1.40702140984098  0.26781126902690
 6 -2.47805680508051 -1.72847790649065 -0.36895017511751
 6  2.27204157575758  2.97773714021402  0.31339571287129
 6 -2.66637718311831 -3.26639016551655 -0.53411476157616
 6  1.28116966546655  0.57255859745975  0.11931684868487
 6 -1.44315248834883 -0.97304587658766 -0.09609831493149
 6  1.05081945414541 -0.84719966716672 -0.13034055375538
 6 -0.10922038243824 -1.51606784658466 -0.18919267526753
 1  13.97789789558956 -0.04597216771677  0.35430347324732
 1  14.15671268506851  0.01778340264026 -1.32128566696670
 1 -12.35737210221022  1.54534692489249  2.12947651245125
 1 -13.61778263586359  0.52239173147315  2.19642608070807
 1  14.29768039003900 -2.37763858155816 -0.36013945974597
 1  12.89700558225823 -2.05849974997500 -1.41933805710571
 1 -14.09857324552455  2.78312167216722  0.39443048064806
 1 -13.95777056085609  1.32743241744174 -0.72767678977898
 1  13.07919988378838 -2.28816132273227  1.69429131113111
 1  11.97058451295129 -3.14699839193919  0.87931478707871
 1 -11.91296108820882  3.37796551725173  0.20741725872587
 1 -12.73085929982998  2.89469297709771 -1.49220312151215
 1  11.75524889538954 -0.55382846014601 -2.76382451515152
 1  12.69841672237224  1.10782544384438 -2.79405597959796
 1  10.61251882318232  0.94366747844784 -2.39329004850485
 1  12.40230118421842  1.97665456735674  0.72284962546255
 1  11.80244865176518  2.62361227212721 -0.90562471947195
 1  13.44903675997600  2.30006027592759 -0.78373064416442
 1 -13.44154338503850 -0.70477448644865 -0.90876697739774
 1 -14.01221339393939 -1.34181998619862  0.82775999669967
 1 -12.52145974917492 -2.02403080798080 -0.27132301480148
 1 -10.65513800470047 -0.22551819121912  2.49712937203720
 1 -11.07807433283328 -1.66239724042404  1.90435445164517
 1 -12.30797486148615 -0.86129059695970  2.73796232433243
 1  10.25330873747375  1.86046090619062  0.83515942384238
 1 -10.17394183888389 -1.42015712571257 -0.28545492349235
 1  9.91725580308031 -0.70495809050905  2.49338309590959
 1  10.66917773187319 -2.45143134103410  2.77696912691269
 1  9.26954902210221 -2.11518136813681  1.43801342294229
 1 -9.32858989428943  1.58464077667767 -2.19879237613761
 1 -9.48357316221622  2.90585410741074 -1.03017306350635
 1 -10.53809407440744  2.67801280668067 -2.42052202550255
 1  8.67288287908791 -0.73312409260926 -0.09669662006201
 1 -8.26927032223222  0.83129732383238 -0.00719437193719
 1  7.73182641474147  2.63142817871787  1.91317069956996
 1  6.69201108180818  3.19054675887589  0.44653723342334
 1  8.56228046574657  3.29601826382638  0.24525130223022
 1 -9.00702165436544 -2.31190824992499 -1.35734242784278
 1 -8.32203319161916 -3.18562174947495  0.28965510481048
 1 -7.16539109170917 -3.18292094339434 -1.46133501870187
 1  6.17635850035003 -0.34416964376438 -0.09552156885689
 1 -6.22865485008501  0.17804974347435 -0.07583786058606
 1  5.14903826112611  2.30717916201620  0.46869977677768
 1 -5.27435753605361 -2.66198971537154 -0.69498163926393
 1  3.86521678837884 -0.28388295819582  0.10834047244724
 1 -3.77852548374837 -0.09001267136714  0.09630776407641
 1  2.88769946934693  3.22112250835084  1.22976163146315
 1  1.33156035683568  3.31008173997400  0.43639336683668
 1  2.69004606340634  3.44564503800380 -0.58574254385439
 1 -3.39715158475848 -3.59606796269627 -1.34464947574757
 1 -2.99444104990499 -3.64208620152015  0.64692934433443
 1 -1.72637360866087 -3.83060339473947 -0.79948217461746
 1  0.14407680848085  1.18107402260226 -0.11921127592759
 1 -1.92298338693869  0.14065205240524  0.26586886078608
 1  1.90412895739574 -1.39794884458446 -0.39607917211721
 1 -0.09576906610661 -2.61693673597360 -0.31143200410041

