%nproc=4
%Mem=2GB
# td=(NStates=1) B3LYP/6-31G(d,p) 

TD

0 1
 6  12.22723706630663  0.58399900040004 -0.68029414831483
 6 -12.23615592969297 -0.14404944654465  0.75961514041404
 6  13.44003341604160 -0.18978863886389 -0.46675267426743
 6 -13.17868436833683  1.09161355285529  1.27804851925193
 6  13.19156147034703 -1.70596626902690 -0.40149190799080
 6 -13.41183577967797  2.03624213631363  0.04589495659566
 6  11.04644643854385 -0.03158889438944  0.15135267306731
 6 -10.98972664046405  0.48145802810281 -0.06958459325933
 6  12.23067750515052 -2.09814210821082  0.88062203850385
 6 -12.10651053365337  2.62852316051605 -0.38121645754575
 6  11.09618932693269 -1.19434148864886  0.85655222362236
 6 -11.03550834503450  1.69431505330533 -0.75482435613561
 6  11.87236782448245  0.56432755785579 -2.12858133673367
 6  12.47222063546355  2.05806986208621 -0.35182670167017
 6 -13.01033862466247 -1.13482060076008  0.04717854775478
 6 -11.66013488148815 -0.84369754335434  2.08865701390139
 6  9.91693975657566  0.86635274887489  0.19267126762676
 6 -9.92898270517052 -0.53036557865787 -0.30547463526353
 6  10.04337851415141 -1.62287209890989  1.85091772667267
 6 -9.94893786398640  2.14121586068607 -1.67030849574958
 6  8.61657789748975  0.52307226342634  0.17650585678568
 6 -8.56687964636464 -0.27450731603160 -0.09259558245825
 6  7.43485205340534  1.22152095239524  0.23394600720072
 6 -7.54781367526753 -1.20605908100810 -0.32777317421742
 6  7.60929397909791  2.78428106530653  0.51155359235924
 6 -7.88443563176318 -2.62185219631963 -0.71689896749675
 6  6.23814771627163  0.78134252325233  0.10734289328933
 6 -6.15262387228723 -0.80457127972797 -0.14920703240324
 6  4.87629828052805  1.27313964586459  0.27929758875888
 6 -4.94513412521252 -1.48581455925593 -0.28971035263526
 6  3.69806851845185  0.52707027222722  0.23119506880688
 6 -3.69474485968597 -1.01475210791079 -0.18687112481248
 6  2.42118541994199  1.19508021572157  0.31496598449845
 6 -2.49534853425343 -1.82828788748875 -0.33514679477948
 6  2.28937330893089  2.62496186268627  0.51338571187119
 6 -2.67534808020802 -3.31508503500350 -0.73677502760276
 6  1.29474102260226  0.39745108670867  0.21524644164416
 6 -1.33453162626263 -1.14768334033403 -0.13874257935794
 6  1.14194856705671 -1.00052499969997 -0.11841936163616
 6 -0.08851831223122 -1.65583182298230 -0.37548130413041
 1  14.04287439323932  0.21439386888689  0.43454149704971
 1  14.20925793959396 -0.01628000370037 -1.28945248364837
 1 -12.62990935593559  1.73272566276628  2.08956252105211
 1 -14.15445630323032  0.66073556585659  1.57623406150615
 1  14.22067268926893 -2.41822263996400 -0.17164060986099
 1  12.97540342204220 -1.92207610761076 -1.40930705400540
 1 -14.06015940414041  2.80025338533853  0.29966100370037
 1 -14.05503028682868  1.55437511171117 -0.81283530563056
 1  12.87870983478348 -2.17017952455246  1.73158504050405
 1  11.76378383288329 -3.13855754785479  0.58306516211621
 1 -11.49644943704370  3.33641136183618  0.26625314231423
 1 -12.13105931983198  3.21265477327733 -1.31779568076808
 1  11.63189656015602 -0.47524060136014 -2.48654678737874
 1  12.58309519021902  1.01907656895690 -2.83154972897290
 1  10.89662723402340  1.15535864756476 -2.32438315781578
 1  12.43180413451345  2.22274917681768  0.73804114461446
 1  11.72619102600260  2.81206111701170 -0.68734289128913
 1  13.54666652295229  2.34560483038304 -0.68765103620362
 1 -13.53218244894489 -0.61683569256926 -0.77825392609261
 1 -13.69747191979198 -1.39162496669667  0.84261148184818
 1 -12.37399500270027 -1.91535994089409 -0.30477636013601
 1 -11.06020851175117 -0.16020165956596  2.77779743884388
 1 -11.00000652605260 -1.53697469816982  1.80838485468547
 1 -12.43646771077108 -1.36197066496650  2.69699822792279
 1  10.06819022562256  1.91079593969397  0.46540244814481
 1 -10.24199864456446 -1.63906901690169 -0.42746912491249
 1  9.24755883338334 -0.92864045874587  1.98386214381438
 1  10.52707352145215 -1.61915811371137  2.87417884788479
 1  9.67961002820282 -2.44728457845785  1.36627624922492
 1 -9.45056209150915  1.19556186878688 -2.13413591049105
 1 -9.27439224412441  2.83665718771877 -1.27077712391239
 1 -10.45224548954896  2.59640464586459 -2.55148512181218
 1  8.34083967476748 -0.60425120532053  0.08591164076408
 1 -8.15994939013901  0.77974216831683  0.05189153665367
 1  8.61011424352435  2.92094713061306  1.27565694819482
 1  6.67592947364736  3.48731643584358  0.75724830453045
 1  7.76630086778678  3.29959862186219 -0.31020424332433
 1 -8.43551450365037 -2.53745080418042 -1.80574726832683
 1 -8.47410839913991 -3.11819500680068  0.10451659095910
 1 -7.03302785538554 -3.33384603590359 -0.98754763996400
 1  6.12223308780878 -0.30673590039004  0.19907789108911
 1 -6.21921390599060  0.28265020352035 -0.03695397219722
 1  4.70989434673467  2.24262270637064  0.41011391819182
 1 -5.13673377367737 -2.63357687408741 -0.60878301940194
 1  3.76102636933693 -0.65977054695470  0.38433807220722
 1 -3.65343297449745  0.15043137303730 -0.08019988668867
 1  2.81940263966397  2.82126252235224  1.37802645794580
 1  1.30215741654165  2.99678040984098  0.52751247874787
 1  2.68366542534253  3.22113258675868 -0.30708467806781
 1 -3.46200807040704 -3.51214957085709 -1.43112812361236
 1 -3.18889049484949 -3.88735072797280  0.24079873127313
 1 -1.79025999729973 -3.83471380578058 -1.19280150655065
 1  0.32472487328733  1.09731564676468  0.00528117331733
 1 -1.29924101270127 -0.15693770657066  0.24877715161516
 1  1.98638718321832 -1.72089113881388 -0.39756932113211
 1 -0.03897338653865 -2.67862290459046 -0.61015187608761

