%nproc=4
%Mem=2GB
# td=(NStates=1) B3LYP/6-31G(d,p) 

TD

0 1
 6  12.17280162276228  0.54774537503750 -0.63708982788279
 6 -12.17541985608561  0.01904686308631  0.99764894379438
 6  13.54675408810881 -0.24951461146115 -0.39037503650365
 6 -12.95196169606961  1.25437982948295  1.38479919431943
 6  13.19287160136014 -1.85194086648665 -0.36915867466747
 6 -13.40641523762376  2.19177768986899  0.23344371147115
 6  11.10301209510951  0.09626389088909  0.26450398819882
 6 -10.98820648844884  0.43151303360336  0.01169353455346
 6  12.32997743514351 -2.16573886788679  0.82693666996700
 6 -12.04470435303530  2.54962527072707 -0.55265360126013
 6  11.20609031703170 -1.18170022452245  0.90841741014101
 6 -11.07252204640464  1.49998562036204 -0.67832670637064
 6  11.78801938963896  0.43466459155916 -2.06307478607861
 6  12.57257067046705  1.94411846694669 -0.34724624362436
 6 -13.03596118691869 -1.07403452215222  0.31580541044104
 6 -11.47297616561656 -0.58560173377338  2.28437658585859
 6  9.85782384498450  0.87643375697570  0.44735673617362
 6 -9.97396720362036 -0.68989153125313 -0.14070815861586
 6  10.16230040634063 -1.71033084478448  2.01689432433243
 6 -10.05742871307131  1.82315405450545 -1.82039350425043
 6  8.53587982768277  0.47403735993599  0.32449065526553
 6 -8.66525948434843 -0.34597446274627 -0.15277160006001
 6  7.35291385958596  1.30642944324432  0.36692930553055
 6 -7.57385627952795 -1.37067554265427 -0.31194159105911
 6  7.56605965566557  2.81474411161116  0.68574101110111
 6 -7.89349653785379 -2.74103411451145 -0.52598987658766
 6  6.08455235673567  0.69231362036204  0.28428058705871
 6 -6.23580219011901 -0.90256107870787 -0.27266937863786
 6  4.81620227092709  1.36608894079408  0.44644430343034
 6 -5.08093770557056 -1.63283926172617 -0.52365374697470
 6  3.69243795539554  0.76155372057206  0.22789473877388
 6 -3.77947333253325 -1.11237186988699 -0.58623106080608
 6  2.35050835223522  1.33206391409141  0.14692918081808
 6 -2.53692269166917 -1.75533059175918 -0.80022330243024
 6  2.23194756635664  2.91408077457746  0.55697007030703
 6 -2.58153869926993 -3.25238876537654 -0.90176152625263
 6  1.21324287278728  0.54055539713971 -0.11963704670467
 6 -1.28851702480248 -1.11384995699570 -0.46750545564556
 6  1.14291866406641 -0.84350929812981 -0.43385090479048
 6 -0.03499295969597 -1.54026026582658 -0.69523327932793
 1  13.98523862966297 -0.05657322782278  0.32017005990599
 1  14.14559157295730 -0.03492186788679 -1.16352989138914
 1 -12.56047241224122  1.83628601880188  2.14766833163316
 1 -14.01024188178818  0.99303879617962  1.81061749984999
 1  14.24796541854185 -2.38163898159816 -0.47522096789679
 1  12.52375825752575 -2.04655855585559 -1.20247637093709
 1 -14.17468085628563  3.02576593659366  0.59429046664666
 1 -14.06143092689269  1.52590226442644 -0.34652867496750
 1  13.05857782158216 -2.27706021262126  1.86737861986199
 1  11.78676613111311 -2.99053274537454  0.51525838143814
 1 -11.51306109820982  3.31956967766777  0.08025454245425
 1 -12.37930414431443  3.00445395319532 -1.67251115231523
 1  11.57965133563356 -0.67131020832083 -2.18450658335834
 1  12.53731061176118  1.06951161246125 -2.82949952395239
 1  10.74509208050805  0.97647075877588 -2.17674839433943
 1  12.88178913301330  2.28772567446745  0.68858619911991
 1  11.97358576547655  2.77580749164917 -0.68932308930893
 1  13.38628048434843  2.18909917981798 -1.04880715181518
 1 -13.70377960866087 -0.46914092309231 -0.52412851355136
 1 -13.65679785238524 -1.63689949414942  1.17961518221822
 1 -12.29995759895990 -1.93056146104610  0.10010412791279
 1 -10.43427591849185 -0.08906454585459  2.55801546064607
 1 -11.02284881028103 -1.73907490819082  2.04539855605561
 1 -12.34188825282528 -0.78483295119512  3.10377890599060
 1  10.32804621122112  1.84003886398640  0.52932884078408
 1 -10.35682012671267 -1.78732384238424  0.04420804280428
 1  9.45187926542654 -0.89855745044504  2.42158591619162
 1  10.85560637473747 -2.37151334923492  2.65786721672167
 1  9.54748681588159 -2.42672252225222  1.59177879947995
 1 -9.49020605590559  0.88646095869587 -1.92885538243824
 1 -9.36559136403640  2.69026254825483 -1.56781682788279
 1 -10.53167343234324  2.08239324472447 -2.74230420372037
 1  8.53150874167417 -0.66087686788679  0.03446649624962
 1 -8.51104449964997  0.61483567766777  0.01252760026003
 1  8.50470370247025  2.88937397329733  1.37448683118312
 1  6.58155003570357  3.15009271347135  0.77183976367637
 1  7.73903814151415  3.23554221622162 -0.41853507640764
 1 -8.46227717991799 -2.89100615971597 -1.24021071467147
 1 -8.42508349664966 -3.18223141044104  0.28888502780278
 1 -6.95677022962296 -3.27611026232623 -0.65629451465146
 1  6.22561342584258 -0.32408763556356 -0.29181119781978
 1 -5.92171415601560  0.22251418991899 -0.09214949174917
 1  4.97525088238824  2.48997744184418  0.91754466126613
 1 -5.18896899719972 -2.73546706310631 -0.77938007910791
 1  3.78842910961096 -0.15704027392739 -0.09290965256526
 1 -3.83917154835484  0.01460779067907 -0.33137500420042
 1  2.54949564896490  2.97973836993699  1.67192584788479
 1  1.23349054985499  3.39920065186519  0.43919364686469
 1  2.73324038283828  3.64685515901590 -0.20204417401740
 1 -3.26758862846285 -3.60166852275228 -1.51714672547255
 1 -2.79095070087009 -3.85932792569257  0.02776742814281
 1 -1.47530850215022 -3.72907324172417 -1.21805403180318
 1  0.21653405420542  1.06255217041704 -0.03844319911991
 1 -1.27197828642864  0.01898988618862 -0.35317304340434
 1  2.12633117761776 -1.30551960166017 -0.61067063126313
 1  0.13928443924392 -2.59956499879988 -0.99033989488949

