%nproc=4
%Mem=2GB
# td=(NStates=1) B3LYP/6-31G(d,p) 

TD

0 1
 6  12.14564890749075  0.44241484198420 -0.90909702860286
 6 -12.15253756785679 -0.02832787438744  0.84104328322832
 6  13.42007141984199 -0.36353601360136 -0.71569756875688
 6 -13.14072057195720  0.99867425892589  1.34946566096610
 6  13.18079039323932 -1.81969764216422 -0.53866562536254
 6 -13.48580317641764  2.05095360746075  0.24678504560456
 6  11.04065585948595  0.06233049754976  0.19948748654865
 6 -11.06447411521152  0.44605448774877 -0.08830646544654
 6  12.38049248664866 -2.08458075207521  0.73208718501850
 6 -12.20209009160916  2.61111141934193 -0.41625996189619
 6  11.28402811081108 -1.08411046554655  0.89853642204220
 6 -11.09290408460846  1.65445106690669 -0.76349522322232
 6  11.40076066376638  0.25200632573257 -2.31852033063306
 6  12.59933334673467  1.91125518061806 -0.71782330133013
 6 -13.13368095889589 -0.99438655735574  0.02186601650165
 6 -11.49342821082108 -0.75800897449745  1.97088523672367
 6  9.94392245484549  0.96354246784678  0.28861086158616
 6 -9.92234204110411 -0.56393893599360 -0.36350043784378
 6  10.40481465776578 -1.41887169886989  2.11244387928793
 6 -10.15041801200120  2.16222796189619 -1.74769623452345
 6  8.58066430613061  0.55620557675768  0.27149535573557
 6 -8.63706666506651 -0.24393425872587 -0.42712903580358
 6  7.43584215241524  1.41283008330833  0.49122173477348
 6 -7.55889478337834 -1.29897837293729 -0.61767216411641
 6  7.63959700940094  2.90496313351335  0.70976341334133
 6 -7.96462365056506 -2.67049706080608 -0.96738401600160
 6  6.22061596309631  0.80176456545655  0.41616377537754
 6 -6.19826843674367 -0.87870869346935 -0.43210532223222
 6  4.88388903960396  1.37312964486449  0.51497115611561
 6 -4.99955956775678 -1.53295927372737 -0.40891227282728
 6  3.75795450705071  0.63371093629363  0.37345929522952
 6 -3.73816920212021 -1.03591422412241 -0.25305774347435
 6  2.39675297669767  1.14581528922892  0.41543603150315
 6 -2.47273627302730 -1.84166922562256 -0.28373165326533
 6  2.33304767636764  2.65250461696170  0.67096146944694
 6 -2.60392093749375 -3.23461698819882 -0.59392074217422
 6  1.25402695119512  0.43678502010201  0.33579849684968
 6 -1.24990316341634 -1.11891046304630 -0.03733243834383
 6  1.17866223842384 -1.01111605880588  0.07469995029503
 6  0.07842838243824 -1.70647688748875 -0.20060381638164
 1  13.83072317811781  0.04930736023602  0.27038508140814
 1  14.12779979377938 -0.18053642934293 -1.59876341474147
 1 -12.67963432843284  1.62084447464747  2.14699826462646
 1 -13.76431728932893  0.46913640594059  1.90961739983998
 1  14.26610723272327 -2.24468528622862 -0.54459790559056
 1  12.55467134883488 -2.37072097209721 -1.42792891619162
 1 -13.99608299649965  2.95877923792379  0.73063410101010
 1 -14.09284406820682  1.40458013221322 -0.42693671577158
 1  13.02676464026403 -2.08941144774477  1.76989887188719
 1  11.87975543004300 -3.03164685678568  0.74980183578358
 1 -11.61805159725973  3.64843256395640 -0.04854833783378
 1 -12.60654686858686  2.80337384518452 -1.58748264946495
 1  11.46042941344134 -0.93756683398340 -2.29491762446245
 1  12.07390427112711  0.83703836513651 -3.09396597059706
 1  10.51285885718572  0.74446755845585 -2.57472819231923
 1  12.54135508960896  2.07166406830683  0.48519586008601
 1  11.69341774867487  2.59257916881688 -1.14642879987999
 1  13.46505836213621  2.33043331323132 -1.19779205030503
 1 -13.55450468116812 -0.79286329532953 -0.95622172287229
 1 -13.73825599819982 -1.42603840804080  0.81604882558256
 1 -12.66573417661766 -1.97254565946595 -0.30691657415742
 1 -10.93360585148515 -0.17872351175118  2.43549320842084
 1 -11.13542006740674 -1.70238123882388  1.77756177237724
 1 -12.17177124112411 -1.04558902680268  2.70013854195420
 1  10.05515892249225  2.05260012011201  0.41958786668667
 1 -10.28549299399940 -1.48273338333833 -0.60443682168217
 1  9.92416649414942 -0.63692128682868  2.58221197879788
 1  11.17717853195320 -1.86435263316332  2.92340377037704
 1  9.55051711891189 -2.13884373437344  1.79866948854885
 1 -9.44842187748775  1.41665397799780 -2.15560805770577
 1 -9.48084288918892  3.09759328132813 -1.45120516671667
 1 -11.03374363936394  2.49026403180318 -2.71219119241924
 1  8.59609520032003 -0.52308308850885  0.03078612821282
 1 -8.38906230143014  0.91304549864986 -0.00773442594259
 1  8.09718295039504  2.82569760566057  1.72120150265026
 1  6.55106698739874  3.42352005620562  0.94517709740974
 1  8.17393163086309  3.47916657865787 -0.04441766466647
 1 -8.47850880308031 -2.76608366746675 -1.89438613221322
 1 -8.44634562286229 -3.09370255755576 -0.00461432213221
 1 -6.94181873447345 -3.36911956325633 -1.01206009120912
 1  6.11371223572357 -0.32899812661266  0.33369135243524
 1 -6.27149913451345  0.08681061956196 -0.16709698649865
 1  5.00423378067807  2.52738118221822  0.50454336113611
 1 -4.92184228452845 -2.65592910931093 -0.51650379147915
 1  3.76753702040204 -0.53733830373037  0.08430806920692
 1 -3.55243287448745 -0.11226489658966 -0.08949081578158
 1  2.89423012241224  3.03938433453345  1.60350900620062
 1  1.20463766456646  2.89777050885088  0.97226695419542
 1  2.45622268106811  3.60023049654965 -0.21165513511351
 1 -3.19268113771377 -3.53962231813181 -1.56640165096510
 1 -3.31450305610561 -3.70527252015202  0.22510716211621
 1 -1.61477244854485 -3.72440277467747 -0.46865909230923
 1  0.44513691449145  1.00596651185119  0.21471211641164
 1 -1.38235932453245 -0.11858387118712  0.12274454835484
 1  2.10935948044804 -1.52476152585259 -0.09489905410541
 1  0.21726223702370 -2.77450249254925 -0.77282814371437

