%nproc=4
%Mem=2GB
# td=(NStates=1) B3LYP/6-31G(d,p) 

TD

0 1
 6  12.20652499509951  0.66095669616962 -0.60650676957696
 6 -12.10721303540354  0.14756971537154  0.90870004890489
 6  13.46666607930793 -0.08273793379338 -0.34658065706571
 6 -12.89346584648465  1.38808319981998  1.33130384478448
 6  13.32766508070807 -1.64331000340034 -0.60574233303330
 6 -13.34847944404440  2.14936344844484  0.14717508460846
 6  11.03176497039704  0.04518878337834  0.26426396419642
 6 -10.97913558135813  0.51064094639464 -0.06423405820582
 6  12.36577101450145 -2.06848914291429  0.55958993529353
 6 -12.17123700630063  2.62062237043704 -0.67177551345135
 6  11.24254396239624 -1.14559661416142  0.77914448284828
 6 -11.00278507270727  1.64505012681268 -0.90095896959696
 6  11.83272386008601  0.68034916001600 -2.05829430803080
 6  12.50072348574858  2.08728278337834 -0.32385390439044
 6 -12.99787737853785 -1.04081119981998  0.31131496139614
 6 -11.56710557855786 -0.48307148074807  2.21993014121412
 6  9.84158222082208  0.96712282588259  0.32697469796980
 6 -9.98544835173517 -0.55934847694769 -0.20205429322932
 6  10.10364454075408 -1.71105091679168  1.74705734063406
 6 -9.94539750995100  1.99281102020202 -1.84088555345535
 6  8.50625686538654  0.47527748394839  0.26666487268727
 6 -8.67348030643064 -0.41597146244624 -0.25073139603960
 6  7.29298786698670  1.26051485178518  0.42386499909991
 6 -7.44446334023402 -1.34204267936794 -0.52523292019202
 6  7.50116316601660  2.69703234043404  0.85221765876588
 6 -7.91260844904490 -2.73170318141814 -0.69233651125113
 6  6.11100500200020  0.68384277327733  0.20470262926293
 6 -6.17717632753275 -0.93981480408041 -0.25782789448945
 6  4.81987263796380  1.28725105700570  0.25827548654865
 6 -5.08873848564857 -1.74136011381138 -0.46451783338334
 6  3.64508321992199  0.53520108530853  0.10221217051705
 6 -3.73719910511051 -1.28608924162416 -0.16801923962396
 6  2.34816811821182  1.14234494219422  0.24380886878688
 6 -2.45875487488749 -2.00536559525953 -0.41844512461246
 6  2.22883725532553  2.68581794829483  0.53535790909091
 6 -2.63037358275828 -3.44251777827783 -0.77222857295730
 6  1.17776932543254  0.44150549214922 -0.04201928492849
 6 -1.38240641374137 -1.21243981598160 -0.12328103320332
 6  1.16266063826383 -0.99411435863586 -0.14648216791679
 6  0.00237077667767 -1.73006924672467 -0.17719147514751
 1  13.88695880168017  0.21251368086809  0.52413045594559
 1  14.07829484328433  0.39648127242724 -1.06971050945094
 1 -12.14019038403840  2.08595098529853  2.00397396219622
 1 -13.98790964856486  1.09108860116012  1.69322576067607
 1  14.42034265626563 -2.13784460216022 -0.58616206200620
 1  12.95396127782778 -1.98293219321932 -1.74205032833283
 1 -13.89152254045404  3.02227558755876  0.66464750235023
 1 -14.01583636743674  1.66343601780178 -0.45324934703470
 1  12.97342930673067 -2.35049755635564  1.49770165216522
 1  12.00068752325232 -3.07436112821282  0.12775963156316
 1 -11.75749554165417  3.46025374607461 -0.02288577157716
 1 -12.49311552545255  3.13249675747575 -1.56581048224822
 1  11.51802517301730 -0.31957503480348 -2.51679981268127
 1  12.60329721042104  1.13285794709471 -2.69576615061506
 1  10.84766233753375  1.05854896659666 -2.41927264676468
 1  12.61220217431743  2.04541144304430  0.75616295679568
 1  11.59231763866387  2.87544745564556 -0.40297445444544
 1  13.41785364166417  2.31123139303930 -0.85239751085108
 1 -13.60820005070507 -0.74438844784478 -0.56735283598360
 1 -13.68124029662966 -1.23083888808881  1.20017723842384
 1 -12.37718532173217 -1.88439684458446 -0.04282016451645
 1 -10.82276476737674  0.29369372997300  2.53017267636764
 1 -10.82569909530953 -1.30666166686669  2.18445246144614
 1 -12.07033109710971 -0.81740620852085  3.21166969506951
 1  10.04703811041104  1.93960882098210  0.66789269716972
 1 -10.50266471117112 -1.45755086508651 -0.45505188318832
 1  9.61648572607261 -0.94627222192219  2.45255901350135
 1  10.35243605770577 -2.45482168006801  2.51006243624362
 1  9.30481254845485 -2.14878472847285  1.11010063166317
 1 -9.39485652095209  1.15850816341634 -2.20995349224922
 1 -9.38983378827883  2.88362188418842 -1.48154820102010
 1 -10.37340760576058  2.46898190359036 -2.71987196049605
 1  8.32052764356436 -0.59850063026303 -0.09639659005901
 1 -8.36307970317032  0.58972316641664  0.15430177767777
 1  8.04903813591359  2.58320335623562  1.86862624512451
 1  6.54876675737574  3.19208691289129  1.24725730543054
 1  8.15490972867287  3.08134679667967  0.09540631773177
 1 -8.69900085228523 -2.69456651575157 -1.48174486808681
 1 -8.36591758005800 -3.18371155845585  0.14653079237924
 1 -7.03363791639164 -3.38322097339734 -0.53403228842884
 1  5.90722158665867 -0.31249647644764 -0.16318833553355
 1 -6.10419240384038  0.16863880238024 -0.12130240704070
 1  4.73505686298630  2.40550899499950  0.37926083288329
 1 -5.19423952425243 -2.56666018241824 -0.94898703980398
 1  3.56750701740174 -0.44878944884488 -0.05019538113811
 1 -3.82550018121812 -0.36572024212421  0.60657879117912
 1  2.76078677807781  2.87016741284128  1.35434408970897
 1  1.05569277007701  3.11357208900890  0.71201092859286
 1  2.66554361316132  3.26372684618462 -0.14006797639764
 1 -3.15675754535454 -3.70241859775978 -1.79271428222822
 1 -2.95303690949095 -3.90069206210621  0.19876452785279
 1 -1.50758172947295 -3.78786912131213 -0.64232645904590
 1  0.30293269406941  0.95632154735474  0.15060570577058
 1 -1.45498658725873 -0.10039205200520  0.00060233413341
 1  2.03330187468747 -1.72771182088209 -0.11327089128913
 1  0.23883439423942 -2.75050009230923 -0.33989485038504

