%nproc=4
%Mem=2GB
# td=(NStates=1) B3LYP/6-31G(d,p) 

TD

0 1
 6  12.16872121472147  0.49042964346435 -0.69072519141914
 6 -12.06387870197020 -0.01541658325833  0.83924310321032
 6  13.46081549424943 -0.21905156515652 -0.59631563056306
 6 -13.05066156605661  1.19423381488149  1.25611632603260
 6  13.17497981218122 -1.70641631403140 -0.59669142794279
 6 -13.43782837893789  2.09699821192119  0.09387975507551
 6  10.92224401830183 -0.00400613611361  0.15230276807681
 6 -11.01957962576258  0.48684856715672 -0.04826246104610
 6  12.33784822222222 -2.00349264326433  0.70237421372137
 6 -12.22726260886088  2.70995130333033 -0.55832416831683
 6  11.20399010701070 -1.11450350485048  0.91182775117512
 6 -11.11379617381738  1.59056467826783 -0.86865573927393
 6  11.70289087678768  0.44994611971197 -2.19431791039104
 6  12.47593100650065  2.10182423752375 -0.30461198019802
 6 -12.75347293809381 -1.12148926762676  0.20969479937994
 6 -11.42520138813881 -0.46454962856286  2.14600274847485
 6  9.82044010661066  0.81345745934593  0.42047404790479
 6 -9.97472727962796 -0.56006854895490 -0.29919400720072
 6  10.08024220052005 -1.73105291699170  1.80542317721772
 6 -10.01924489468947  2.00677241634163 -1.92341380628063
 6  8.56094233393339  0.57673762996300  0.25061326752675
 6 -8.62820577897790 -0.25975584088409 -0.14848117101710
 6  7.33449201740174  1.40162896319632  0.40655326792679
 6 -7.54643353725373 -1.35316379147915 -0.26590698759876
 6  7.64277732743274  2.80525316251625  0.84436687368737
 6 -8.00314750295029 -2.74653466456646 -0.55900317791779
 6  6.19225312681268  0.73233762276228  0.20020217921792
 6 -6.23046165606561 -0.86271709430943 -0.16458857055706
 6  4.89267991869187  1.41392372427243  0.54030368936894
 6 -4.99873948574858 -1.64050002780278 -0.43886526812681
 6  3.67863657525753  0.75231279647965  0.20077202650265
 6 -3.75324070927093 -1.10480111281128 -0.19347178487849
 6  2.41861516291629  1.22594330203020  0.34112860076008
 6 -2.54836383578358 -1.89328438713871 -0.47159043914391
 6  2.24224859645965  2.72045141164116  0.68953332663266
 6 -2.67499804520452 -3.41236476297630 -0.80624197429743
 6  1.27408895739574  0.46623796539654  0.10534545154515
 6 -1.27106527962796 -1.21734030603060 -0.29115782088209
 6  1.16098047024702 -1.04753970117012 -0.16259377907791
 6  0.04961550115012 -1.80244648444844 -0.43158691469147
 1  14.09689979577958  0.07114954445445  0.34544258715872
 1  14.11952896669667  0.08934055835584 -1.62007554595460
 1 -12.54707107210721  1.73465585578558  1.94350791559156
 1 -13.82904376197620  0.78943843614361  1.83108954705471
 1  14.15491611361136 -2.48820963866387 -0.51365481128113
 1  12.68756463816382 -2.18637253725373 -1.48037416071607
 1 -14.19689307750775  2.72776613661366  0.48825986358636
 1 -14.00330511431143  1.53398307250725 -0.72934695679568
 1  13.06169813361336 -2.18830133673367  1.52186406840684
 1  11.91253870837084 -2.98782247434744  0.52560941654165
 1 -11.67633742584258  3.54100182088209 -0.02830631363136
 1 -12.33731994589459  3.17934144194419 -1.70545444664466
 1  11.56938030853085 -0.63392646994700 -2.49311744444444
 1  12.30501738243824  0.89249391069107 -2.89358593259326
 1  10.73448101940194  0.79163227492749 -2.24459517901790
 1  12.63413436753675  2.42289919181918  0.68816615711571
 1  11.71329973687369  2.79014892579258 -0.69011316831683
 1  13.29996185248525  2.30831110101010 -0.95050732183218
 1 -13.44709394009401 -0.89324333333333 -0.56356245694569
 1 -13.46151832443244 -1.54963076727673  0.99569679037904
 1 -12.21857946114612 -2.05288369326933  0.00708482598260
 1 -10.71928441934194  0.34049841044104  2.49784944404440
 1 -10.90465699109911 -1.53809481018102  2.00084410061006
 1 -12.16708077207721 -0.51409587748775  3.08074660276028
 1  10.05622902950295  1.84574943504350  0.59339524742474
 1 -10.34984942964296 -1.59931504150415 -0.56957333533353
 1  9.43667774527453 -1.05170276497650  2.22811656925693
 1  10.58743955805581 -2.27623382128213  2.56535796579658
 1  9.63995606280628 -2.51053090309031  1.10736035763576
 1 -9.08066510181018  1.35786809940994 -2.19589208610861
 1 -9.72095690059006  2.97154067606761 -1.60390043624362
 1 -10.72741300630063  2.19009401480148 -2.73395336863686
 1  8.53545913671367 -0.48940972117212 -0.01883883428343
 1 -8.26863025822582  0.47773196729673  0.29420576807681
 1  8.27734096619662  2.97269230513051  1.86850623312331
 1  6.61353323402340  3.27665536973697  0.88917149684968
 1  8.04983922162216  3.50786944894489 -0.06991021392139
 1 -8.66329728192819 -2.87591465056506 -1.56299299289929
 1 -8.49218020632063 -3.02257544484448  0.23026916621662
 1 -7.19410396299630 -3.50719337063706 -0.72661154635464
 1  6.12751361586159 -0.39079430623062 -0.11128314501450
 1 -6.09476146074607  0.11439337783778 -0.09351962876288
 1  4.80157351465147  2.50411885598560  0.69655256205621
 1 -5.06192629292929 -2.79735325172517 -0.65836797789779
 1  3.89847011371137 -0.39754432433243  0.01757139553955
 1 -3.69665729692969 -0.12564623472347  0.13052118541854
 1  2.86237693709371  2.92749314541454  1.60122877817782
 1  1.21258845964596  2.98855958775878  0.86401612911291
 1  2.62365942474247  3.10741121462146 -0.15403937353735
 1 -3.23502537213721 -3.45618397429743 -1.83721873267327
 1 -2.98717032283228 -3.88896088898890  0.18064271567157
 1 -1.75631660296030 -3.85824615901590 -1.22320454685469
 1  0.40570297109711  0.92603851905190  0.02763340854085
 1 -1.10541162976298 -0.17404941774177  0.07375964986499
 1  2.12521106560656 -1.54203325302530 -0.18488805300530
 1  0.19288979977998 -2.87833287558756 -0.56843770467047

