%nproc=4
%Mem=2GB
# td=(NStates=1) B3LYP/6-31G(d,p) 

TD

0 1
 6  12.14202854545455  0.48135873637364 -0.84926104500450
 6 -12.04371668576858 -0.03803884548455  0.96776595549555
 6  13.38079749244925 -0.38935859585959 -0.73150914991499
 6 -12.84361086098610  1.22018641014101  1.31950266466647
 6  13.02683499769977 -1.88103377577758 -0.58531028982898
 6 -13.35669026512651  2.06921543364336  0.17238760586059
 6  11.04807660156016  0.00766503100310  0.26995453325333
 6 -10.99921758955895  0.42461234353435 -0.06528416321632
 6  12.18460289768977 -2.21725401940194  0.67609158545855
 6 -12.21399128172817  2.56318662686269 -0.66859519541954
 6  11.16955666366637 -1.12061411591159  0.93245981438144
 6 -11.11939673387339  1.55789141094109 -0.83218209190919
 6  11.57868845654566  0.56593771887189 -2.30050852945295
 6  12.58148156155616  1.99601365646565 -0.43178469746975
 6 -13.01101869266927 -1.11344846354635  0.38900273017302
 6 -11.44807367536754 -0.46886005960596  2.29566771497150
 6  9.89304736733673  1.00406652025203  0.45225722622262
 6 -9.81980178707871 -0.61920446254625 -0.24624871267127
 6  10.17080125642564 -1.66606641834183  1.95254788968897
 6 -10.12954592479248  1.96360809990999 -1.96060752565257
 6  8.61244748444845  0.58805876207621  0.36443464966497
 6 -8.55904886328633 -0.41463132843284 -0.46394271717172
 6  7.44451301950195  1.40445924622462  0.40442305490549
 6 -7.58381727562756 -1.36236471157116 -0.65300569746975
 6  7.71499454915492  2.86741937913791  0.77997043404340
 6 -8.04522171037104 -2.86842685378538 -0.69087636523652
 6  6.18701260276028  0.83031742074207  0.28383054205421
 6 -6.23300191009101 -0.88291911451145 -0.48888099979998
 6  4.88075872657266  1.43103543544354  0.42167182618262
 6 -5.01628123992399 -1.68036401420142 -0.52793417501750
 6  3.69317802940294  0.60417798299830  0.31352330163016
 6 -3.76246163136314 -1.06196682938294 -0.43200563826383
 6  2.43948725012501  1.19779048674868  0.47201168906891
 6 -2.57485648504850 -1.80532559125913 -0.44040732083208
 6  2.33545791739174  2.73480284678468  0.88002237553755
 6 -2.51788233363336 -3.37190071657166 -0.72932428252825
 6  1.23451500000000  0.57154849644965  0.16888180518052
 6 -1.38832700580058 -1.08212678467847 -0.23655236033603
 6  1.16197056925693 -0.88286323352335 -0.09194671437144
 6 -0.05667512791279 -1.58060430023002 -0.22607636363636
 1  13.90700080588059 -0.00802837333733 -0.06531848894889
 1  14.03563057685769 -0.12119049474947 -1.56034957335734
 1 -12.27630399539954  1.99822221242124  1.91428499329933
 1 -13.82847370497050  1.02775226752675  1.88427486558656
 1  13.79260988298830 -2.60916173387339 -0.66857030283028
 1  12.36162204390439 -2.12748664866487 -1.47630375367537
 1 -13.98497188538854  3.01213457345735  0.61281231883188
 1 -14.17956274007401  1.56701637583758 -0.53579760186019
 1  12.90044200800080 -2.30309281588159  1.53304518651865
 1  11.69920737523752 -3.23204689678968  0.65447230283028
 1 -11.70430022212221  3.50345806650665 -0.22172565556556
 1 -12.48477469136914  2.95812932073207 -1.65972987418742
 1  11.43610698119812 -0.50215329262926 -2.68218635133513
 1  12.23328020872087  1.03560822212221 -3.00074664866487
 1  10.59244681598160  1.19537264896490 -2.43312403190319
 1  12.76024697879788  2.06210311221122  0.52713005350535
 1  11.91848025492549  2.74787469836984 -0.59256341334133
 1  13.27407926422642  2.37477774767477 -0.90617288838884
 1 -13.38408763946395 -1.00107411641164 -0.63811991269127
 1 -13.90816298889889 -1.26224202840284  1.14456167686769
 1 -12.43461106430643 -2.06530493539354  0.47151126862686
 1 -10.88125061596160  0.63000736133613  2.74702436153615
 1 -10.77939446484648 -1.17125812651265  2.21400541674167
 1 -12.19180324432443 -0.64970943884388  3.20353888198820
 1  9.82010541714171  1.99956481658166  0.83763967186719
 1 -10.09608405310531 -1.70324543454345 -0.12141851985198
 1  9.62570664816482 -0.80904849954995  2.36490024762476
 1  10.66888770287029 -2.06207240514051  2.90197162716272
 1  9.54786685388539 -2.32264211421142  1.47654727632763
 1 -9.31162819811981  1.24850716331633 -2.20703320022002
 1 -9.41391619651965  2.83652717471747 -1.61919196539654
 1 -10.79268953395340  2.28736374177418 -2.91478145144514
 1  8.22503809460946 -0.37711849204921  0.33400645024502
 1 -8.03577697289729  0.62750694479448 -0.52766641914191
 1  7.99608284038404  2.97447248314831  1.93599298179818
 1  6.83037491819182  3.35604330853085  0.85937851755176
 1  8.14621885958596  3.45757441944194  0.27903468056806
 1 -8.78116906910691 -3.13735079417942 -1.56436312991299
 1 -8.58069905820582 -3.24450763806381  0.35670180948095
 1 -7.19934448704871 -3.44789744104410 -0.85820470567057
 1  6.29798066256626 -0.17509273607361  0.00500848414841
 1 -6.22147413201320  0.15197713621362 -0.32652292909291
 1  4.76706006330633  2.46816526062606  0.58848175497550
 1 -5.25533563386339 -2.69316283268327 -0.98747088818882
 1  4.09369963666367 -0.41735630553055 -0.03762412401240
 1 -3.66404403560356  0.00141647154716 -0.28980084678468
 1  2.72142284168417  2.75881627772777  1.93444209950995
 1  1.20182738353835  2.96252698449845  1.12692241974197
 1  2.90194725352535  3.50705117861786  0.37442347274727
 1 -2.95923779337934 -3.52782113801380 -1.86665167596760
 1 -3.35365697149715 -3.84746673957396 -0.12692804140414
 1 -1.39191016231623 -3.67284761916192 -0.57156938333833
 1  0.30395279607961  1.01161707690769  0.47343798899890
 1 -1.51725281388139 -0.02405441824182 -0.01147887398740
 1  2.17530607510751 -1.33727277697770 -0.12781234543454
 1  0.20503101390139 -2.75517055935594 -0.29740060096010

