%nproc=4
%Mem=2GB
# td=(NStates=1) B3LYP/6-31G(d,p) 

TD

0 1
 6  12.04662900550055  0.56617721822182 -0.76199231813181
 6 -12.10361267536754 -0.05196023762376  0.89078825772577
 6  13.43138255095510 -0.21360102010201 -0.70096609560956
 6 -12.98217471737174  1.14452884438444  1.26338705310531
 6  13.29741205540554 -1.74120979337934 -0.52238399719972
 6 -13.34342893899390  2.10277878997900  0.19529989708971
 6  11.09691148504850  0.01999626412641  0.32510004780478
 6 -10.98127579537954  0.42086196849685 -0.16055369016902
 6  12.46954139153915 -1.91605389938994  0.70818479477948
 6 -12.13385326792679  2.63118342654265 -0.53870220612061
 6  11.23659336733673 -1.14291634613461  0.97233380178018
 6 -10.99758455265527  1.62823844564456 -0.75481435513551
 6  11.55054564226423  0.47002812791279 -2.22481095969597
 6  12.37892130553055  2.11102515761576 -0.43355487448745
 6 -12.96012360316032 -1.13187030573057  0.14507833773377
 6 -11.38754762276228 -0.68788196179618  2.05252340054005
 6  9.84659272187219  0.85487160076008  0.43471547204720
 6 -9.82062186908691 -0.54308685078508 -0.30085417321732
 6  10.28344252055205 -1.70656046774677  2.07635026992699
 6 -9.96012898309831  2.28798053715372 -1.67796926182618
 6  8.60378661836184  0.45931588778878  0.25951415761576
 6 -8.51908486688669 -0.29432929822982 -0.25271159405941
 6  7.35923449164917  1.26216501680168  0.41848446104610
 6 -7.53063195709571 -1.26257473257326 -0.51945234213421
 6  7.52548559825983  2.74963760096010  0.66888932593259
 6 -7.97679486768677 -2.61869188028803 -0.79633691129113
 6  6.19445334683468  0.65206959595960  0.20928308730873
 6 -6.21317992789279 -0.85467629022902 -0.25821793349335
 6  4.87110776147615  1.32969530143014  0.32158181718172
 6 -5.03202281408141 -1.56125210301030 -0.41704308590859
 6  3.68684739633963  0.53136070127013  0.16650860016002
 6 -3.77110249544954 -1.18426905960596 -0.19698213591359
 6  2.31560486188619  1.21307201490149  0.26812130003000
 6 -2.56993599299930 -1.92236729542954 -0.34771805190519
 6  2.22468684028403  2.68782814931493  0.39985435873587
 6 -2.66535708110811 -3.33439696619662 -0.79522087218722
 6  1.18125967446745  0.46471781338134  0.21585650265026
 6 -1.46750492359236 -1.20333890589059 -0.13699240434043
 6  1.03125749794979 -0.91440638783878 -0.04803232293229
 6 -0.11540100050005 -1.69150539033903 -0.05174893089309
 1  14.03351345714571  0.24894732423242  0.01388943184318
 1  13.95663267706771  0.14760638493849 -1.55533907230723
 1 -12.44402076707671  1.62640503070307  2.04089765456546
 1 -13.70228108570857  0.66538603090309  1.81829826792679
 1  14.18826944894490 -2.15601641934193 -0.43473691949195
 1  12.91394727642764 -2.17186108610861 -1.33625974927493
 1 -13.86718010621062  2.98306166616662  0.66459749734973
 1 -13.95445022882288  1.69357903210321 -0.64800882298230
 1  13.15830779457946 -1.81542404900490  1.67106898889889
 1  12.38147560206021 -3.08604229632963  0.72380923652365
 1 -11.77194698679868  3.36286400710071  0.14309082608261
 1 -12.34277049094909  3.13096660446045 -1.61145504670467
 1  11.33529690019002 -0.47418049534953 -2.48629676237624
 1  12.17934481518152  1.04718938023802 -2.97498407240724
 1  10.62351992329233  0.78118122982298 -2.61593231273127
 1  12.72076303040304  2.39468637053705  0.59511685218522
 1  11.49810821772177  2.97191710261026 -0.56433059005901
 1  13.18196005230523  2.49309957985799 -1.15074734583458
 1 -13.31115034573457 -0.65799980898090 -0.97621372207221
 1 -13.91385355795579 -1.39475527972797  0.77330455115512
 1 -12.39513711691169 -2.03577198209821  0.05398951645165
 1 -10.65078756965697 -0.08464410381038  2.55946560566057
 1 -10.73438996439644 -1.53649465016502  1.84421843804380
 1 -12.05399946394639 -1.22912738063806  2.94893342144214
 1  10.01983539013901  1.92411727182718  0.57946385428543
 1 -10.23735818051805 -1.70129523952395 -0.51842822082208
 1  9.46451052855286 -0.94810240494049  2.23943770137014
 1  10.79104991909191 -2.22145834373437  2.95985741574157
 1  9.71339340654066 -2.40951080108011  1.39714933653365
 1 -9.46450348564856  1.31163347594759 -2.07396989388939
 1 -9.30251505640564  3.11865538753875 -1.28006805300530
 1 -10.38520878587859  2.83433843924392 -2.48354832813281
 1  8.42579817061706 -0.58122890309031 -0.04376132653265
 1 -8.30809420462046  0.83686788088809  0.04198054555455
 1  7.99924315641564  3.03938897479748  1.45978536103610
 1  6.52101398209821  3.31918962316232  0.78684126382638
 1  8.16102033973397  3.26603526552655  0.10539731683168
 1 -8.96980793299330 -2.52073913301330 -1.60059675327533
 1 -8.19780076837684 -3.20012319961996  0.27059319861986
 1 -7.05035958855886 -3.22114476577658 -1.22047093229323
 1  6.16786765126513 -0.39249447624763  0.08415639893989
 1 -5.99515149974997  0.16326826532653 -0.02244252105210
 1  4.93074643194319  2.31843028712871  0.47590049684968
 1 -5.20460056035604 -2.64138765516552 -0.51128326942694
 1  3.76007627432743 -0.55422999289929 -0.09815017661766
 1 -3.63207083828383 -0.10662433253325 -0.09951181788179
 1  2.38959965936594  2.87792818891889  1.59691834713471
 1  1.20543774457446  3.10054078587859  0.10812053955396
 1  3.06011307010701  3.21422189568957 -0.21940591019102
 1 -3.38234010361036 -3.42672102800280 -1.66427143794379
 1 -3.19170077587759 -3.55341733463346  0.26467111851185
 1 -1.79583055435544 -3.92216255065507 -1.03013523992399
 1  0.21042344314431  0.98415433063306  0.49530017521752
 1 -1.54424551315131 -0.09311132393239 -0.21910963706371
 1  2.05271381588159 -1.35793484318432 -0.23211277547755
 1  0.05940645144514 -2.76155119741974 -0.05939680058006

