%nproc=4
%Mem=2GB
# td=(NStates=1) B3LYP/6-31G(d,p) 

TD

0 1
 6  12.20918526112611  0.56064666516652 -0.64691080998100
 6 -12.09591190529053 -0.05059010061006  0.90747992689269
 6  13.45305471817182 -0.42321198119812 -0.51772777177718
 6 -12.98813531343134  1.14540893239324  1.41061177557756
 6  13.04435674987499 -1.78589426182618 -0.47684944374437
 6 -13.36509110521052  2.02924143624362  0.27329769686969
 6  11.05740753465347 -0.03520925642564  0.24056159395940
 6 -11.05469313711371  0.33704358665867 -0.03873150795080
 6  12.27694213161316 -2.17049934393439  0.75362933923392
 6 -12.12756263886389  2.62045235343534 -0.51832016791679
 6  11.17408711671167 -1.19823187768777  0.98338490689069
 6 -11.11527632183218  1.55307092889289 -0.68927780148015
 6  11.63245383308331  0.55044616971697 -2.03587206580658
 6  12.70296370977098  1.99661371647165 -0.25148666766677
 6 -13.13306089688969 -1.13828094679468  0.30245407530753
 6 -11.39300816881688 -0.66760993459346  2.17305545374537
 6  9.98808687128713  0.96354246784678  0.47565956645665
 6 -10.05133494039404 -0.59754229632963 -0.15939002680268
 6  10.15957013331333 -1.63140295199520  1.99013164806481
 6 -9.95536850705071  2.02570430953095 -1.74125559045905
 6  8.66266250595059  0.62023197939794  0.32788099429943
 6 -8.67524048244825 -0.25785565086509 -0.30239656255626
 6  7.42257082528253  1.49550835113511  0.33284589718972
 6 -7.55026392029203 -1.25742421752175 -0.46093649054905
 6  7.43351640134013  2.93438607580758  0.61633407040704
 6 -7.92050923912391 -2.70554056515652 -0.59557683528353
 6  6.24461836333633  0.78558294729473  0.26822898189819
 6 -6.23532214211421 -0.84882570517052 -0.42194430613061
 6  4.94629528022802  1.30768310021002  0.27402706170617
 6 -5.02972258405841 -1.59785576337634 -0.51723310491049
 6  3.75568428002800  0.70251781698170  0.03817576687669
 6 -3.76200158535854 -0.98914954765477 -0.52808524622462
 6  2.43939724112411  1.20785149284928  0.22317680558056
 6 -2.47539653905391 -1.76567162586259 -0.60693397349735
 6  2.16517088868887  2.61369073557356  0.53596797009701
 6 -2.66739728512851 -3.32891641814181 -0.62345369546955
 6  1.29726127462746  0.43103444504450  0.01875679267927
 6 -1.27615578867887 -1.05598417041704 -0.49385809090909
 6  1.13891826402640 -0.99811475867587 -0.21001852155216
 6  0.02984352395240 -1.53189942974297 -0.42169592559256
 1  13.82069217501750 -0.42854042454245  0.47044508740874
 1  14.11930894469447 -0.28343671937194 -1.24429796819682
 1 -12.23619998499850  1.52358474867487  2.36381994679468
 1 -13.78550940854086  0.71860135243524  1.93863030113011
 1  14.06886750875088 -2.56082690039004 -0.41317476327633
 1  12.59815569726973 -2.10731463146315 -1.34684080738074
 1 -14.03225661386139  2.84663802380238  0.49220025762576
 1 -13.92169695349535  1.51612128632863 -0.43429745184518
 1  12.86130809460946 -2.16410891749175  1.75614749674967
 1  11.93087054155415 -3.33912760486049  0.63998085368537
 1 -11.90498029012901  3.54005172587259  0.05360187718772
 1 -12.59704591849185  2.99532304010401 -1.44184808600860
 1  11.31838520902090 -0.62792586988699 -2.29086721942194
 1  12.53802068276828  0.74124878617862 -2.58229480348035
 1  10.85482305360536  1.24297740944094 -2.20367108660866
 1  12.89624057815782  2.17446434833483  0.63982132263226
 1  11.89421782868287  2.86789670057006 -0.43930808780878
 1  13.40659251555156  2.20071034093409 -1.01373364446445
 1 -13.92103133383338 -0.48320232923292 -0.40044614531453
 1 -13.97470964356436 -1.30108591279128  1.08528574927493
 1 -12.61409901310131 -2.02816122102210 -0.04989087158716
 1 -10.57113960486049  0.11927628822882  2.58192785188519
 1 -10.90344687008701 -1.58646964766477  1.80542455865587
 1 -12.26246031003100 -0.80336480438044  2.98151667976798
 1  10.41346475307531  1.96610147024703  0.48450435833583
 1 -10.32353679837984 -1.85367047704770 -0.08122450045005
 1  9.48853293079308 -0.85283287798780  2.53366712431243
 1  10.56397721182118 -2.14117031493149  2.67621905190519
 1  9.38602066926693 -2.37715756575658  1.55430505210521
 1 -9.24319135443544  1.12632494509451 -1.94175667256726
 1 -9.37518232313231  3.06258978097810 -1.54572461866187
 1 -10.55396566156616  2.15594059945995 -2.65174514781478
 1  8.20056564736474 -0.41950273047305  0.07745079467947
 1 -8.30757415261526  0.67345153925393 -0.06796044854485
 1  8.03983721582158  3.01385642154215  1.46158554105411
 1  6.51106298699870  3.36966467066707  0.60245282498250
 1  8.11562580028003  3.29273793579358 -0.18963218611861
 1 -9.16051700390039 -2.82362942204220 -1.18407510111011
 1 -8.10668165646565 -3.01151433873387  0.59488562786279
 1 -7.00962551515151 -3.15216786808681 -0.98660754595459
 1  6.29263012751275 -0.31409663646365  0.15924390769077
 1 -6.13835582018202  0.13298523702370 -0.33747402420242
 1  4.79770312761276  2.28603704780478  0.91729463626363
 1 -5.01610171047105 -2.67888140454045 -0.59723186428643
 1  3.89402966966697 -0.47158172807281 -0.39670003160316
 1 -3.67974560576058 -0.03811748184819 -0.29173103980398
 1  2.57511821122112  2.85815621172117  1.37614626992699
 1  1.13887108790879  2.84492522432243  0.64614434193419
 1  2.57341440024002  3.40969144264426 -0.27585155475548
 1 -3.25509737933793 -3.55021337723772 -1.48428343914391
 1 -3.23774538033803 -3.75194718761876  0.08497314871487
 1 -1.62235320662066 -3.62349268366837 -0.63761598799880
 1  0.36400880168017  0.94816073127313  0.04752539773977
 1 -1.46479756835684 -0.00009202200220 -0.44180190629063
 1  2.00632917741774 -1.57896694639464 -0.20603016721672
 1  0.14147465826583 -2.61885692799280 -0.71251211211121

