%nproc=4
%Mem=2GB
# td=(NStates=1) B3LYP/6-31G(d,p) 

TD

0 1
 6  12.20006434903490  0.55439604010401 -0.56808292719272
 6 -12.19924223832383 -0.07318235983598  0.80499967886789
 6  13.56672608530853 -0.31998165816582 -0.49555555455546
 6 -13.04686118601860  1.19127351885189  1.19170988538854
 6  13.15924823902390 -1.80041571397140 -0.52480423922392
 6 -13.39430402650265  1.98455696779678  0.01687205430543
 6  11.06667846174618 -0.02642837833783  0.28004554235424
 6 -11.02074974277428  0.37701758405841 -0.01327896269627
 6  12.31762620002000 -2.24533682768277  0.65642961926193
 6 -12.15387527012701  2.67575788398840 -0.57055539143914
 6  11.13201290929093 -1.20170222472247  0.89808637703770
 6 -11.00373516771677  1.60305592739274 -0.65233410711071
 6  11.74168475617562  0.77980910601060 -2.06526500510051
 6  12.66241965536554  2.03513756885689 -0.06174769376938
 6 -13.02412000280028 -1.09348646734673  0.00586441634163
 6 -11.66272514051405 -0.76974014761476  2.12044019221922
 6  9.91607967056706  0.93253936753675  0.41476347684768
 6 -9.92010181708171 -0.59088163026303 -0.24407849564957
 6  10.07182135843584 -1.77774758645865  1.84030666556656
 6 -9.84478744894490  2.11929366846685 -1.49968143304330
 6  8.57287352705271  0.47036699289929  0.20901910811081
 6 -8.53432639103910 -0.37679754505451 -0.03073939683968
 6  7.43813238143814  1.29404820512051  0.37343995659566
 6 -7.51150004390439 -1.34790326542654 -0.23626402330233
 6  7.63312636233623  2.80781341854185  0.56651908890889
 6 -7.92793998219822 -2.66454646574657 -0.69296657425743
 6  6.14243814531453  0.80498488748875  0.11735389438944
 6 -6.22259086898690 -0.89444026662666 -0.08164027572757
 6  4.82775342604260  1.34557688958896  0.07039669866987
 6 -5.02291190299030 -1.66821279907991 -0.34094547614761
 6  3.63498220982098  0.63943150835083  0.03325527482748
 6 -3.79193457865787 -1.13129376207621 -0.16348878657866
 6  2.39115241664166  1.28207891559156  0.02107659555956
 6 -2.52190118951895 -1.76370142884288 -0.31864514461446
 6  2.23382775437544  2.69208857535754  0.29913428672867
 6 -2.60700124552455 -3.22308583508351 -0.66132748284828
 6  1.14735628412841  0.52239358095810 -0.01642672567257
 6 -1.32880105320532 -1.20152872487249 -0.14476318141814
 6  1.06018039023902 -0.82439738693869 -0.24230174987499
 6  0.00915145474547 -1.59093533333333 -0.24101785778578
 1  14.08914902070207 -0.10540811131113  0.32309035193519
 1  13.93938095189519  0.10149177347735 -1.58242178057806
 1 -12.34769113411341  1.83895628582858  1.87408097289729
 1 -13.79353021062106  0.84105359765977  1.81777821592159
 1  14.18615923792379 -2.25036585428543 -0.50381382718272
 1  12.66271215291529 -2.01729562956296 -1.38044416771677
 1 -14.27251063926393  2.83566692669267  0.27141817941794
 1 -13.89575435923592  1.44767444164416 -0.90307432953295
 1  12.94542650645064 -2.34824733133313  1.57358924092409
 1  11.69551700620062 -3.21700539263926  0.39383623922392
 1 -11.74015380748075  3.23445116581658  0.19954647164716
 1 -12.29837605150515  3.32134564236424 -1.54115801700170
 1  11.61816518701870 -0.24688776607661 -2.58353648634863
 1  12.40254713541354  1.42286694799480 -2.73711028502850
 1  10.68687625892589  1.27623073477348 -2.19074979447945
 1  12.90991194529453  1.83675057695770  1.07866520702070
 1  11.72137054395439  2.82876278717872  0.09817566056606
 1  13.34458631493149  2.20316058595860 -0.83103537463746
 1 -13.22936216691669 -0.63270727972797 -1.12625872657266
 1 -13.91994416701670 -1.44807061126113  0.50902812351235
 1 -12.34107171037104 -1.96129453435344 -0.28673455595560
 1 -11.14649714061406 -0.00049568896890  2.85238489758976
 1 -10.98476500190019 -1.53450445114511  1.69234325052505
 1 -12.71047511151115 -1.12907737563756  2.58403693179318
 1  10.18888229482948  1.82287714781478  0.69832574047405
 1 -10.21696614131413 -1.59462457245725 -0.32564894289429
 1  9.38436251375138 -0.96347394209421  1.93546730433043
 1  10.43654446854685 -2.33617981588159  2.67579900990099
 1  9.75844791199120 -2.72500235023502  1.44726434803480
 1 -9.03871090639064  1.38426073867387 -1.72081457835784
 1 -9.35772057695770  2.98409193119312 -1.12672271847185
 1 -10.26433669866987  2.56204120952095 -2.44983495679568
 1  8.22230782158216 -0.46798757895790 -0.07656460686069
 1 -8.20821421662166  0.63026722082208  0.11582793029303
 1  8.40457368946895  3.11083611951195  1.39834921742174
 1  6.66227810851085  3.38590629482948  0.80448302800280
 1  8.35606984468447  3.30669933193319 -0.28811203410341
 1 -8.49347029922992 -2.65373243234323 -1.56666335993599
 1 -8.67082807110711 -3.21107429472947  0.04862100140014
 1 -7.05932048464847 -3.55992864416442 -0.68144702990299
 1  6.18487935243524 -0.25996122292229 -0.09337135383538
 1 -6.16821880648065  0.06704864336434  0.30304002720272
 1  4.82648600590059  2.41582002610261  0.12150505730573
 1 -5.01443154345435 -2.66175969236924 -0.52014415551555
 1  3.61814208090809 -0.38710328022802 -0.28187854945495
 1 -3.72105973717372 -0.05910958105811  0.10518865216522
 1  2.71592229162916  3.21275167126713  1.28112676797680
 1  1.16240344114411  3.11257198899890  0.08946867436744
 1  2.86772383118312  3.37736821032103 -0.52541651125113
 1 -3.26042791239124 -3.33322167806781 -1.59610462126213
 1 -3.14135574137414 -3.74974696759676  0.14907955935594
 1 -1.74697566886689 -3.63118345274527 -0.94604683108311
 1  0.51729413021302  1.30923683888389  0.31056170137014
 1 -1.48073916251625 -0.06656866966697  0.22318459235924
 1  1.92200074457446 -1.32339138883888 -0.22518208240824
 1  0.31676218701870 -2.60264530683068 -0.31570243114311

