%nproc=4
%Mem=2GB
# td=(NStates=1) B3LYP/6-31G(d,p) 

TD

0 1
 6  12.12978732133213  0.54573517401740 -0.53815993489349
 6 -12.13004531863186 -0.08201324292429  1.00114929382938
 6  13.39655906860686 -0.45029468946895 -0.42179817881788
 6 -12.91560806070607  1.11178557005701  1.53960467486749
 6  13.02826514071407 -1.92066773917392 -0.32020377917792
 6 -13.40371496759676  1.98856736883688  0.33957432453245
 6  11.02743453735374  0.04921918641864  0.35630316811681
 6 -10.95806347414741  0.43916379867987  0.00949331453145
 6  12.17086152355236 -2.15991828582858  0.93451742804280
 6 -12.13168305090509  2.58420872907291 -0.39170750665067
 6  11.00123983198320 -1.11224327882788  1.09741631003100
 6 -11.01394618881888  1.59182480428043 -0.59849872357236
 6  11.58706929462946  0.57387851295129 -1.97206568516852
 6  12.74062747614762  1.91125518061806 -0.28665018401840
 6 -13.00092768356836 -1.22313943264326  0.33173700360036
 6 -11.48035690369037 -0.75214838843884  2.30102825102510
 6  9.87549561216122  1.04171028462846  0.31455345584558
 6 -9.91533134003400 -0.53252579467947 -0.18010209800980
 6  10.06469064536454 -1.65779559125913  2.13196583148315
 6 -9.97340031023102  1.97981972107211 -1.58120958585859
 6  8.62596883658366  0.53280323652365  0.32099030523052
 6 -8.57729068746875 -0.29355922122212 -0.19657598049805
 6  7.38742731093109  1.35027382768277  0.24317693029303
 6 -7.54300319421942 -1.26621509660966 -0.52063246014601
 6  7.65687873757376  2.78223086028603  0.44998743574357
 6 -7.90169735793579 -2.67666767786779 -0.95997327492749
 6  6.17477137863786  0.69855424442444  0.19562172117212
 6 -6.20721933183318 -0.84662548514851 -0.45676778847885
 6  4.93429408010801  1.41828416031603  0.20990064906491
 6 -4.99358897069707 -1.59809578737874 -0.63243462506251
 6  3.72891160276028  0.67495506070607  0.08749069836984
 6 -3.79955534073407 -1.14229486218622 -0.55211764946495
 6  2.45058836023602  1.28104881258126  0.08969345724572
 6 -2.52994199359936 -1.78318337703770 -0.58728200830083
 6  2.40115448704870  2.83638300480048  0.24615898919892
 6 -2.60078062346235 -3.33971749824983 -0.82973432353235
 6  1.27203875237524  0.52249359095910 -0.19347443044304
 6 -1.38434660776078 -1.08673724572457 -0.48264696979698
 6  1.09044341654165 -0.85974092129213 -0.15900342004200
 6  0.02126266586659 -1.54779101890189 -0.45293904990499
 1  14.01737184298430 -0.00589816031603  0.37252529542954
 1  14.11110812461246 -0.25373374907491 -1.42010554895490
 1 -12.51693805880588  1.63804619481948  2.25010857565757
 1 -13.79884074167417  0.71223071537154  2.24063050115012
 1  13.66708733073307 -2.64251506920692 -0.43283672947295
 1  12.11077695939594 -1.97867176717672 -1.20281640494049
 1 -14.18413180138014  2.64120748074807  0.79944098169817
 1 -13.90850563436344  1.45429510371037 -0.45461948404840
 1  12.81478344214421 -2.28000050665066  1.95471735373537
 1  11.62866032053205 -3.02922661476148  0.85631248684869
 1 -11.76465625772577  3.50903862456246  0.19484600160016
 1 -12.42177839173917  3.11119462726273 -1.41784568576858
 1  11.27749111961196 -0.49485256255626 -2.37441557425743
 1  12.08538541924193  1.15583024432443 -2.72330890489049
 1  10.74810238153815  1.19135224692469 -2.08292901240124
 1  13.19922087618762  2.18688559045905  0.69676701720172
 1  12.00759916681668  2.77853776467647 -0.41822597959796
 1  13.55373723002300  1.97413768366837 -1.02846511761176
 1 -13.54608383908391 -0.77775178417842 -0.41697779847985
 1 -13.77826999959996 -1.46295209940994  1.01799902060206
 1 -12.34930253345335 -2.01817022192219  0.00157427492749
 1 -10.70397288818882  0.03166752735274  2.52974263336334
 1 -11.08224474987499 -1.76165716641664  2.00669468566857
 1 -12.34992905690569 -0.66969143704370  2.97640616871687
 1  10.11915532213221  2.11974683478348  0.47539344724472
 1 -10.31253569826983 -1.54802991299130 -0.36068244624462
 1  9.50005408290829 -0.80921851655166  2.77681143874387
 1  10.37367818191819 -1.83652985088509  3.06936836683668
 1  9.32008407560756 -2.40238008800880  1.84557417901790
 1 -9.55927296259626  1.04612692529253 -1.68862135903590
 1 -9.17969277417742  2.79849337133713 -1.13061310751075
 1 -10.47547781278128  2.39323432883288 -2.48214818811881
 1  8.28150374117412 -0.53133391359136  0.17963101270127
 1 -7.98183157835784  0.88106230033003  0.02038838633863
 1  7.97862109420942  3.06235127102710  1.39967935043504
 1  6.93963584428443  3.68431613581358  0.44777735743574
 1  8.32080631833183  3.21380004200420 -0.17974119701970
 1 -8.30229118131813 -2.69324638373837 -1.90229692329233
 1 -8.49502049034903 -3.02123531083108 -0.16861072177218
 1 -7.02256680928093 -3.23534618591859 -0.94147303250325
 1  6.28511937643764 -0.39493472027203  0.07900588388839
 1 -6.12482446704670  0.15581752025202 -0.37813809060906
 1  4.94027738503850  2.54586303040304  0.09564247104711
 1 -5.16806690699070 -2.68611212761276 -0.84139628072807
 1  3.96995726242624 -0.47882245214521  0.04181381978198
 1 -3.91128876007601  0.04335066496650 -0.48221008770877
 1  2.86933763316332  3.18088848494850  1.08488714401440
 1  1.32834003480348  3.11581231303130 -0.01218149064906
 1  3.16491355015502  3.03955442894289 -0.47275124472447
 1 -3.03610548014802 -3.46172452835284 -1.78286329712971
 1 -3.19535114091409 -3.88869086198620  0.05166981838184
 1 -1.55698666996700 -3.63182351675168 -0.79752197859786
 1  0.52882528332833  1.06285220042004  0.12425307050705
 1 -1.57492858145815  0.20347833503350 -0.56856458255826
 1  2.01199974447445 -1.47582663236324 -0.13873343754375
 1  0.25960647144714 -2.60895593789379 -0.57669853075308

