%nproc=4
%Mem=2GB
# td=(NStates=1) B3LYP/6-31G(d,p) 

TD

0 1
 6  12.15428977157716  0.49804040454045 -0.84896101500150
 6 -12.14173648774877  0.04278923732373  0.91727090599060
 6  13.35529494219422 -0.31855151515152 -0.77385338433843
 6 -13.07711421132113  1.19012340384038  1.26838755315532
 6  13.04401671587159 -1.88353402580258 -0.59564132293229
 6 -13.49446404250425  1.87189570167017 -0.04854448734873
 6  11.07993978787879  0.06315057955796  0.25613315111511
 6 -11.04733240104010  0.40745062736274 -0.04990262506251
 6  12.30558499589959 -2.06298859285929  0.72974695099510
 6 -12.23641352395240  2.51036134433443 -0.64607294319432
 6  11.21206091409141 -1.02806486098610  0.94744131253125
 6 -11.08945373957396  1.62423804560456 -0.69656853055306
 6  11.43365395309531  0.43198432353235 -2.23965244384438
 6  12.59859327272727  1.99660371547155 -0.60781230023002
 6 -12.83660125092509 -1.09906702540254  0.03679750965096
 6 -11.58719758775877 -0.73502667626763  2.21528967716772
 6  9.81547961056106  0.90352646624662  0.34868686918692
 6 -9.88813862076208 -0.54337687978798 -0.29344343214321
 6  10.22863704000400 -1.61523133483348  1.92555519041904
 6 -9.87240021022102  2.09003074217422 -1.66105757065707
 6  8.52154839453945  0.40891084728473  0.44001220742074
 6 -8.53825678407841 -0.30081994729473 -0.23269959285929
 6  7.43162173037304  1.30181898219822  0.45624823742374
 6 -7.41946083998400 -1.18335681078108 -0.49923031993199
 6  7.61863491319132  2.88733137033703  0.54626706370637
 6 -7.85045223342334 -2.64651466256626 -0.86966424402440
 6  6.13262716421642  0.72399678867887  0.32536469546955
 6 -6.14364297419742 -0.72453327592759 -0.41393350505051
 6  4.87863851455146  1.32945527742774  0.50375003400340
 6 -4.98709832163216 -1.46352233003300 -0.57152853445345
 6  3.70545925752575  0.65858342354235  0.42574452375238
 6 -3.70816620182018 -1.04850548324832 -0.27459989768977
 6  2.34616791819182  1.17323803150315  0.54065855375538
 6 -2.48757775717572 -1.82849790849085 -0.34721800190019
 6  2.24622899449945  2.72746211271127  0.74151852515252
 6 -2.56577712311231 -3.26134966146615 -0.56858820892089
 6  1.21569311781178  0.38689003060306  0.30850576757676
 6 -1.26844501760176 -1.07698627062706 -0.28701740684068
 6  1.16321069326933 -0.95756070327033  0.01546402670267
 6 -0.00072953335334 -1.67752399219922 -0.26970072607261
 1  13.87400750655065 -0.01900947144714 -0.00919287638764
 1  14.15050206400640 -0.23765214091409 -1.68637217561756
 1 -12.66833319831983  1.99307169736974  1.83108667346735
 1 -13.90692154975498  0.73806329862986  1.71932837093709
 1  14.12408303030303 -2.36995781348135 -0.53581702750275
 1  12.42914879657966 -2.09324322432243 -1.44271039433943
 1 -14.28380176837684  2.63817717771777  0.19878091569157
 1 -13.96627141094110  1.26345601980198 -0.78225224732473
 1  13.10863282708271 -1.94290679727973  1.56635851785179
 1  12.00770822532253 -3.10197388948895  0.94607146274627
 1 -12.01561135323532  3.49397711841184  0.11702821982198
 1 -12.51612782668267  2.87668117591759 -1.71710561176118
 1  11.07371074157416 -0.68028110541054 -2.50505863856386
 1  12.20297717841784  0.84785944724472 -2.88976555055506
 1  10.51781935323532  0.93179629132913 -2.25140586008601
 1  12.91582253635364  2.16986388828883  0.44739207970797
 1  11.76340474737474  2.91389130003000 -0.52809696669667
 1  13.28805066136614  2.24292456235624 -1.37843011411141
 1 -13.54336356705671 -0.72842685168517 -0.72343844454445
 1 -13.47884005660566 -1.56446225042504  0.74751197189719
 1 -12.03114071727173 -1.75220362526253 -0.34436031853185
 1 -11.16486897779778  0.02400676127613  2.84563422252225
 1 -11.14786131153115 -1.74965596629663  2.11963597979798
 1 -12.55902996699670 -0.90004447234723  2.88652718081808
 1  10.11612501910191  2.05620048014801 -0.06422051415141
 1 -10.16737118181818 -1.65584069406941 -0.37443382138214
 1  9.51923600110011 -0.71130872557256  2.28088184578458
 1  10.62771358545855 -2.24812101000100  2.69189061906191
 1  9.47715978317832 -2.20465031503150  1.40812043364336
 1 -9.39704673997400  1.24670698329833 -1.83303580048005
 1 -9.52943774867487  3.05340886288629 -1.13993403960396
 1 -10.30536080108011  2.36064106950695 -2.58810878417842
 1  8.21636722752275 -0.60461124132413  0.43659670927093
 1 -8.10696409160916  0.64915911001100  0.10154650215022
 1  8.49494272637264  2.84491952785279  1.38848823132313
 1  6.63622550325033  3.29926763096310  0.58389096879688
 1  7.90088432613261  3.11839050105011 -0.36343956685669
 1 -8.49597054925493 -2.82012907200720 -1.72671936553655
 1 -8.29606059435944 -3.00272345964596 -0.04278813951395
 1 -6.92584713731373 -3.06855950725073 -1.19701858705871
 1  6.01296216071607 -0.30533576037604  0.18655663896390
 1 -6.06281826642664  0.36788872737274 -0.03475375217522
 1  4.80208356565657  2.47389583368337  0.57566047284728
 1 -5.02044214451445 -2.49626314271427 -0.85410755185519
 1  3.75308557525753 -0.51776634653465  0.50396003440344
 1 -3.58285591679168 -0.06219989008901  0.09319745304530
 1  2.65566626602660  2.97934833093309  1.58861751705171
 1  1.36420362116212  3.11664239603960  0.96685641314131
 1  2.75350240904090  3.17702817631763 -0.12092606220622
 1 -3.16627849744974 -3.32348070397040 -1.45205021582158
 1 -3.08856046184618 -3.83007500040004  0.34188884028403
 1 -1.59770074137414 -3.83146348074807 -0.74079630603060
 1  0.22386478727873  0.77827374257426  0.41973261846185
 1 -1.40626171477148 -0.00297231003100 -0.33871159725973
 1  1.98558710321032 -1.51524057375738 -0.15353491769177
 1  0.05597610841084 -2.75269031133113 -0.57166802770277

