%nproc=4
%Mem=2GB
# td=(NStates=1) B3LYP/6-31G(d,p) 

TD

0 1
 6  12.11524586718672  0.47961856235624 -0.87002312121212
 6 -12.09557187128713 -0.10569561116112  0.75344452335234
 6  13.30637004970497 -0.48896855685569 -0.72826882588259
 6 -12.93154965486549  1.03438783028303  1.29191990639064
 6  13.05443775797580 -1.92702837523752 -0.51656341514151
 6 -13.26745134123412  2.10906941904190  0.17786815391539
 6  10.98920071397140  0.05299956445645  0.11758929672967
 6 -10.94654232203220  0.33261314361436 -0.26815445024502
 6  12.15046948434843 -2.17169946394639  0.75342931923192
 6 -12.05020490309031  2.60675098329833 -0.47199553545355
 6  11.06869657765777 -1.11637369186919  0.85080164856486
 6 -10.95948074227423  1.67863348514851 -0.69434830853085
 6  11.59469005670567  0.48588971407141 -2.29245772437244
 6  12.57897131053105  1.85097915301530 -0.42382390139014
 6 -13.18214580538054 -1.08487560626063 -0.04862103220322
 6 -11.55592446044604 -1.01340451405141  1.94824297249725
 6  9.81462952555256  0.97603371697170  0.37203920442044
 6 -9.88682848974897 -0.53492603470347 -0.33859794759476
 6  10.09176335263526 -1.56628644034403  1.92619525442544
 6 -9.99405237543754  2.11184292339234 -1.60646211111111
 6  8.62455869556956  0.54721467766777  0.36823502970297
 6 -8.58405136353635 -0.20428029332933 -0.31882820572057
 6  7.46506507470747  1.38278707900790  0.39688230083008
 6 -7.53451234513451 -1.26802527762776 -0.34950534743474
 6  7.56368941864186  2.83251588878888  0.66344878187819
 6 -7.99284647284728 -2.76147615871587 -0.71843912151215
 6  6.26057995949595  0.81734612361236  0.24108626762676
 6 -6.11166977687769 -0.84790561316132 -0.31802391409141
 6  4.93933458415842  1.40418275017502  0.31599125812581
 6 -5.08458807060706 -1.70100607840784 -0.51969335093509
 6  3.66381509310931  0.71062862806281  0.31029297859786
 6 -3.71030641584158 -1.27077771047105 -0.34958739643964
 6  2.38031133253325  1.38992970067007  0.32946743464346
 6 -2.50690969036904 -1.85924098279828 -0.32910619071907
 6  2.38013238483848  2.86549591609161  0.60518489178918
 6 -2.47694824022402 -3.35107863436344 -0.44606595669567
 6  1.20639218771877  0.65243658525853  0.27699261626163
 6 -1.41159933303330 -1.06911548354835 -0.15181388648865
 6  1.16198057025703 -0.72791773897390  0.02072455275528
 6  0.02581312091209 -1.55931217101710 -0.06251000700070
 1  14.00811091689169 -0.04244181468147  0.08814685758576
 1  14.05597261106111 -0.39315769146915 -1.48481201960196
 1 -12.40933729872987  1.43271566176618  2.04434799959996
 1 -13.79133999159916  0.86183567586759  1.91887832593259
 1  13.95228585058506 -2.42605342304230 -0.22428587438744
 1  12.60906678837884 -2.22287618761876 -1.45124124742474
 1 -13.82810619881988  2.79103246324632  0.56282732033203
 1 -13.92807759155916  1.58245791999200 -0.64004802690269
 1  12.73977594139414 -2.39360186678668  1.66895877787779
 1  11.70141759625963 -3.24112780488049  0.84642149774978
 1 -11.62705249734974  3.67199492019202  0.07500401740174
 1 -12.18975518941894  3.08405191299130 -1.54902880408041
 1  11.26943031353135 -0.31242431973197 -2.72614074677468
 1  12.59900678137814  0.78306296759676 -3.08052462646265
 1  10.84004157545754  1.30246335803580 -2.54661538103810
 1  12.65870682478248  1.69955685758576  0.60066740724072
 1  11.77311571847185  2.54927483838384 -0.62853701070107
 1  13.44188604490449  2.32833310321032 -0.91609388048805
 1 -13.51854108480848 -0.50388439743974 -0.90044614531453
 1 -14.03158533113311 -1.47156296049605  0.62068928962896
 1 -12.50572817601760 -1.92988139303930 -0.60946682918292
 1 -10.75927841874188 -0.32460810021002  2.62897255635564
 1 -10.82161868726873 -1.88499950065006  1.63475749194920
 1 -12.37106117011701 -1.34583905180518  2.66641516961696
 1  9.97269067566757  2.02086694679468  0.66801270917092
 1 -10.07840228492849 -1.61193630363036 -0.38969534753475
 1  9.32875695319532 -0.88330592529253  2.24628838643864
 1  10.60776159025903 -1.73183938183818  2.86697812781278
 1  9.74938700590059 -2.49811966196620  1.46147576917692
 1 -9.38052508780878  1.29752206480648 -1.89402189908991
 1 -9.24698950385038  2.72657617961796 -0.97013705990599
 1 -10.33748401340134  2.63860886628663 -2.51767174047405
 1  8.63865945674567 -0.60582136233623  0.06214926452645
 1 -8.28987238243824  0.87632182628263  0.18239458695870
 1  7.92111534363436  2.98334337023702  1.59740912341234
 1  6.34727660836084  3.09173687788779  0.78096067576758
 1  7.93810804850485  3.43018168016802 -0.28469169206921
 1 -8.28822977517752 -2.93857091619162 -1.83228992259226
 1 -8.76136712501250 -2.66091927922792  0.14605074437444
 1 -7.27129168176818 -3.39390204150415 -0.63385227042704
 1  6.23618448294829 -0.21386661346135  0.32875085838584
 1 -5.81190317491749  0.16530846934693 -0.08120839763976
 1  4.78438179547955  2.42650109420942  0.44381728852885
 1 -5.41391149144915 -2.75513903030303 -0.76193833493349
 1  3.87219748644865 -0.32897746764677  0.14123376177618
 1 -3.79234686588659 -0.35711938203820  0.17239537283728
 1  2.61829252865287  3.00367076317632  1.53607226252625
 1  1.41028822962296  3.05003573537354  0.48930865836584
 1  3.08090514931493  3.58562903640364  0.08237426782678
 1 -3.13405527512751 -3.69743809970997 -1.24128913971397
 1 -3.16960856665667 -3.77987998089809  0.39916456785679
 1 -1.57501847314732 -3.95039537393739 -0.46481870827083
 1  0.43656605740574  1.14225014021402  0.37865851105111
 1 -1.74233532213221  0.13872185938594 -0.08624635073507
 1  1.91683022752275 -1.31899094879488  0.01608204400440
 1  0.13609412021202 -2.63959900220022 -0.08589945084508

