%nproc=4
%Mem=2GB
# td=(NStates=1) B3LYP/6-31G(d,p) 

TD

0 1
 6  12.17599194179418  0.68866946744674 -0.63929004790479
 6 -12.22822513661366  0.15694065246525  0.82746192509251
 6  13.40153956665667 -0.28700836083608 -0.55067106610661
 6 -12.94446094599460  1.27870226172617  1.22635334973497
 6  13.21914422862286 -1.76320199259926 -0.67574933373337
 6 -13.39604420052005  2.16970548264826 -0.02205183808381
 6  11.00847264116412  0.02003626812681  0.24194173197320
 6 -10.96619428722872  0.46497637993799  0.05785815101510
 6  12.22976741414141 -2.24985727972797  0.43395737203720
 6 -12.08766864946495  2.61738204640464 -0.75810414631463
 6  11.10651035903590 -1.17958001250125  0.70741731013101
 6 -10.92786758095809  1.58630425222522 -0.75553442714271
 6  11.64575516321632  0.74160528562856 -2.13757223582358
 6  12.58087150055005  2.14640869596960 -0.11752327132713
 6 -12.93125071587159 -0.99417653635364  0.21238506840684
 6 -11.65642451045104 -0.60397357095710  2.16310445864586
 6  9.94220228282828  0.93290940454045  0.38855085558556
 6 -9.91289109600960 -0.57540008210821 -0.14148823662366
 6  10.03909808610861 -1.91266107780778  1.57587022192219
 6 -9.91639460966097  1.84379611871187 -1.89286075097510
 6  8.61068730843084  0.57264722092209  0.34080228642864
 6 -8.56647960636064 -0.29969983528353 -0.18234455735574
 6  7.42032060026003  1.39557835813581  0.47405001760176
 6 -7.52179107300730 -1.30866934203420 -0.42814321122112
 6  7.64868791849185  2.87567020422042  0.71683412041204
 6 -8.00893808200820 -2.74585459655966 -0.63092036963696
 6  6.15851975347535  0.82324671367137  0.35868802780278
 6 -6.21298990889089 -0.87590841344134 -0.27826993869387
 6  4.89029968066807  1.40758309020902  0.34361402040204
 6 -5.02693230503050 -1.79694567236724 -0.36934831643164
 6  3.72341105270527  0.76117368256826  0.13639558885889
 6 -3.83451883708371 -1.24098473117312 -0.33381581928193
 6  2.39161246264626  1.25910661836184  0.32467695559556
 6 -2.58852785218522 -1.92753781248125 -0.31589486958696
 6  2.20971534313431  2.62824219071907  0.64237861116112
 6 -2.58059860526053 -3.51791531803180 -0.58801015111511
 6  1.20750229872987  0.46278762036204  0.27480239723972
 6 -1.40216838993899 -1.22598117011701 -0.19991869696970
 6  1.12925729792979 -0.96048099529953 -0.00767828752875
 6 -0.01259071947195 -1.64706094589459 -0.26452020802080
 1  13.99281938773877  0.11826425592559  0.39052709560956
 1  14.31704871867187  0.00620224452445 -1.34252779117912
 1 -12.38940530553055  2.05148753895390  1.86134969976998
 1 -13.83692455005501  1.10312980528053  1.75959239733973
 1  14.09425004700470 -2.25280609830983 -0.73602704850485
 1  12.64193007470747 -1.98544244424442 -1.67973409670967
 1 -13.90154354255426  3.06003936393639  0.20713175077508
 1 -14.05683046684669  1.56011568576858 -0.56979100120012
 1  12.60180214401440 -2.47589009560956  1.67028891089109
 1  11.72945039953995 -3.16567025912591  0.27514437003700
 1 -11.67129692179218  3.57530525122512 -0.36903038603860
 1 -12.22184839873987  2.63598710651065 -1.82577647884788
 1  11.23124649514951 -0.32770584788479 -2.37140527322732
 1  12.44317119781978  0.88304296559656 -2.94656123012301
 1  10.83037060836084  1.52530564226423 -2.16535725522552
 1  12.89628058215822  2.12004890679068  0.96011335183518
 1  11.66573498039804  2.99955986688669 -0.39721387838784
 1  13.49447130343034  2.38439870977098 -0.78335060616062
 1 -13.43452268296830 -0.62057606660666 -0.76312241294129
 1 -13.73660583318332 -1.32873867806781  0.92260948164816
 1 -12.47039464266427 -1.85962436733673  0.03726784428443
 1 -10.85781827272727  0.02596695729573  2.63435309440944
 1 -11.06290281568157 -1.59188018871887  2.07682169836984
 1 -12.50087415141514 -0.72690715861586  2.73412194029403
 1  10.15947935453545  1.95370023012301  0.59071497939794
 1 -10.10089453415342 -1.70983609360936 -0.42153853185319
 1  9.25144922242224 -1.10494808950895  1.96264002160216
 1  10.57014782888289 -2.41173737163716  2.31167259725973
 1  9.32783485068507 -2.74608445844585  1.17695731733173
 1 -9.05327236253625  0.89213152575258 -1.88930142704270
 1 -9.23756856175618  2.80523404540454 -1.85868591479148
 1 -10.44715498049805  1.95134013941394 -3.07044701800180
 1  8.43719931073107 -0.21658243844384 -0.24988193859386
 1 -8.07682107730773  0.66009020312031 -0.00045369786979
 1  8.24625785788579  3.05331036693669  1.66555593809381
 1  6.75710759145915  3.25237294149415  0.61311389108911
 1  8.18824306200620  3.18490715271527 -0.29221244414441
 1 -8.69021997419742 -2.68615567466747 -1.50554724832483
 1 -8.51180216851685 -3.33690687798780  0.20319645894589
 1 -7.11752630523052 -3.47699035033503 -0.67616650185018
 1  6.34871573607361 -0.12134736153615  0.39260724402440
 1 -6.07376936153615  0.19211114961496  0.17885760896090
 1  4.83807716501650  2.53221166526653  0.48071097789779
 1 -5.09915001530153 -2.88662217861786 -0.50482262336234
 1  3.86911717841784 -0.27493206310631  0.03984362276228
 1 -3.70877850905091 -0.08377204730473 -0.02411427812781
 1  2.43506420582058  2.67045744184418  1.70367902320232
 1  1.11854905570557  2.97414814661466  0.67018674617462
 1  2.85915297409741  3.44605507900790 -0.11277524712471
 1 -3.34860673027303 -3.61140949684969 -1.49004401520152
 1 -2.98907051285128 -3.85465745864586  0.37136178757876
 1 -1.46697766906691 -3.87975831023102 -0.72388461486149
 1  0.12630503130313  0.83754967016702  0.41696234143414
 1 -1.26771786038604 -0.14009602240224 -0.16022374847485
 1  2.19130767526753 -1.39139818951895 -0.23155271947195
 1  0.16702721352135 -2.59087412971297 -0.50624148504851

