%nproc=4
%Mem=2GB
# td=(NStates=1) B3LYP/6-31G(d,p) 

TD

0 1
 6  12.13876821942194  0.43097369786979 -0.84279039793979
 6 -12.07924023812381 -0.22675771737174  0.89673885278528
 6  13.46392580528053 -0.45718537853785 -0.82884888388839
 6 -13.19824632453245  0.85956034753475  1.25402611701170
 6  13.20039235343534 -1.98641431383138 -0.68498025682568
 6 -13.57929252535254  1.79623813591359 -0.00532016491649
 6  11.10947274117412 -0.06137187268727  0.28377591539154
 6 -11.08376604440444  0.40885076737674 -0.17295493029303
 6  12.44358879627963 -2.29269156315632  0.74496847314731
 6 -12.40791067366737  2.51553186138614 -0.68446678257826
 6  11.19272898089809 -1.22775482998300  0.83872044044404
 6 -11.23196799099910  1.58548417021702 -0.84595346904690
 6  11.54858544624463  0.35104622972297 -2.21510998959896
 6  12.61097451085109  1.88976303140314 -0.60939245824582
 6 -12.95942353315332 -1.34367148584858  0.16013984388439
 6 -11.43751261926193 -0.78418159175918  2.18450659885989
 6  9.88380644324432  0.75479159275928  0.43274527502750
 6 -9.96786659355936 -0.54982752485249 -0.39968405620562
 6  10.34180835713571 -1.70208001970197  2.00773340824082
 6 -10.17600057025703  2.05469720882088 -1.87116858175818
 6  8.62580882058206  0.38474843104310  0.32460066626663
 6 -8.66456941534153 -0.22709257455746 -0.23995031793179
 6  7.56486505470547  1.37251605190519  0.45533814641464
 6 -7.52882177607761 -1.24119259435944 -0.45508590549055
 6  7.89498254795480  2.76371900910091  0.78332076907691
 6 -7.88872606080608 -2.59320933203320 -0.83713099069907
 6  6.23633753525353  0.78615300430043  0.23446560556056
 6 -6.26971558145815 -0.78511933453345 -0.27122923462346
 6  4.91832248294829  1.47660999289929  0.43277293629363
 6 -5.05700531233123 -1.49636561436144 -0.37675905750575
 6  3.69117782938294  0.88673623882388  0.29829177847785
 6 -3.82420780598060 -0.98061869456946 -0.08748118581858
 6  2.38502180358036  1.51704241194119  0.36898138603860
 6 -2.53137213661366 -1.59320437913791 -0.25683896399640
 6  2.25673004460446  2.96139550605060  0.79138351165117
 6 -2.50425097049705 -3.09037256375638 -0.58784013411341
 6  1.25272682118212  0.73301464306431  0.19818473547355
 6 -1.34070224332433 -0.90914948694869 -0.14838354345435
 6  1.10034440664066 -0.68567351455146 -0.04206172587259
 6 -0.04122358275828 -1.37431367116712 -0.22068582458246
 1  13.97733783958396 -0.05361293179318  0.10533857675768
 1  13.99347636143614 -0.39123749944995 -1.82468600700070
 1 -12.88175454045404  1.45002739293929  2.38201176597660
 1 -14.37991884948495  0.32024151645165  1.40831726982698
 1  14.10531115311531 -2.49113993169317 -0.72999644544454
 1  12.51413729542954 -2.42231613161316 -1.48437456075608
 1 -14.33248663686369  2.47942130213021  0.42690372797280
 1 -14.05702048584859  1.12413208740874 -0.61275529762976
 1  13.05120708450845 -2.13446595319532  1.63649553155316
 1  12.10104755925592 -3.39175286738674  0.64576143174317
 1 -11.89817961006101  3.30593831453145 -0.01451493449345
 1 -12.64253046694670  2.80168367616762 -1.69906380758076
 1  11.29786315681568 -0.66815989328933 -2.64737286998700
 1  12.23059994069407  0.61050571187119 -2.94733130713071
 1  10.64759233053305  0.92579569126913 -2.40292101160116
 1  13.19946090019002  2.10687758965897  0.47927526802680
 1  11.71527993489349  2.54301421232123 -0.76567072407241
 1  13.36866872317232  2.10269053895390 -1.39409168026803
 1 -13.23845307600760 -0.86438044704470 -0.85985208590859
 1 -13.73533570617062 -1.58025382958296  0.74844206490649
 1 -12.29117672087209 -2.33267167206721 -0.01448733123312
 1 -10.93295578647865 -0.00229586898690  2.92266192529253
 1 -10.76014253965397 -1.54325532623262  1.89034305050505
 1 -12.23588765276528 -1.09201366926693  2.85101362946295
 1  9.97021042764277  1.88574343444344  0.69198510641064
 1 -10.34901934663466 -1.63260837083708 -0.65496187418742
 1  9.53227730523052 -0.85822341704170  2.06159991759176
 1  10.96740755485549 -1.90562676057606  3.00810224022402
 1  9.69854192139214 -2.64024387438744  1.58707832943294
 1 -9.71781881718172  1.19930224282428 -2.31738423532353
 1 -9.24444924982498  2.66421994399440 -1.44721476767677
 1 -10.69355962096210  2.81124613001300 -2.67355732903290
 1  8.42181777257726 -0.72109288948895  0.27321037063706
 1 -8.21153454865487  0.63960815491549 -0.00691434393439
 1  8.33259649174918  2.69333436933693  1.77108649114911
 1  6.89578145884588  3.21293899809981  0.79213179287929
 1  8.52827706540654  3.27914657665767  0.04994177127713
 1 -8.36594754695470 -2.72270933003300 -1.77848454205421
 1 -8.69217020532053 -2.89469265656566 -0.05755961666167
 1 -7.08024257685769 -3.20753340464046 -0.78561744694469
 1  6.05182604710471 -0.43854908170817  0.36364434773477
 1 -6.14737672227223  0.28693063156316 -0.15062533933393
 1  5.15608896619662  2.60389883398340  0.61680458725873
 1 -5.12879297959796 -2.51572508890889 -0.54884702580258
 1  3.81183144984498 -0.18665323522352  0.16638627702770
 1 -3.84646227742774  0.16098242814281  0.14998313161316
 1  2.87369806920692  3.08717911401140  1.69368802410241
 1  1.25151235203520  3.07180791259126  0.96486621412141
 1  2.49577663646365  3.62962343584358 -0.06591056065607
 1 -3.03314518411841 -3.23981233713371 -1.56303131393139
 1 -2.81678328412841 -3.86642863576358  0.24962961436144
 1 -1.34736570787079 -3.46731706610661 -0.79448167456746
 1  0.39337173797380  1.30389630483048  0.16981762696270
 1 -1.41835292389239  0.22311029822982  0.16994926882688
 1  2.18483702820282 -1.18981803150315 -0.15032459665967
 1  0.08576908770877 -2.46517155945595 -0.25146600750075

