%nproc=4
%Mem=2GB
# td=(NStates=1) B3LYP/6-31G(d,p) 

TD

0 1
 6  12.16866120872087  0.48207880838084 -0.56673279217922
 6 -12.18347066116612 -0.08588362996300  0.96784596349635
 6  13.41129054175418 -0.40528018801880 -0.39679567856786
 6 -12.95816231613161  1.02567695919592  1.41833254765477
 6  13.16112842704270 -1.86192186458646 -0.30802256105611
 6 -13.42978757485749  1.99834834693469  0.34301466856686
 6  11.01507330123012 -0.02529826532653  0.39793733153315
 6 -10.96387405520552  0.45696557885789 -0.01371900670067
 6  12.26791122852285 -2.05650794479448  0.85982995929593
 6 -12.16053593619362  2.65699600780078 -0.24120245614561
 6  11.11070077807781 -1.22002405690569  1.06075264366437
 6 -11.03853864806481  1.63261888368837 -0.65071394509451
 6  11.63822441014102  0.29913103820382 -2.02106058465847
 6  12.58940235363536  1.92764681978198 -0.31516303530353
 6 -12.90834842564256 -1.15335245394539  0.24448827872787
 6 -11.35917478547855 -0.65565873947395  2.24642279047905
 6  9.85226328892889  0.81677779137914  0.51263326382638
 6 -9.92158196509651 -0.56475901800180 -0.18123221102110
 6  10.16517069336934 -1.55748556025603  2.11088372327233
 6 -10.01002397259726  2.13038477757776 -1.54982644754475
 6  8.52823906360636  0.52351230743074  0.28765697189719
 6 -8.59081203960396 -0.35425529082908 -0.16612293519352
 6  7.39536810501050  1.41613041334133  0.31749436203620
 6 -7.52036092999300 -1.31614008910891 -0.35079547644764
 6  7.65594864456446  2.91099373657366  0.47214965196520
 6 -8.04744193239324 -2.68070808190819 -0.82330960856086
 6  6.16448034953495  0.85473986298630  0.18852101110111
 6 -6.21474008390839 -0.87388821142114 -0.42516462816282
 6  4.87038768946895  1.49281161306131  0.09054871387139
 6 -5.01272088388839 -1.71136711451145 -0.54681606320632
 6  3.71168988058806  0.77553511871187  0.00438238753875
 6 -3.79106449164916 -1.18767940064006 -0.46230866856686
 6  2.42090539193919  1.34507521522152  0.01841632953295
 6 -2.53396239563956 -1.82118717741774 -0.57429070917092
 6  2.18244261586159  2.85712507900790  0.19506387968797
 6 -2.52854339973997 -3.24644817131713 -1.05809715981598
 6  1.24172572107211  0.58296963856386 -0.11825690869087
 6 -1.34827300040004 -1.10825939793979 -0.31652035713571
 6  1.16835120732073 -0.84765971317132 -0.37220474017402
 6  0.06438697829783 -1.71857809760976 -0.39656341234123
 1  13.99179928572857 -0.35254282478248  0.55465350825082
 1  14.15777279107911 -0.04442281798180 -1.23405694409441
 1 -12.30375674067407  1.51039342954295  2.20872443724372
 1 -13.81815267286729  0.68067756005601  1.79732617071707
 1  14.30636125812581 -2.21618243594359 -0.01335478127813
 1  12.85073095479548 -2.49733363336334 -1.25398152145215
 1 -14.17548093629363  2.69621298129813  0.64864590219022
 1 -13.80367515131513  1.45307498169817 -0.33297731983198
 1  12.85449741354135 -2.09933243984398  1.74919680168017
 1  11.94329178367837 -3.18639233133313  0.87762461806181
 1 -11.76975676777678  3.41145886658666  0.34996151315132
 1 -12.48730494439444  3.34505801360136 -1.10024392559256
 1  11.19510288078808 -0.59535261256126 -2.05498363106311
 1  12.41550843154315  0.57350201150115 -2.66676325032503
 1  10.91924949624963  0.91742485418542 -2.07689840934093
 1  12.87398835293529  2.25507240914091  0.71577891839184
 1  11.63677208410841  2.68415832673267 -0.51172532953295
 1  13.34806666296630  2.21344161406141 -0.88475074617462
 1 -13.31693092379238 -0.83564757375738 -0.70744684538454
 1 -13.78269044164416 -1.54775057925793  0.78036525722572
 1 -12.23845144834483 -2.10199860476048  0.11572569006901
 1 -10.61252374327433 -0.01324696409641  2.79739939903990
 1 -10.81498802420242 -1.67021802250225  1.97796181238124
 1 -11.96687075107511 -1.03331779967997  3.00955948404840
 1  9.89505291189119  1.83715857595760  0.66479238713871
 1 -10.27400184488449 -1.60007511751175 -0.48568494649465
 1  9.45472955045505 -0.81064865956596  2.51010476807681
 1  10.50556137023702 -1.88405460336034  3.14788621862186
 1  9.47911997919792 -2.55986583658366  1.86376599819982
 1 -9.52392942824282  1.46235854845485 -2.05317781468147
 1 -9.49750455535554  2.86164968696870 -1.19582962916292
 1 -10.64199446444645  2.79247425282528 -2.32256222952295
 1  8.20765635643564 -0.47577835803580 -0.21824877527753
 1 -8.18875227042704  0.66945113921392  0.00423677117712
 1  8.11047427952795  3.23750878677868  1.35536491899190
 1  6.47704958565857  3.44483218741874  0.88650122982298
 1  7.99964420212021  3.46483514551455 -0.43817704060406
 1 -8.64170512271227 -2.69811687078708 -1.71915860946095
 1 -8.48727971627163 -3.21233442074207 -0.10959482018202
 1 -7.16808136073607 -3.14537718901890 -1.26515540074007
 1  6.05152601710171 -0.27719294609461 -0.03205522222222
 1 -6.03465545014501  0.28197013551355 -0.10885116191619
 1  4.69796315361536  2.51897034113411  0.24506741354135
 1 -4.97821792209221 -2.81479499589959 -0.68759090019002
 1  3.92027229392939 -0.26582115201520 -0.29957031863186
 1 -3.58126575777578 -0.11271494159416 -0.34745661236124
 1  3.02516321572157  3.14003439953995  0.98926758205821
 1  1.15682288308831  3.08198893069307  0.58207793529353
 1  2.39213627242724  3.34687516101610 -0.91682565216522
 1 -3.02406427602760 -3.29194755065507 -2.03125813661366
 1 -3.14519612541254 -3.95065705860586 -0.38632398099810
 1 -1.46896786808681 -3.63652398679868 -1.07776000240024
 1  0.29444184498450  1.13390930613061 -0.08550790559056
 1 -1.40931201980198 -0.06885889868987 -0.13833155925593
 1  2.26447499199920 -1.46431548124812 -0.37154671887189
 1  0.38040855165517 -2.90494553685369 -0.29070993189319

