%nproc=4
%Mem=2GB
# td=(NStates=1) B3LYP/6-31G(d,p) 

TD

0 1
 6  12.19576391899190  0.58979958045805 -0.59640575947595
 6 -12.04676699079908  0.00138509690969  0.96123530243024
 6  13.53436284898490 -0.28865852585259 -0.48568456745675
 6 -12.80613711361136  1.25495988748875  1.38189890429043
 6  13.24817713191319 -1.80744641704170 -0.41553331213121
 6 -13.31587618371837  2.16357486958696  0.32412277937794
 6  11.05545733963396 -0.04891062656266  0.23778131593159
 6 -10.93390105790579  0.46671655395540 -0.11430906570657
 6  12.26977141454145 -2.02300459445945  0.78044202050205
 6 -12.11548143074307  2.64344465266527 -0.41764009990999
 6  11.13410311831183 -1.25333738823882  0.83144971337134
 6 -11.05290008420842  1.63987960976098 -0.70424929862986
 6  11.72586317401740  0.52993411851185 -2.08314679327933
 6  12.59102251565157  2.00951500660066 -0.21778329732973
 6 -13.03120071087109 -0.98729584828483  0.31646547644764
 6 -11.34710357835784 -0.61935510911091  2.28848699689969
 6  9.82120018261826  0.89518563216322  0.30950295079508
 6 -9.99171897879788 -0.66312885498550 -0.28480256805681
 6  10.09065324162416 -1.68734854655466  1.83023565846585
 6 -10.05781875207521  2.08420015911591 -1.72882434733473
 6  8.57686392609261  0.49207916411641  0.36018422462246
 6 -8.67463042144214 -0.46075594089409 -0.28575489838984
 6  7.37583615181518  1.28525732603260  0.49614222682268
 6 -7.54718361226123 -1.46314478957896 -0.58675907280728
 6  7.53999704940494  2.85149778697870  0.58152058905891
 6 -8.01014820302030 -2.88038804990499 -0.81361863946395
 6  6.17957185868587  0.78100248924892  0.44101626062606
 6 -6.34271288118812 -1.01250207280728 -0.43581569326933
 6  4.93736438713871  1.45779811171117  0.39346900590059
 6 -5.11423103490349 -1.70316629442944 -0.49334071567157
 6  3.74870358195820  0.76471403660366  0.07822977227723
 6 -3.83107849304931 -1.25003563626363 -0.39397183488349
 6  2.34017731913191  1.30663137083708  0.07051153905391
 6 -2.47715671507151 -1.83044810351035 -0.51104438453845
 6  2.20333470507051  2.82296166266627  0.34487886118612
 6 -2.57822836823682 -3.25341886838684 -0.65360671077108
 6  1.17059860836084  0.53725506710671 -0.01159624262426
 6 -1.38005617871787 -1.14262283428343 -0.18398710381038
 6  1.16517088928893 -0.90200514771477 -0.25148266796680
 6 -0.02514197459746 -1.59585582538254 -0.39129288528853
 1  14.08214832063206 -0.09785735623562  0.52386042894289
 1  14.14228124192419 -0.15218359405941 -1.22303584198420
 1 -12.26912327732773  1.97841023122312  2.17469103390339
 1 -13.64666552415242  0.90228972127213  1.92485892399240
 1  14.07942856485649 -2.33665448314831 -0.40907435323532
 1  12.75525140684068 -2.06522042204220 -1.39831595489549
 1 -13.87799118731873  3.17758111811181  0.51653269086909
 1 -14.00627541134114  1.60322999719972 -0.40195421752175
 1  12.82070403420342 -1.99489199579958  1.63930581258126
 1  12.12698015251525 -3.20012370447045  0.80970782638264
 1 -11.59932972507251  3.51077879857986 -0.01070455345535
 1 -12.52219843374337  3.26010951875188 -1.31143504470447
 1  11.75829920042004 -0.56774985228523 -2.35725385808581
 1  12.53410029072907  1.21483614491449 -2.57166374037404
 1  10.82827039833983  0.98823193489349 -2.31435215471547
 1  12.85968692279228  1.82652955485549  0.77295463596360
 1  11.84321272817282  2.89784969586959 -0.29146330333033
 1  13.54415627192719  2.30376064596460 -1.02054432553255
 1 -13.46858608930893 -0.64301831083108 -0.36346244694469
 1 -13.61917409000900 -1.45041084528453  1.15500272097210
 1 -12.42303990719072 -1.98512691759176 -0.13282916541654
 1 -10.58116060696070 -0.06689232863286  2.49654931403140
 1 -11.09232575797580 -1.63755475617562  1.93827784398440
 1 -12.22882694669467 -0.70520498839884  3.08496702480248
 1  10.05640904750475  1.90631549164917  0.46847275517552
 1 -10.50915536023602 -1.71543665366537 -0.51541791979198
 1  9.13249732723272 -1.07579517421742  2.21260501810181
 1  10.64137495159516 -2.12815901380138  2.72054348434843
 1  9.61662372957296 -2.62687253725373  1.55194481608161
 1 -9.61060809610961  1.11798411101110 -2.33026552345234
 1 -9.13443824872487  2.51105462746275 -1.24487453365337
 1 -10.44523478847885  2.63208821422142 -2.52420239353935
 1  8.39501509230923 -0.54914569476948  0.18649169876988
 1 -8.22111550675067  0.40288448254826  0.32574892239224
 1  8.20248348044804  3.24131916781678  1.41783116561656
 1  6.66971885258526  3.40819852405241  0.51462404210421
 1  8.04075831353135  3.28476713871387 -0.46067929082908
 1 -8.75834678687869 -2.92948000710071 -1.68605529912991
 1 -8.73671465976598 -3.19624281158116  0.03342948224822
 1 -7.11872642524252 -3.59206185748575 -0.78823770897090
 1  5.91412227672767 -0.37443267006701  0.52780076337634
 1 -6.28460044464446  0.05951789028903 -0.28294857165717
 1  4.84808816611661  2.59306775087509  0.51516442324232
 1 -4.97808790909091 -2.85885940234023 -0.62921506260626
 1  3.90357062376238 -0.24423899379938 -0.06258662026203
 1 -3.96883451465146 -0.20632430253025 -0.33753562026203
 1  2.78100880028003  2.92153254935494  1.22038069336934
 1  0.92353955475548  3.12724345614561  0.38770849834984
 1  2.50577763656366  3.51082155565557 -0.43428739833983
 1 -2.73988585818582 -3.54421277717772 -1.82269728052805
 1 -3.40084168996900 -3.77901989488949  0.01863651505150
 1 -1.58664963626363 -3.76327666206621 -0.45826805320532
 1  0.20111251205121  0.95703161836184 -0.18157751255125
 1 -1.59995108370837 -0.07682969576958 -0.20939866596660
 1  2.05030357485749 -1.32623167286729 -0.53161272547255
 1  0.08727923872387 -2.73529857215722 -0.45758661956196

