%nproc=4
%Mem=2GB
# td=(NStates=1) B3LYP/6-31G(d,p) 

TD

0 1
 6  12.15756009860986  0.53443404390439 -0.70022614151415
 6 -12.14811712581258 -0.06287132873287  0.80145932483248
 6  13.51244065676568 -0.24306396639664 -0.65559155815582
 6 -13.03769026892689  1.14654904640464  1.33957467186719
 6  13.17793010721072 -1.76049172157216 -0.46496825562556
 6 -13.40507510361036  2.11232974507451  0.17141750885089
 6  11.04960675457546  0.03593785828583  0.27359489728973
 6 -10.98084575237524  0.42086196849685 -0.03473110791079
 6  12.43613805120512 -1.96876917091709  0.78888286458646
 6 -12.07940782338234  2.61823213141314 -0.41808014391439
 6  11.26292600060006 -1.06145820032003  1.02565913431343
 6 -11.03432822702270  1.70727634943494 -0.61006988068807
 6  11.71585217291729  0.45103622872287 -2.19154763336334
 6  12.51803521692169  1.95050910601060 -0.40183170217022
 6 -13.07695528632863 -1.10748786748675  0.00281411131113
 6 -11.58918778677868 -0.68251142474247  2.12681082928293
 6  9.83759182178218  0.91132724632463  0.35018701920192
 6 -9.92704251115111 -0.49439198129813 -0.16544063186319
 6  10.29898407470747 -1.60533034473447  2.11122375727573
 6 -10.03669663986399  2.04216595569557 -1.69374083898390
 6  8.59478571827183  0.42252220842084  0.42442064826483
 6 -8.63577653605360 -0.29007887318732 -0.16372269516952
 6  7.47248581678168  1.25910471077108  0.42939555215522
 6 -7.48960785468547 -1.21525000010001 -0.32163256015602
 6  7.60381343104310  2.70548318551855  0.66821925892589
 6 -7.94954214241424 -2.67696770787079 -0.74225150275027
 6  6.19065296679668  0.70941533053305  0.33678583758376
 6 -6.19973858375838 -0.85734655725573 -0.26903901560156
 6  4.86032668336834  1.35054738663866  0.27844750375037
 6 -5.07052666446645 -1.67656363416342 -0.36758814041404
 6  3.68732744434443  0.60866843204320  0.21447339663966
 6 -3.75864124932493 -1.25108574127413 -0.11979441714171
 6  2.32541584298430  1.28497920562056  0.13291777967797
 6 -2.53380237963796 -1.98911397009701 -0.47266054615462
 6  2.20878525012501  2.70398976547655  0.39933430673067
 6 -2.71177172257226 -3.38232175867587 -0.90607195729573
 6  1.19434098259826  0.54009535113511 -0.01382646564656
 6 -1.42435060816082 -1.17607617961796 -0.25336404150415
 6  1.13872824502450 -0.81426637383738 -0.44201172087209
 6 -0.03958341874187 -1.57366360616062 -0.44374813081308
 1  14.39396950275028  0.05267769726973  0.00078812171217
 1  13.99795680948095 -0.14939331503150 -1.59879341774177
 1 -12.40613697869787  1.82515490569057  2.06714027882788
 1 -13.93307416501650  0.77075656795680  1.97257369546955
 1  14.13524414641464 -2.37105792349235 -0.54064751055105
 1  12.77606348804881 -1.81314521452145 -1.24239036233623
 1 -13.73258664686469  3.01414477447745  0.91950298789879
 1 -14.15078986278628  1.59548922312231 -0.40742476457646
 1  13.18838080188019 -2.00271277787779  1.63568545054505
 1  12.33254070857086 -2.99364305640564  0.73532038763876
 1 -11.93554334643464  3.66263398409841  0.21429794679468
 1 -12.31940815471547  3.09003251105111 -1.44272817401740
 1  11.40266363686369 -0.64546762406241 -2.54585271797180
 1  12.57834471517152  0.76371103240324 -2.69181575557556
 1  10.67577514881488  1.11851496319632 -2.24361508100810
 1  12.79803075717572  2.19467636953695  0.70213755425543
 1  11.71295970287029  2.68942885378538 -0.66375053205321
 1  13.47027888418842  2.29305957585759 -0.78398066916692
 1 -13.65946517721772 -0.54776878587859 -0.86313241394139
 1 -13.85963813641364 -1.64048985318532  0.59631685238524
 1 -12.59094669786979 -2.13580198509851 -0.40409629212921
 1 -10.80885337623762 -0.14765040444044  2.65365502460246
 1 -11.12388891429143 -1.63776477717772  2.00433444964496
 1 -12.41353541754175 -0.76552102000200  2.85308383648365
 1  10.05334874147415  2.09577443754375  0.03599950785078
 1 -10.15596004070407 -1.44894000400040 -0.41470784878488
 1  9.58252232973297 -0.81072866756676  2.64438819641964
 1  10.60908172227223 -1.95974217211721  3.06648807880788
 1  9.80706277347735 -2.34779462946295  1.66073569516952
 1 -9.55352238753875  0.99961227382738 -2.19980247714771
 1 -9.24183898879888  2.56010953295330 -1.50291033723372
 1 -10.42944320932093  2.69520452585258 -2.51570154345435
 1  8.64932052285229 -0.76276705690569  0.34264731433143
 1 -8.14352774797480  0.79060325442544 -0.06206985948595
 1  8.21100433253325  3.09671470737074  1.46361574407441
 1  6.77484936563656  3.24309201340134  0.82845542524252
 1  8.31933617131713  3.03900256225623 -0.26168939183918
 1 -8.45259621182118 -2.76144320342034 -1.74096078967897
 1 -8.50255124342434 -3.10582376967697  0.15987212651265
 1 -6.99272382498250 -3.17552020332033 -0.68781766696670
 1  6.25396626112611 -0.36233145994599  0.16283426672667
 1 -6.12500448504850  0.18576051455146 -0.11416169296930
 1  5.03199655695570  2.40579902400240  0.51684459125913
 1 -5.27406750705071 -2.82222573897390 -0.48321046214621
 1  3.49362962966297 -0.33247781768177  0.06976661506151
 1 -3.68328595979598 -0.16465013511351  0.10952908620862
 1  2.73912461186119  3.07391778787879  1.44810346564656
 1  1.13543074387439  3.06412714451445  0.33756348384839
 1  2.79362642144214  3.13709418291829 -0.16269023862386
 1 -2.98827069666967 -3.40384874077408 -1.97105211601160
 1 -3.27683928972897 -3.98000999389939 -0.09491484008401
 1 -1.81752272357236 -3.88696903130313 -0.74120634703470
 1  0.26650905170517  1.08132404760476  0.14172481768177
 1 -1.42549363796380 -0.11196320912091 -0.05707343344334
 1  2.02993153765377 -1.21339038873887 -0.73077264146415
 1  0.15579609040904 -2.67055209750975 -0.58237909880988

