%nproc=4
%Mem=2GB
# td=(NStates=1) B3LYP/6-31G(d,p) 

TD

0 1
 6  12.00803514611461  0.67484808530853 -0.73276939583958
 6 -11.95828814291429  0.03912887128713  0.90646982588259
 6  13.39316872957296 -0.24417407740774 -0.58152415141514
 6 -12.64408090799080  1.38017240874087  1.50599131353135
 6  13.22412472667267 -1.86467213961396 -0.44731649044904
 6 -13.13934853095309  2.13970248234823  0.20407077417742
 6  10.94682647654765  0.10928519301930  0.24488202600260
 6 -10.90334800260026  0.45638552085209 -0.15137277207721
 6  12.18431286868687 -2.05028732273227  0.67975195149515
 6 -11.98040792339234  2.79862017021702 -0.48224656055606
 6  11.04904461246125 -1.08617067156716  0.88683525192519
 6 -10.95158995319532  1.66198181998200 -0.75289416311631
 6  11.46632722042204  0.54166529162916 -2.13122160076008
 6  12.42307572097210  2.06665072017202 -0.28884040304030
 6 -13.09708729952995 -0.97879499819982  0.25464929482948
 6 -11.45733460146015 -0.74517769136914  2.07579572777278
 6  9.74865292789279  0.94942105570557  0.40284228472847
 6 -9.91195100200020 -0.60519306140614 -0.35930001780178
 6  10.05443962026203 -1.60427023872387  1.90977361226123
 6 -10.04275724592459  2.08301004010401 -1.77643910881088
 6  8.48696493619362  0.55066502270227  0.31642984918492
 6 -8.59259221762176 -0.32508237353735 -0.38617494039404
 6  7.27053562176218  1.36788558885889  0.38384099669967
 6 -7.42065095899590 -1.29628810391039 -0.46355675257526
 6  7.48162121182118  2.77936057325733  0.57410984798480
 6 -7.82909009720972 -2.84124413551355 -0.55308258585859
 6  6.09205310681068  0.65054944394439  0.33127528652865
 6 -6.10634924482448 -0.96501732433243 -0.44870698239824
 6  4.79887053775378  1.32825515741574  0.36145580458046
 6 -4.96219583138314 -1.76363234103410 -0.52120350195019
 6  3.67228594019402  0.56911447664766  0.28464041334133
 6 -3.70521590679068 -1.20804143684368 -0.38320075777578
 6  2.30821412281228  1.20306101380138  0.28615310321032
 6 -2.49529852925293 -1.94216927562756 -0.41953523362336
 6  2.14058843044304  2.60091945844584  0.58609298259826
 6 -2.52054259965997 -3.44814834133413 -0.78232958305831
 6  1.26132768126813  0.43626496809681  0.10673559055906
 6 -1.29260743384338 -1.17770634263426 -0.21237994309431
 6  1.17116148834884 -0.98046299349935 -0.15642316201620
 6  0.06900744034403 -1.66521276107611 -0.25040879687969
 1  13.89494960076008  0.16947937743774  0.40323836673667
 1  14.19601661546155  0.03161478577858 -1.23316685508551
 1 -11.88297466246624  2.02460485068507  2.10698426322632
 1 -13.39727058465847  1.01145063736374  2.16892333043304
 1  14.30865148714872 -2.13261407910791 -0.12459590539054
 1  12.84398027972797 -2.25745964596460 -1.39481560486049
 1 -13.72115550375037  3.04846820682068  0.46904794239424
 1 -13.88452323612361  1.49955963016302 -0.54903892599260
 1  12.80205216901690 -2.25533804040404  1.45953783578358
 1  11.88591604610461 -2.92261595369537  0.67472432803280
 1 -11.40714050615061  3.55124284498450  0.13258977597760
 1 -12.11288750265027  3.30617412521252 -1.49664356555656
 1  10.96513988448845 -0.41534461176118 -2.37284541724172
 1  12.26528340904090  0.54199886118612 -2.92208878287829
 1  10.66185375667567  1.19979309100910 -2.23953467296730
 1  12.87932888698870  2.05681258315832  0.72539988048805
 1  11.28154656155615  2.63850376127613 -0.34843900090009
 1  12.98890074637464  2.57569783968397 -1.25893816491649
 1 -13.38249748044804 -0.26641065006501 -0.72890899159916
 1 -14.04390656325632 -1.25227103130313  0.75667288798880
 1 -12.57891549474948 -1.84407281218122 -0.15165104760476
 1 -10.61388387928793 -0.25963160256026  2.79039869896990
 1 -10.95285181058106 -1.65749675037504  2.20225424162416
 1 -12.29139320332033 -0.82953742164216  2.92020054815482
 1  9.86430983758376  2.04287914801480  0.40501640954095
 1 -10.36429087378738 -1.61270638063806 -0.25072145014501
 1  9.41111518901890 -0.75790338503850  2.31825558315832
 1  10.75070588468847 -2.27329352725273  2.54218564856486
 1  9.36225829302930 -2.22378222822282  1.30164978657866
 1 -9.51633866916691  1.31806411901190 -2.34375687258726
 1 -9.20559536443644  2.75463898589859 -1.32906295249525
 1 -10.60194045904591  2.55029003440344 -2.57193716701670
 1  8.28326391719172 -0.46832761296130 -0.26154310471047
 1 -8.06165956115612  0.79407360146015 -0.31588524102410
 1  7.71095432753275  2.96492152805280  1.68399778227823
 1  6.57815969666967  3.48417612181218  0.41677425712571
 1  7.97896213391339  3.37310597259726 -0.21556477937794
 1 -8.48483943614361 -2.92615967506751 -1.39645633923392
 1 -8.53854484278428 -2.86283947124712  0.37285342464246
 1 -7.05678023062306 -3.59908255955596 -0.63565245044504
 1  6.05565643014301 -0.50423565036504  0.28892687598760
 1 -5.86892887748775  0.09776171467147 -0.24280455725573
 1  4.86932028932893  2.61242968706871  0.63795670247025
 1 -4.94821492179218 -2.93058657505751 -0.67455959705971
 1  3.85567583428343 -0.51232580248025  0.05353499189919
 1 -3.65212284348435 -0.05897956805681 -0.36627849454945
 1  2.59310000940094  2.91369176527653  1.58144679998000
 1  0.96647384818482  2.81354208600860  0.56478620612061
 1  2.50552761156116  3.32301277477748 -0.16224019361936
 1 -3.40827269686969 -3.52041039693969 -1.53485849664967
 1 -2.80424203000300 -4.17224921782178  0.10749540094009
 1 -1.48735970727073 -3.74466480088009 -1.14066629302930
 1  0.18409080988099  0.84305022022202  0.14340498569857
 1 -1.59133022162216 -0.14398641144114 -0.22503022912291
 1  2.22097064156416 -1.49510856055606 -0.22904246844684
 1 -0.06805629482948 -2.61711675397540 -0.40950181108111

