%nproc=4
%Mem=2GB
# td=(NStates=1) B3LYP/6-31G(d,p) 

TD

0 1
 6  12.11556589918992  0.54018461896190 -0.73701982088209
 6 -12.10493280738074 -0.01864690629063  0.80205938483848
 6  13.33086249894990 -0.41290095009501 -0.66904290329033
 6 -13.07851435133513  1.11411580308031  1.31076179057906
 6  13.11667398159816 -1.85383105550555 -0.65424718351835
 6 -13.47491208730873  2.00803931603160 -0.05336496939694
 6  11.08888068196820  0.00356462096210  0.21479901770177
 6 -11.00810847864786  0.45915579787979 -0.05826346114611
 6  12.35122956035604 -2.19452174617462  0.61838581488149
 6 -12.23933381598160  2.61318162636264 -0.61380971687169
 6  11.19194890289029 -1.18236029052905  0.84055062346235
 6 -11.06311110531053  1.66940256205621 -0.77668654235424
 6  11.58042863056306  0.52645377047705 -2.13655213381338
 6  12.54496791019102  2.06427048214821 -0.36772829182918
 6 -12.94929252005200 -1.10245736443644  0.11321515141514
 6 -11.58024689268927 -0.64352752635264  2.15729387758776
 6  9.90271833443344  0.82985909950995  0.41144314481448
 6 -9.91261106800680 -0.56488903100310 -0.31482557035704
 6  10.25890006630663 -1.70790060176018  1.97051968686869
 6 -9.91603457365737  2.14452619171917 -1.74843630853085
 6  8.59211545124512  0.51384134033403  0.46669487568757
 6 -8.60460341874187 -0.39706957225723 -0.08214453735374
 6  7.36715528372837  1.29658845914591  0.53207582018202
 6 -7.52409130303030 -1.27428590369037 -0.20424082098210
 6  7.61552460216022  2.83019565676568  0.77958039503950
 6 -7.90378756695670 -2.79740975207521 -0.57102438003800
 6  6.15105900740074  0.73326771577158  0.22841500050005
 6 -6.26533514341434 -0.84389521212121 -0.14160627232723
 6  4.92377302800280  1.45032736463646  0.23196285528553
 6 -5.05077468926893 -1.66748272607261 -0.43218460006001
 6  3.69511822342234  0.71226879207921  0.22997494679468
 6 -3.69515490069007 -1.14758539123912 -0.28270070777078
 6  2.31733503490349  1.30636134383438  0.24379886778678
 6 -2.51332033143314 -1.90414547324732 -0.53306658675868
 6  2.33974834643464  2.88470783728373  0.59423379667967
 6 -2.55879642504250 -3.29936346284628 -0.82854420452045
 6  1.19866141464146  0.56390773237324  0.04361927892789
 6 -1.37721589468947 -1.15416398839884 -0.24797350245025
 6  1.19592396459646 -0.83263821102110 -0.16222374207421
 6  0.01496203580358 -1.55637187698770 -0.18758251425143
 1  14.04806491229123 -0.17832540304030  0.21665970887089
 1  14.03173018681868 -0.20888926462646 -1.59131266966697
 1 -12.56297266226623  1.80311270147015  1.95196876167617
 1 -13.87885874347435  0.54831432373237  1.71274771287129
 1  14.22735335733573 -2.30064088178818 -0.58249169496950
 1  12.66124200590059 -2.38109200920092 -1.58105422872287
 1 -14.15835922412241  2.78917227722772  0.19467050465047
 1 -14.16011079487949  1.36592626682668 -0.62093611571157
 1  13.04624658845885 -2.14411691829183  1.55156703870387
 1  12.04646210071007 -3.26637032913291  0.68739559515952
 1 -11.83673346544654  3.45177289798980 -0.09340282328233
 1 -12.40337655155516  3.03158666646665 -1.69527342854285
 1  11.40621399189919 -0.41534461176118 -2.87628576127613
 1  12.28103498419842  1.27290195149515 -2.85407198119812
 1  10.48454602590259  0.83757686938694 -2.10559127862786
 1  12.99290024412441  2.23541044294429  0.70380772127213
 1  11.70231863876388  2.62025193609361 -0.53589774677468
 1  13.39534139043904  2.52318258815882 -1.00082235333533
 1 -13.38322755345535 -0.70118412741274 -0.94216031673167
 1 -13.61949412201220 -1.52856866106611  0.90418763946395
 1 -12.27035463866387 -2.02532093699370 -0.20127601010101
 1 -10.82867535843584 -0.06609224862486  2.73609326842684
 1 -10.92990951635164 -1.47898889958996  1.83266728292829
 1 -12.28609267326733 -0.98374284218422  2.84036256435644
 1  9.95483889048905  1.94721958205821  0.46359226712671
 1 -10.06317076177618 -1.65790090009001 -0.31769814781478
 1  9.40039411691169 -1.11712930763076  2.17055081268127
 1  10.82124293839384 -1.62959915781578  3.01279270927093
 1  9.93369543674367 -2.69302915291529  1.67172679427943
 1 -9.22515955125512  1.09648196079608 -1.90027252415241
 1 -9.28307311221122  2.88591211321132 -1.32608265446545
 1 -10.59769003400340  2.33417842324232 -2.74899487278728
 1  8.30963655445544 -0.49080986118612  0.33212626222622
 1 -8.21478487368737  0.55475967006701  0.10981732923292
 1  8.41662489458946  2.83081811771177  1.48304768726873
 1  6.65716759745975  3.37924562876288  1.13597617731773
 1  8.17195143284328  3.33952261426143  0.00584736183618
 1 -8.41667261946195 -2.72074913401340 -1.60868756235624
 1 -8.79864085238524 -2.98871205850585  0.26791293059306
 1 -7.14948950155016 -3.57408005930593 -0.83319220442044
 1  6.28922978747875 -0.27160238703870  0.09391737503750
 1 -6.12535452005201  0.15364730323032 -0.09802007880788
 1  4.71659501680168  2.54614305840584  0.18380128692869
 1 -5.14385448574858 -2.77813132953295 -0.50039218031803
 1  3.85752601930193 -0.45963053295330  0.01212085048505
 1 -3.60047767896790 -0.07870154025403  0.22726085938594
 1  2.61335203460346  3.04868526462646  1.67696635193519
 1  1.21407860866087  3.18643937573757  0.60587031453145
 1  2.83674073287329  3.38724919841984 -0.19526349594960
 1 -3.14090596019602 -3.50930928682868 -1.73932894369437
 1 -3.34413601940194 -3.61115310821082 -0.07936328492849
 1 -1.57696866816682 -3.95215554995500 -0.80409263566357
 1  0.23119552035203  1.07554346954695  0.13180382558256
 1 -1.64978606720672 -0.08716072887289  0.12251452535254
 1  2.07660620512051 -1.41766081578158 -0.24302386658666
 1  0.10407091789179 -2.56552159445945 -0.31153201410141

