%nproc=4
%Mem=2GB
# td=(NStates=1) B3LYP/6-31G(d,p) 

TD

0 1
 6  12.03418776137614  0.54726532703270 -0.71160727962796
 6 -12.04624693879388 -0.09711475307531  0.93156233513351
 6  13.34519393209321 -0.26607626762676 -0.48309430843084
 6 -13.07267376727673  1.03532792429243  1.24891560596060
 6  13.22088440264026 -1.82262793519352 -0.42508426722672
 6 -13.32596719281928  1.95612412451245  0.10739110621062
 6  10.93059485338534  0.03504776927693  0.33134067186719
 6 -10.93916158395839  0.40059994229423  0.05132749794980
 6  12.38119255665567 -2.04986728072807  0.78017199349935
 6 -12.01330121272127  2.64463477167717 -0.45792412831283
 6  11.14853456145615 -1.14101615611561  1.02485905430543
 6 -10.90178497269727  1.74775039683968 -0.56595546924692
 6  11.49456004370437  0.30727185228523 -2.07469594819482
 6  12.44343775717572  2.09617367246725 -0.46617813681368
 6 -12.92968055885589 -1.14955207390739  0.10754458435844
 6 -11.45533440144014 -0.68773194679468  2.17374552275228
 6  9.80982904550455  0.78974508810881  0.45247724822482
 6 -9.90725053195319 -0.53076561866187 -0.29322341014101
 6  10.12242641894189 -1.55952576427643  2.03217585248525
 6 -9.84919788998900  2.20242198129813 -1.60108157305731
 6  8.57953419311931  0.44305426162616  0.29543774997500
 6 -8.55881884028403 -0.36897676297630 -0.04588091099110
 6  7.42402097029703  1.30352915321532  0.35360797339734
 6 -7.48820771467147 -1.24254272937294 -0.34814521142114
 6  7.64933798349835  2.72138477567757  0.71828426542654
 6 -7.88992618081808 -2.70478048914891 -0.72286956455646
 6  6.14844874637464  0.79131352035203  0.18397055605561
 6 -6.18049665956596 -0.88181900450045 -0.20524263596360
 6  4.85991664236424  1.29481181308131  0.28581824082408
 6 -5.02220183198320 -1.81242722052205 -0.47254863646365
 6  3.65432414401440  0.69918748394840  0.09183113241324
 6 -3.80014539973997 -1.17754838753875 -0.39762219991999
 6  2.41085438683868  1.31201190889089  0.08788327622762
 6 -2.57589658905891 -1.83751881058106 -0.47155043514351
 6  2.35266963856386  2.84241360786079  0.53500787408741
 6 -2.68783932933293 -3.31328485498550 -0.70877222732273
 6  1.23122467096710  0.60888222982298 -0.10345542854285
 6 -1.35650382348235 -1.08032660466047 -0.30897960306031
 6  1.11374574677468 -0.77238218541854 -0.40665818551855
 6 -0.08330779117912 -1.51645788558856 -0.50911466746675
 1  14.16299640544054 -0.01477904840484  0.34166220912091
 1  13.73762077587759  0.02375399969997 -1.60491402980298
 1 -12.68272463746375  1.78201059125913  2.02366593139314
 1 -14.01347220482048  0.37991748404840  1.59179561766177
 1  14.24039466146615 -2.17719853755375 -0.34800824662466
 1  12.56466234793479 -2.06080998099810 -1.22964908820882
 1 -14.18473186138614  2.72964632463246  0.58180921852185
 1 -13.71422620642064  1.43365303950395 -0.98349237133713
 1  13.03256522032203 -2.07980048664866  1.62155403740374
 1  11.76580403490349 -3.13663735583558  0.76279313491349
 1 -11.57317710981098  3.26388410911091  0.41204772177218
 1 -12.24119033293329  3.31723523132313 -1.37097099829983
 1  11.27500087058706 -0.69208228552855 -2.15271340404040
 1  12.22529941064106  0.50901556285629 -2.89587616161616
 1  10.49182675397540  0.69147225892589 -2.26437715721572
 1  12.71473242734274  2.33511041294129  0.63935127562756
 1  11.56622502940294  2.55375528642864 -0.72955711271127
 1  13.22588444474447  2.32542281218122 -1.22497476857686
 1 -13.28910814151415 -0.70440444944494 -0.85364146484648
 1 -13.79597176977698 -1.62358816301630  0.74044126482648
 1 -12.30288789198920 -1.91960036493649 -0.00574645714571
 1 -10.87734022492249  0.10299466006601  2.71745140424042
 1 -10.70031655705571 -1.56769777047705  1.78044206040604
 1 -12.41126519051905 -1.09832430033003  2.67065559365937
 1  10.07339074567457  1.73785864596460  0.46967287518752
 1 -10.33734817951795 -1.48817392739274 -0.42151852985298
 1  9.24227830533053 -0.95712330703070  2.21807556515652
 1  10.70404121822182 -1.63347954585459  3.00842227222722
 1  9.64394646184619 -2.58693854385439  1.82962258385839
 1 -9.47455449074907  1.18805111771177 -2.13723622052205
 1 -8.83409821472147  2.61868539053905 -1.14545459165917
 1 -10.31925219021902  2.70949595499550 -2.54723469676968
 1  8.35405099589959 -0.82097287748775  0.25352840244024
 1 -8.10471386658666  0.60013420752075  0.19016536403640
 1  8.17671090319032  2.78928396429643  1.63913329582958
 1  6.50421230193019  3.26507421162116  0.63819639933993
 1  8.17824206190619  3.25032369436944 -0.28448167106711
 1 -8.47149810201020 -2.57267432653265 -1.61738843244324
 1 -8.25732672097210 -3.07514070137014  0.24460059935994
 1 -7.09252380498050 -3.19953260456046 -0.95549443464346
 1  6.05684654915492 -0.18514374117412  0.04880286358636
 1 -5.90385236983698  0.17037897639764 -0.16177645444544
 1  4.85009836713671  2.39627807190719  0.67608051485149
 1 -5.17291739203920 -2.74112762916292 -0.67530967206721
 1  3.78244851155115 -0.42173674357436 -0.12528288988899
 1 -3.63237086828683 -0.24121779187919 -0.10903276997700
 1  2.54409510891089  3.02345274137414  1.68316697199720
 1  1.28389559035904  3.19351008280828  0.36667639513951
 1  3.14340139893989  3.34032450595060  0.01524755515552
 1 -3.09765163476348 -3.58741709760976 -1.78826383718372
 1 -3.69534113991399 -3.58261025392539  0.00978562996300
 1 -1.68608958025803 -3.93095342974297 -0.40756298269827
 1  0.35151755255526  1.33166908210821 -0.11985133993399
 1 -1.45120620922092 -0.04485649844984 -0.17970569666967
 1  1.94286283078308 -1.31673072277228 -0.56606617081708
 1 -0.01412090129013 -2.62378742104210 -0.87032789368937

