%nproc=4
%Mem=2GB
# td=(NStates=1) B3LYP/6-31G(d,p) 

TD

0 1
 6  12.12983732633263  0.52733333383338 -0.59612573147315
 6 -12.10568288238824 -0.01800684228423  1.07194637353735
 6  13.45611502420242 -0.42772243224322 -0.63433943294329
 6 -12.92658915881588  1.15943033453345  1.55987670207021
 6  13.19325163936394 -1.92728840124012 -0.42459421822182
 6 -13.33268786488649  2.01993050515052  0.39057942504250
 6  11.06309810371037 -0.04133986948695  0.36409394719472
 6 -10.95148281608161  0.34343422572257  0.05352771797180
 6  12.28413285068507 -2.12297459145915  0.76035001130113
 6 -12.10560044264426  2.55186549474947 -0.27502583848385
 6  11.21247095509551 -1.12682473697370  1.10790735913591
 6 -11.07601239543954  1.49742536433643 -0.72034090779078
 6  11.65277586528653  0.42578370347035 -2.08890736933693
 6  12.56389980338034  1.86688074317432 -0.20431195019502
 6 -13.06933452425243 -1.11412853155316  0.36343017291729
 6 -11.30475934393439 -0.75614878847885  2.23543169136914
 6  9.85752381498150  0.88949506310631  0.56655865636564
 6 -9.92534234113411 -0.60542308440844 -0.30110419821982
 6  10.24961913821382 -1.55814562626263  2.30702333723372
 6 -10.09592256245625  2.02553429252925 -1.82334379927993
 6  8.60146638633863  0.50489044524452  0.27504571077108
 6 -8.63185614401440 -0.31250111541154 -0.35475179807981
 6  7.32215078327833  1.40439924022402  0.44183679627963
 6 -7.54827372127213 -1.30792926802680 -0.56376677357736
 6  7.49952300200020  2.90958359555956  0.76618905590559
 6 -7.91100828902890 -2.70002001310131 -0.93402067966797
 6  6.16052995449545  0.80374476347635  0.23009516851685
 6 -6.27444605450545 -0.86445726832683 -0.39624173587359
 6  4.83920457115712  1.37531986388639  0.21330098909891
 6 -5.02444205600560 -1.71137711551155 -0.50780216181618
 6  3.64222293389339  0.68538610381038 -0.04236228692869
 6 -3.85457084228423 -1.08933956665667 -0.29445188288829
 6  2.40777407880788  1.30325103280328 -0.01966747884788
 6 -2.55151415081508 -1.79528458715872 -0.53913719381938
 6  2.28917328892889  2.88167753425343  0.15808018131813
 6 -2.56078662406241 -3.26630015651565 -0.82244359445945
 6  1.27136868536854  0.64430577217722 -0.23584866786679
 6 -1.42016018911891 -1.05685425742574 -0.40338904400440
 6  1.13728810101010 -0.84642959015902 -0.30943846354635
 6 -0.00632009240924 -1.56867310711071 -0.41399515551555
 1  14.20335044084409 -0.07042461296130  0.20690873377338
 1  14.19500651445144 -0.37927630333033 -1.49145268366837
 1 -12.35560192519252  1.72967535773577  2.14862842764276
 1 -13.80471132873287  0.75207469976998  2.21863830193019
 1  14.02436305830583 -2.57058787648765 -0.40333377917792
 1  12.51545742744274 -2.40804470447045 -1.20612673597360
 1 -13.86115950415041  2.82196555655566  0.77898893649365
 1 -13.84506929072907  1.67187686188619 -0.34746876897690
 1  12.91619358315832 -2.30724323092309  1.73228511051105
 1  11.80002745724572 -3.15226891899190  0.70310716631663
 1 -11.57693748584859  3.52413013371337  0.22399891689169
 1 -12.57545375927593  3.18264177197720 -1.06876077727773
 1  11.77763113361336 -0.71652472977298 -2.44328246094609
 1  12.18124500520052  1.22798746004600 -2.68298487248725
 1  10.63588115941594  0.73764687638764 -2.28443916341634
 1  12.76549750385039  2.10370727262726  0.91530887138714
 1  12.02609101600160  2.59615952685269 -0.83060721772177
 1  13.68992084838484  1.98606887678768 -0.56642891399140
 1 -13.38409764046405 -0.42291630063006 -0.48764486518652
 1 -13.84173634623462 -1.06778258245825  1.18162538323832
 1 -12.60358796199620 -2.17294569946995  0.05086920442044
 1 -10.66948943984398  0.05624998559856  2.69908956805681
 1 -10.71933845924593 -1.56713771447145  2.00428444464446
 1 -12.09148321232123 -1.19836430433043  2.87046557465746
 1  10.07227063366337  2.11264612471247  0.64608051595160
 1 -10.24230867556756 -1.56195130513051 -0.42906928492849
 1  9.36662073957396 -0.93313090779078  2.47012076967697
 1  11.06265707980798 -1.48240443834383  3.34068549854986
 1  9.94865693289329 -2.52446229622962  2.03411303290329
 1 -9.55296233153315  1.18335064766477 -2.16771926882688
 1 -9.71989679457946  2.90329385138514 -1.31309135533553
 1 -10.52050231523152  2.37480248564856 -2.66942691599160
 1  8.52160775157516 -0.48045882608261  0.17714076367637
 1 -8.42265566076608  0.72168636273627  0.02398874637464
 1  8.18155138723872  3.02888792469247  1.56611599409941
 1  6.59632151285128  3.54715241944194  0.85754833453345
 1  7.93589782748275  3.46627528952895 -0.14420764366437
 1 -8.76213716591659 -2.60633769286929 -1.88153484708471
 1 -8.39672066036604 -3.38785197249725 -0.25829969066907
 1 -6.91618617121712 -3.14834748604861 -1.18020690589059
 1  6.26615748024802 -0.29638486528653 -0.26279829652965
 1 -5.94106609120912  0.09983192169217  0.11745146834683
 1  5.01209456675668  2.31568001210121  0.46925983278328
 1 -5.10598069836984 -2.66836035243524 -0.89809195029503
 1  3.66757702440244 -0.33092766266627 -0.16754711631163
 1 -3.83779141034103  0.07897422732273 -0.04538640534053
 1  2.53786448584859  3.07928832493249  1.10266892219222
 1  1.15420262106211  3.11268200000000  0.04159388688869
 1  2.79527658645865  3.63318379187919 -0.54471844144414
 1 -2.97395926552655 -3.47477583348335 -1.78599361016102
 1 -3.28600020582058 -3.80456244914491 -0.02005735433543
 1 -1.50905187648765 -3.68885922032203 -0.72631485788579
 1  0.37496989778978  1.14890080528053 -0.34677403220322
 1 -1.49944103270327  0.05535352255226 -0.32818054415442
 1  2.03260180468047 -1.52019106880688 -0.48924848904891
 1 -0.21447093629363 -2.70180522282228 -0.52351321222122

