%nproc=4
%Mem=2GB
# td=(NStates=1) B3LYP/6-31G(d,p) 

TD

0 1
 6  12.13368771137114  0.57114771527153 -0.55138125702570
 6 -12.14453676777678  0.00969592799280  0.91257043594359
 6  13.42313172587259 -0.33024268426843 -0.52560855985599
 6 -12.80454695459546  1.16866125762576  1.36333704810481
 6  13.10818313251325 -1.82205787818782 -0.67150890969097
 6 -13.35185978207821  1.91449996209621  0.14459482658266
 6  10.97075886978698 -0.00246598209821  0.22169970777078
 6 -10.91108877667767  0.34927480978098 -0.13501113591359
 6  12.15505994339434 -2.24108640264026  0.53323730003000
 6 -12.25141502410241  2.57019732793279 -0.76417475337534
 6  11.06171587958796 -1.31286334083408  0.75570213861386
 6 -11.08296309050905  1.46747236903690 -0.87732660636064
 6  11.67714830253025  0.63262438753875 -2.04126260486049
 6  12.59938335173517  1.98327238233823 -0.15513703270327
 6 -12.98966655745575 -1.13229034773477  0.28220205010501
 6 -11.44124299229923 -0.64182735633563  2.22289043724372
 6  9.80605866846685  0.88918503210321  0.43764576507651
 6 -9.88797860476047 -0.62843538563856 -0.19278336613661
 6  10.05166934323432 -1.86294610631063  1.76671930683068
 6 -10.13911688188819  2.03116485558556 -1.90545201010101
 6  8.51231747144715  0.55400535673567  0.25600380658066
 6 -8.52631558995900 -0.31621148644864 -0.11534785768577
 6  7.35698426662666  1.42484128442844  0.38474108670867
 6 -7.42581147504750 -1.24012248734874 -0.31703210011001
 6  7.54085713541354  2.81590422762276  0.63837627462746
 6 -7.78339552775278 -2.72654266536654 -0.60755803340334
 6  6.13463736523652  0.69669405840584  0.33500565956596
 6 -6.08775738563856 -0.73613443604360 -0.32814492619262
 6  4.88317896859686  1.32434476637664  0.43429308830883
 6 -5.03656326812681 -1.55650162796280 -0.50747212881288
 6  3.68855756735674  0.78914647984798  0.22456440574057
 6 -3.72135752095210 -0.99396002870287 -0.37622005970597
 6  2.34201750315032  1.33759446714671  0.19642413031303
 6 -2.46563556295630 -1.78891395009501 -0.45690897099710
 6  2.11723609520952  2.73580294679468  0.45658003130313
 6 -2.55472601800180 -3.29154268076808 -0.67765911601160
 6  1.20245179367937  0.53277461906191 -0.01347643064306
 6 -1.29804797789779 -1.08178675067507 -0.24829353445345
 6  1.17775214741474 -0.88906385358536  0.05919840014001
 6  0.02437297689769 -1.63155939573957 -0.18373212921292
 1  13.96932703850385 -0.03242081258126  0.54191223412341
 1  14.12116913071307 -0.00180855655566 -1.21493503190319
 1 -12.09053541854185  1.77464985518552  1.77248081288129
 1 -13.72741359895990  1.06565605790579  1.98297473557356
 1  13.95560618261826 -2.60381119881988 -0.67128057385739
 1  12.67536341804180 -1.90681458145815 -1.77987411071107
 1 -13.85486887508751  2.83759711971197  0.52092312991299
 1 -14.01278606240624  1.41053072727273 -0.57429145124512
 1  12.80580254405440 -2.27579008560856  1.30875275727573
 1  11.48274572907291 -3.25186887898790  0.48573542914291
 1 -11.79505929802980  3.66244396509651 -0.32447593059306
 1 -12.62333854775478  2.99957346514651 -1.71292519371937
 1  11.36290966146615 -0.42378545584558 -2.48845697839784
 1  12.60805768646865  0.95067972927293 -2.46293286728673
 1  10.81153872517252  1.46264937663766 -2.11810252975298
 1  12.92744369846985  1.91113801570157  0.85129246974698
 1  11.82572097899790  2.94884479537954 -0.02360651765177
 1  13.19569142544254  2.41267153705371 -0.92604487558756
 1 -13.35810504120412 -0.78442245124512 -0.57250335103510
 1 -13.55058723132313 -1.55312111631163  0.94748196889689
 1 -12.39822742594260 -2.06298470337034 -0.04607048954895
 1 -10.80340283118312  0.16348070867087  2.79379903900390
 1 -10.73041956735674 -1.52929393009301  2.39802381858186
 1 -12.26858092209221 -0.87928239613961  3.08728725682568
 1  10.20752415901590  1.91948680878088  0.38129403730373
 1 -10.05792023672367 -1.70954606460646 -0.12965934393439
 1  9.44690876837684 -1.04793238793879  2.31842560016002
 1  10.47320813491349 -2.59403560146015  2.51597302730273
 1  9.31168323552355 -2.47338718871887  1.25099472107211
 1 -9.33952098739874  1.15792810541054 -2.23367586448645
 1 -9.56222102700270  2.94625814781478 -1.25839588578858
 1 -10.49044930993099  2.46818182358236 -2.90646061936194
 1  8.26459205000500 -0.51323210341034  0.05854890449045
 1 -8.24011740694069  0.72705689978998 -0.02256590909091
 1  8.25580881298130  2.88999403530353  1.50984036653665
 1  6.53059494019402  3.26398410261026  0.87735031473147
 1  8.04220845854586  3.29972863486349 -0.18761198409841
 1 -8.45765671787179 -2.87342440154015 -1.46873356695670
 1 -8.38939992829283 -3.00006319361936  0.25642178147815
 1 -7.06290084268427 -3.34850750205020 -0.73320220542054
 1  6.19083994849485 -0.31573680048005  0.02531051435144
 1 -6.03289527412741  0.24392633113311 -0.13649392619262
 1  4.79708306560656  2.38942738683868  0.73525643244324
 1 -5.14670477077708 -2.63005652205221 -0.64658679977998
 1  3.80577084378438 -0.35311988188819  0.04497413581358
 1 -3.72118975017502  0.16854318421842 -0.45488735543554
 1  2.61774247364737  3.22149254535454  1.27067572287229
 1  1.21636883768377  3.20511124292429  0.30251997949795
 1  2.58428548734873  3.18022849634963 -0.41354532413241
 1 -2.97167903750375 -3.51266962286229 -1.77110212101210
 1 -3.10221182698270 -3.75452744564456 -0.13759910851085
 1 -1.51183215451545 -3.73125345974597 -0.59978220462046
 1  0.37198959975998  1.14241015621562 -0.03140249504950
 1 -1.19283037163716  0.01442943014301  0.03220549444944
 1  2.09941848634863 -1.42355140484048  0.00452088788879
 1  0.23895440624062 -2.72646768906891 -0.29687054795480

