%nproc=4
%Mem=2GB
# td=(NStates=1) B3LYP/6-31G(d,p) 

TD

0 1
 6  12.04213855645565  0.54874547504750 -0.70529664856486
 6 -12.03161547564756  0.03981894029403  0.85382456135614
 6  13.34719413211321 -0.28353801380138 -0.58195419441944
 6 -12.85861236113611  1.17893228472847  1.36906762116212
 6  13.00417273147315 -1.84390006240624 -0.49323108190819
 6 -13.30310490659066  2.11086959905991  0.17522788988899
 6  11.05551734563456 -0.04952068756876  0.30764830263026
 6 -10.86916458425842  0.52848273057306 -0.04643227802780
 6  12.24742918031803 -2.20437273127313  0.71772574887489
 6 -12.02901278387839  2.54699500770077 -0.43049138503850
 6  11.12117182518252 -1.18256031053105  0.97162373077308
 6 -10.86164095829583  1.66491211301130 -0.67740661436144
 6  11.48975956365637  0.49759088418842 -2.13027150575058
 6  12.53459687308731  1.93336739183918 -0.26736825582558
 6 -12.86025361616162 -1.02055917461746  0.18115194509451
 6 -11.36855572357236 -0.65142831643164  2.20298844704470
 6  9.85081314391439  0.89582569616962  0.52174417491749
 6 -9.82474228112811 -0.51202374447445 -0.20721480928093
 6  10.21657583388339 -1.65440525222522  2.13318595349535
 6 -9.79180215041504  2.06096783588359 -1.68339980488049
 6  8.57136337603760  0.62162211841184  0.33332153835384
 6 -8.48462142054205 -0.30168003330333 -0.25785210811081
 6  7.40807937613761  1.49078787908791  0.40962357495750
 6 -7.51160005390539 -1.38603707880788 -0.32986338323832
 6  7.43229627932793  2.87040967816782  0.69422185918592
 6 -7.98887607580758 -2.80567057815782 -0.64182145974597
 6  6.12902680418042  0.88302269126913  0.31392355135514
 6 -6.16545515541554 -0.98478930153015 -0.33527563926393
 6  4.80626127682768  1.46577890979098  0.37838749774977
 6 -5.07972758455846 -1.80514649244925 -0.41831321292129
 6  3.67929664126413  0.81332889808981  0.18937088638864
 6 -3.76822220742074 -1.20284091679168 -0.30128256595660
 6  2.28171147254725  1.25187589528953  0.16039052695270
 6 -2.55829482888289 -1.92366742544254 -0.41258453855386
 6  2.05880025162516  2.72386175267527  0.45019939323932
 6 -2.60210075547555 -3.36434996149615 -0.62001335143514
 6  1.11057260576058  0.48863020462046 -0.16850193319332
 6 -1.35273344644464 -1.19027759975998 -0.45256396149615
 6  1.13382775497550 -0.88613356055606 -0.46923444314431
 6 -0.01809126952695 -1.62521876167617 -0.63910766676668
 1  13.80166027182718  0.02321475097510  0.27130517341734
 1  14.04699171297130  0.00323194749475 -1.41460499889989
 1 -12.22147851285128  1.70348273847385  2.19126269106911
 1 -13.61964282188219  0.71240073237324  1.90349678777878
 1  14.15559618161816 -2.31120193789379 -0.75033847964796
 1  12.21254713641364 -2.14757865786579 -1.40834695799580
 1 -13.72407579577958  3.01502486248625  0.45575661326133
 1 -14.07130191399140  1.39784945914591 -0.63932795489549
 1  12.84266623042304 -2.12368487508751  1.58623050505051
 1  11.76457391189119 -3.15132882498250  0.56751360696070
 1 -11.55372516461646  3.42499021972197  0.21841835883588
 1 -12.41304751865187  3.04059756755676 -1.50743464466447
 1  11.30084345484549 -0.62064514181418 -2.54251238393839
 1  12.20794767546755  0.95155981728173 -2.91063763776378
 1  10.58096566786679  0.95714882658266 -2.15308602810281
 1  12.71368232233223  2.09366626852685  0.81156849734973
 1  11.95654406130613  2.73145305620562 -0.56574073107311
 1  13.56690854715472  2.27594786468647 -0.68062033313331
 1 -13.57149638033803 -0.63601761076108 -0.74248034873487
 1 -13.48291046364636 -1.62790859505951  0.96678389908991
 1 -12.16465406860686 -1.82637104200420 -0.23416929942994
 1 -10.71841433233323 -0.04482012141214  2.80808046714671
 1 -10.71576810221022 -1.42212321302130  1.83025704190419
 1 -12.06397046104610 -1.04110857875788  2.81644017211721
 1  10.04930833743374  2.00465532563256  0.51092700060006
 1 -10.21224566926693 -1.46457156715672 -0.55945232323232
 1  9.71944602210221 -0.87357495219522  2.58392214981498
 1  10.69361017511751 -2.29607580548055  3.00234166416642
 1  9.54879694689469 -2.36610646064606  1.56546616821682
 1 -9.19433646894689  1.42167448004801 -2.30562305920592
 1 -9.18877368226823  2.86503002500250 -0.99885993219322
 1 -10.26994725972597  2.78455346074607 -2.50162013531353
 1  8.36517210801080 -0.46723750395039  0.26445949554956
 1 -8.26667006220622  0.63262745684568 -0.18934258675868
 1  7.93299653175318  3.05924095999600  1.74381376387639
 1  6.55153703440344  3.20693839803980  0.63983656335634
 1  8.10879511721172  3.65447410941094  0.00553733083308
 1 -9.00456140834083 -2.83977103620362 -1.44683137673767
 1 -8.46663765206521 -3.15615880318032  0.35983212251225
 1 -7.14040859345935 -3.39887253855386 -0.88464734993499
 1  6.22623348784878 -0.18302352915292 -0.07169918661866
 1 -5.90511249584958 -0.15741380288029  0.06685640884088
 1  4.77087044434443  2.64062250635064  0.51286419321932
 1 -5.04069416971697 -2.88043155955596 -0.74111625272527
 1  3.64479474617462 -0.44406897679768  0.09748938733873
 1 -3.54875250645064 -0.04641831193119 -0.39831169786979
 1  2.52069276867687  2.91237163326333  1.25907456275628
 1  0.96205340614061  3.05908664046405  0.64872459996000
 1  2.46804386318632  3.42514298779878 -0.27945191479148
 1 -3.06346821642164 -3.74682303820382 -1.60535554635464
 1 -3.26623822962296 -3.68721071397140  0.06913156455646
 1 -1.63036400770077 -3.92991332573257 -0.33059528592859
 1  0.08746114691469  1.03601951715172 -0.29181853665367
 1 -1.45625671427143 -0.10443245604560 -0.45373309940994
 1  1.97198574307431 -1.52023107280728 -0.67471703590359
 1  0.18969948074808 -2.73925896819682 -0.87070793169317

