%nproc=4
%Mem=2GB
# td=(NStates=1) B3LYP/6-31G(d,p) 

TD

0 1
 6  12.18325266786679  0.55748634913491 -0.51639775867587
 6 -11.99499181328133 -0.03481852345235  1.02176135503550
 6  13.48845825852585 -0.23958361836184 -0.47459345834583
 6 -12.92999949984999  1.13911830333033  1.45865658005801
 6  13.21061337553755 -1.78578425082508 -0.40451221002100
 6 -13.50483507960796  1.99731824392439  0.30419078617862
 6  11.01146294019402 -0.01295703120312  0.39525706350635
 6 -10.97493516131613  0.41693157545755 -0.04788242304230
 6  12.42918735613561 -2.19653194719472  0.87418139443944
 6 -12.20116999959996  2.61096140434043 -0.46277461336134
 6  11.21338104610461 -1.21535358985899  1.05506207460746
 6 -10.99470426462646  1.61962758455846 -0.66068494219422
 6  11.69314990269027  0.67543866896690 -2.01270974957496
 6  12.57397081048105  1.94184823992399 -0.07923944294429
 6 -13.08212580338034 -1.11002812151215  0.39182301220122
 6 -11.30188905690569 -0.64253742734273  2.23888203640364
 6  9.92079014161416  0.79226534013401  0.35639764026403
 6 -9.93405321222122 -0.51068361046105 -0.16086017381738
 6  10.21330550685068 -1.66102591429143  2.07837047194719
 6 -10.01522449264927  2.04758649774978 -1.74598606350635
 6  8.55875211491149  0.31516147234723  0.42713091929193
 6 -8.55177813621362 -0.27495736103610 -0.22633895679568
 6  7.40581915011501  1.21549034933493  0.32998561116112
 6 -7.53855274917492 -1.36646512161216 -0.39749014591459
 6  7.56872992269227  2.63651628882888  0.67304974197420
 6 -8.00839802800280 -2.78680869196920 -0.61570884848485
 6  6.15815971747175  0.66765115411541  0.18360051905191
 6 -6.22854146404640 -0.85118594119412 -0.33603571527153
 6  4.87124777547755  1.42300463236324 -0.08870921192119
 6 -5.08653826562656 -1.65871184898490 -0.41771315291529
 6  3.63606231783178  0.77384494969497 -0.18946699739974
 6 -3.78804418961896 -1.07691832453245 -0.37535997369737
 6  2.36521982338234  1.34424513221322 -0.00664617671767
 6 -2.55811481088109 -1.83370842954295 -0.68108138823882
 6  2.13736810841084  2.86869623612361  0.21071544484448
 6 -2.61591213661366 -3.25151867836784 -1.01315266536654
 6  1.17427897639764  0.61012235383538 -0.13368845184518
 6 -1.39125729882988 -1.05959453145314 -0.42790149524952
 6  1.07530190239024 -0.81359630683068 -0.21019853955396
 6 -0.01244070447045 -1.56266250605060 -0.43037679367937
 1  14.06934704050405  0.11242367186719  0.36269431233123
 1  13.99530654445445  0.01592321662166 -1.50323386178618
 1 -12.36685305030503  1.88411080128013  2.10020358515852
 1 -13.80252110971097  0.45590508280828  2.06872331043104
 1  14.21910253225323 -2.21362217991799 -0.18776222202220
 1  12.86057193889389 -2.22199609960996 -1.45198132143214
 1 -14.08008139633963  2.88241160116012  0.50244128172817
 1 -14.00049483328333  1.44241391559156 -0.66202022412241
 1  12.96034799859986 -2.17446995359536  1.82024390639064
 1  12.02169962446245 -3.21840553265327  0.66196305190519
 1 -11.59124891699170  3.32294001470147  0.13129964696470
 1 -12.31746796069607  3.07757126492649 -1.50902480368037
 1  11.32504587508751 -0.24060713801380 -2.26979511221122
 1  12.48349523022302  1.27455211651165 -2.56988356235624
 1  10.85966353765376  1.44031714341434 -2.12956367586759
 1  12.88825978007801  1.97619452135214  1.02010935143514
 1  11.76464487138714  2.80705061596160 -0.17359151615162
 1  13.26327818411841  2.37386765666567 -0.56447871897190
 1 -13.77794702540254 -0.66901091009101 -0.60189629032903
 1 -13.56329850245024 -1.57970377457746  1.16322354305431
 1 -12.30957856105611 -2.01825022992299 -0.12573845634563
 1 -10.64952744364436  0.03698805940594  2.65472513161316
 1 -10.81703822922292 -1.72055305600560  1.95551956815682
 1 -12.21744580858086 -0.85543001090109  2.98055658375837
 1  9.79712311891189  1.97101196129613  0.30664657255726
 1 -10.28272271697170 -1.65270038003800 -0.06260263826383
 1  9.60696477397740 -0.92442003670367  2.62135589318932
 1  10.50274108820882 -2.35041123902390  2.75355678567857
 1  9.47921998919892 -2.48333818381838  1.66329595119512
 1 -9.27550458575858  1.31565387798780 -2.08138063496350
 1 -9.55137994289429  2.76537005900590 -1.32780282648265
 1 -10.70018028302830  2.42562756815682 -2.57276725002500
 1  8.29879547034703 -0.69114989518952  0.09363241284128
 1 -8.26868026322632  0.67313150725072 -0.21505515801580
 1  8.23345657775778  2.74564960086009  1.38826820932093
 1  6.68068994969497  3.18512621682168  1.05403798349835
 1  7.99279351705171  3.07045570757076 -0.23599682258226
 1 -8.45350630283028 -3.07682474157416 -1.50610730433043
 1 -8.43096408470847 -3.35951913921392  0.36749288858886
 1 -6.88248280088009 -3.26066871817182 -0.58858774397440
 1  5.93965482998300 -0.44068929572957 -0.03260527722772
 1 -6.14206619121912  0.13230516901690  0.02531225442544
 1  4.95331868916892  2.51067951205121 -0.28661575477548
 1 -5.08265836613661 -2.72809632603260 -0.88709085018502
 1  3.62940320702070 -0.18114268416842 -0.36052641424142
 1 -3.80939857105711 -0.00484415451545  0.15881401470147
 1  2.66858755815582  3.21305170127013  1.00964962026203
 1  1.05633283408341  3.16074680648065  0.09440916841684
 1  2.65396245504550  3.41799227272727 -0.56177014661466
 1 -3.27874974457446 -3.45486384228423 -1.84493950475048
 1 -3.04528613441344 -3.79755174807481 -0.18997434603460
 1 -1.44652562386239 -3.75028536293629 -0.96460868726873
 1  0.26503890469047  1.09861577677768  0.11400204540454
 1 -1.48237932653265  0.03206119331933 -0.36533425952595
 1  2.31615015951595 -1.13662271197120 -0.43540310451045
 1  0.02417292809281 -2.66299134143414 -0.24274513541354

