%nproc=4
%Mem=2GB
# td=(NStates=1) B3LYP/6-31G(d,p) 

TD

0 1
 6  12.14769911251125  0.51389198969897 -0.80358647754775
 6 -12.07631994609461 -0.07572261386139  0.89251843074307
 6  13.37467688038804 -0.37655731573157 -0.74424042304230
 6 -12.94550105000500  1.05355974747475  1.31049176357636
 6  13.04504681888189 -1.86072174457446 -0.61155291409141
 6 -13.37806240234023  2.00113862596260  0.18132849995000
 6  11.04373616751675  0.08498276277628  0.23569110691069
 6 -11.06249391719172  0.43891377367737 -0.20385802060206
 6  12.27136157355736 -2.15833812781278  0.73228720502050
 6 -12.20094997759776  2.55226553475348 -0.41972030793079
 6  11.21410111811181 -1.15035709020902  0.90522709110911
 6 -11.13878867306731  1.62995861766177 -0.83945281898190
 6  11.52244283198320  0.43644476957696 -2.20399887848785
 6  12.57399081248125  2.00530458555856 -0.51084260326033
 6 -12.94935252605261 -1.20852797149715  0.21250508040804
 6 -11.41140000800080 -0.75588876247625  2.09277742594259
 6  9.88505656825683  0.98540465406541  0.43446544704470
 6 -10.00517032393239 -0.52017455955596 -0.45717980578058
 6  10.25827000330033 -1.77275708740874  1.83992662756276
 6 -10.07359032923292  2.17911965106511 -1.82705417031703
 6  8.59183542324232  0.59357931413141  0.44168237443744
 6 -8.63281624002400 -0.30810067536754 -0.43640996389639
 6  7.41628019621962  1.25573437373737  0.51320393299330
 6 -7.58198709260926 -1.30334880998100 -0.60872126902690
 6  7.54749779947995  2.78898153535353  0.79449188618862
 6 -7.94077126532653 -2.66721673277328 -0.71849912751275
 6  6.22718662016202  0.68922331133113  0.44723688268827
 6 -6.31211982188219 -0.85770659325933 -0.38229034073407
 6  4.97559821052105  1.31478381028103  0.56348600760076
 6 -5.06305591739174 -1.68288426622662 -0.35770715231523
 6  3.76273498509851  0.69691725692569  0.23006495579558
 6 -3.75492087728773 -1.06018665136514 -0.13729616731673
 6  2.42358565996600  1.24241494919492  0.20293478137814
 6 -2.58074707410741 -1.69833489218922 -0.24261754185419
 6  2.26164053565357  2.84040340684068  0.38693306660666
 6 -2.54243478887889 -3.17108063456346 -0.57739909000900
 6  1.36075762426243  0.53775511711171  0.06862177917792
 6 -1.36025419851985 -1.05767433943394 -0.06202490759076
 6  1.23032740494049 -0.90943589078908 -0.06330385008501
 6  0.00536107570757 -1.51534777457746 -0.12851660766077
 1  13.92493259905991 -0.02546011651165  0.08364640754075
 1  13.99514652845284  0.12610423472347 -1.62997653605361
 1 -12.54195056005601  1.70980337053705  1.96844040884088
 1 -13.98276913451345  0.69467896019602  1.84037047514751
 1  14.14312493449345 -2.39454027172717 -0.54007745354535
 1  12.36741262296230 -2.28677257725773 -1.43418954225423
 1 -13.94478786698670  2.79260262026203  0.58671970957096
 1 -14.06393117691769  1.49398907310731 -0.59099312141214
 1  13.15668763256326 -2.22249475607561  1.50115199719972
 1  11.92326978147815 -3.20771446354635  0.52862971857186
 1 -11.69300909300930  3.38772649334933  0.20011652865287
 1 -12.28992520642064  3.26996050385039 -1.28777267846785
 1  11.25364873537354 -0.62906598389839 -2.38466659935994
 1  12.22348922962296  1.12923758505851 -2.83865043904390
 1  10.45159273057306  1.03207631933193 -2.06355707520752
 1  12.78611956605661  2.25841274317432  0.50459780028003
 1  11.66050445734573  2.68946885778578 -1.01990614761476
 1  13.42149400570057  2.07942821272127 -1.26693896499650
 1 -13.47128635933593 -0.81305531453145 -0.62984908560856
 1 -13.78102027462746 -1.64821062526253  0.86500372107211
 1 -12.28607621082108 -1.92068047294729 -0.10822670517052
 1 -10.74292678357836 -0.04803044244424  2.74315397449745
 1 -10.66561308670867 -1.52740374107411  2.03863787998800
 1 -12.23802786678668 -1.07616208410841  2.74421294939494
 1  10.17808121472147  1.98806366646665  0.40848675657566
 1 -10.21311575627563 -1.52747785778578 -0.66422280028003
 1  9.75860993849385 -0.66964455915592  2.01750550815081
 1  10.48508932303230 -2.02951914981498  2.62255368536854
 1  9.36844891209121 -2.63057290729073  1.58548817041704
 1 -9.28429546484648  1.29114142674267 -2.13362585948595
 1 -9.40143494839484  2.77325084708471 -1.37704775097510
 1 -10.65111537653766  2.70090509590959 -2.65701567486749
 1  8.48315390619062 -0.46257703790379  0.17458050765076
 1 -8.59327272247225  0.73718791289129 -0.33738739123912
 1  7.93717694979498  2.76154119001900  1.67657704020402
 1  6.53981586228623  3.17848555275528  0.79184176387639
 1  8.09756399409941  3.30143880588059 -0.03792701560156
 1 -8.50924187638764 -2.86008306740674 -1.71084777837784
 1 -8.47628861716172 -3.24583777107711 -0.08731259195920
 1 -7.11124567716772 -3.36531918321832 -0.92618150335034
 1  6.27874873937394 -0.35348057485749  0.40659864316432
 1 -6.10026201080108  0.25402734123412 -0.20394067086709
 1  5.05540889818982  2.46370481458146  0.70245315211521
 1 -5.20949104940494 -2.72886640304030 -0.89542168326833
 1  3.84295456215622 -0.36696126602660 -0.07702806440644
 1 -3.84530216141614 -0.03842751285129  0.11878001130113
 1  2.76682738213821  3.37724812091209  1.20654931023102
 1  1.24396159695970  3.16007673947395  0.54722444994499
 1  2.59274633343334  3.22644311781178 -0.59211318091809
 1 -3.16622849244924 -3.42128048394839 -1.44205921672167
 1 -2.91864347014701 -3.73079507240724  0.19313396479648
 1 -1.56631760306031 -3.55522585698570 -0.66231845824582
 1  0.40586298709871  0.91638755395540  0.04431507670767
 1 -1.47925901450145 -0.12309432223222 -0.03587131323132
 1  2.19648819331933 -1.33024207390739 -0.17582714691469
 1  0.01053156395639 -2.74391943424342 -0.18253911481148

