%nproc=4
%Mem=2GB
# td=(NStates=1) B3LYP/6-31G(d,p) 

TD

0 1
 6  12.14094843744374  0.65913651415142 -0.63333945284528
 6 -12.06108842294229  0.09908486688669  0.95672485138514
 6  13.40739015171517 -0.28246790679068 -0.67145314431443
 6 -12.92522902280228  1.30233462496250  1.25298601300130
 6  13.08305061926193 -1.75211088348835 -0.65470722952295
 6 -13.33582817891789  2.12736124822482  0.00593096019602
 6  11.09768156205621  0.09306357085709  0.34090162796280
 6 -10.98272594039404  0.40548043034303 -0.07267490229023
 6  12.33684812221222 -2.15016731073107  0.60514449074907
 6 -12.14671455405541  2.61371167936794 -0.63335167106711
 6  11.18146785478548 -1.20892294679468  0.85104167256726
 6 -11.06839163336334  1.52125774757476 -0.73495236893689
 6  11.67922851055106  0.72371349644965 -2.08899737833783
 6  12.54980839423942  2.14346840194019 -0.09203072207221
 6 -12.91598918971897 -1.12424954365437  0.22683651355136
 6 -11.52077094509451 -0.42105527912791  2.28514666286629
 6  9.86912497509751  0.90294640824082  0.36484848534854
 6 -9.99390919781978 -0.57143968606861 -0.14838892669267
 6  10.19169334563456 -1.89613942564256  1.76123875877588
 6 -9.98954192439244  1.93414515361536 -1.95321678657866
 6  8.55205144484449  0.43128308450845  0.30682888908891
 6 -8.62618557695770 -0.29543940924092 -0.19993631653165
 6  7.39971854005401  1.31749054935494  0.35365797839784
 6 -7.56087498139814 -1.31498997409741 -0.49090948784879
 6  7.60277332703270  2.75396803400340  0.81770420742074
 6 -7.91292848104810 -2.63692370347035 -0.67231450905091
 6  6.15219912141214  0.75131952095210  0.14820697969797
 6 -6.21512012191219 -1.00643146574657 -0.32890500220022
 6  4.82963361406141  1.37812014391439  0.21702136113611
 6 -5.06268588038804 -1.77029300710071 -0.41518289988999
 6  3.64147285888589  0.69150671587159  0.03995594489449
 6 -3.81691707690769 -1.23507414011401 -0.23861629932993
 6  2.33212651405141  1.26289699739974  0.25802028992899
 6 -2.49087808720872 -1.86545160386039 -0.36257953805381
 6  2.22748712031203  2.70754012051205  0.60195456875688
 6 -2.48822936833683 -3.37615114161416 -0.69638098819882
 6  1.19637118561856  0.49960130173017  0.09401431843184
 6 -1.31052922602260 -1.13569214121412 -0.10559926502650
 6  1.08487285948595 -0.91913686088609 -0.01308882858286
 6 -0.09111857225723 -1.60024626442644 -0.21037479347935
 1  14.13345345114512 -0.26324389488949  0.24762280518052
 1  14.17811482528253  0.01157278157816 -1.50599413781378
 1 -12.60661702670267  2.11796418661866  2.12058562336234
 1 -13.77484834243424  0.67628712101210  1.77425386348635
 1  13.95553617561756 -2.26291710941094 -0.59730317611761
 1  12.51304718641864 -1.92039593959396 -1.65617174047405
 1 -13.82311569976998  2.88996235623562  0.35415645324532
 1 -13.91829661346135  1.41687136133613 -0.66468049014902
 1  13.02965492929293 -2.28797130373037  1.28442032403240
 1  12.05330278477848 -3.23522721482148  0.39156601220122
 1 -11.62395218731873  3.37284500520052 -0.09041252425243
 1 -12.38039425332533  3.00625413321332 -1.45683958515852
 1  11.47526089658966 -0.24067714501450 -2.40683881658166
 1  12.61499838053805  1.25819048034804 -2.43658023202320
 1  10.84860243154315  1.36355946764676 -2.49521024052405
 1  12.50932188628863  2.17162406430643  1.06222356285629
 1  11.74890329722972  2.87596750765076 -0.51870602760276
 1  13.58926078237824  2.30333060296030 -0.35548781988199
 1 -13.23002223292329 -0.65007901690169 -0.80304640534053
 1 -13.63231540414041 -1.48419422362236  0.81015823652365
 1 -12.38656625982598 -2.00479888478848  0.02222634013401
 1 -10.97059955085509  0.21611597219722  2.99133879297930
 1 -10.96328285368537 -1.29009000970097  2.26457047324732
 1 -12.18326239023902 -0.64628909680968  2.74146267436744
 1  9.94432783938394  1.93433829392939  0.49484539243924
 1 -10.25899034373437 -1.62722783278328 -0.36745312331233
 1  9.67256133363336 -0.94107170187019  2.03994775237524
 1  10.77358817291729 -2.29064526242624  2.59144057405741
 1  9.39458152535254 -2.48191804180418  1.23713333493349
 1 -9.60549758505850  0.89972228482848 -2.48434093099310
 1 -9.04497930283028  2.49432295429543 -1.53303334953495
 1 -10.54683494849485  2.58342334773477 -2.67605757905791
 1  8.31617720852085 -0.65742652285229 -0.15814276467647
 1 -8.32972636783678  0.70318451255126 -0.29805345784578
 1  7.95771900400040  2.66744178007801  1.87379676217622
 1  6.64061594229423  3.29993769796980  0.62609518921892
 1  8.58753299099910  2.99637829982998  0.16494327142714
 1 -8.33291424362436 -2.78804586368637 -1.78849554315432
 1 -8.80637162546255 -3.22169535683568  0.02076821612161
 1 -7.29727428002800 -3.49548219951995 -0.64158304350435
 1  6.02805366986699 -0.34501972877288 -0.11595361206121
 1 -5.99218120272027  0.09419135763576 -0.05144542134213
 1  4.83317667496750  2.46375481958196  0.30333324012401
 1 -5.07920802110211 -2.67789130553055 -0.64309645074507
 1  3.79708997569757 -0.17791236113611 -0.23961432303230
 1 -3.75591322252225 -0.27318098819882 -0.05509737643764
 1  2.24941564096410  2.82187258335834  1.70376903220322
 1  1.22347954875488  3.06703743554355  0.45545527302730
 1  3.21946900570057  3.15354582808281  0.08093412381238
 1 -2.91595346494649 -3.46605496139614 -1.77529254005401
 1 -3.09490109590959 -3.88323031593159 -0.03644899349935
 1 -1.64828579987999 -3.97306764116412 -0.73949617601760
 1  0.23721612241224  0.92904882008201  0.30127077227723
 1 -1.34956604520452 -0.07504951775177 -0.06688441454145
 1  1.88764730923092 -1.66897594729473 -0.03324288848885
 1 -0.00424991419142 -2.83377842014201 -0.09191005190519

