%nproc=4
%Mem=2GB
# td=(NStates=1) B3LYP/6-31G(d,p) 

TD

0 1
 6  12.21472581518152  0.54224482498250 -0.58878499739974
 6 -12.19247156125613 -0.18812385398540  0.79569874877488
 6  13.54381379407941 -0.36249590959096 -0.44170016901690
 6 -13.15962246214622  1.03852824432443  1.25892660706071
 6  13.21748406260626 -1.81827750015002 -0.42196395519552
 6 -13.48628322442244  2.05326383848385  0.13914428152815
 6  11.08477027092709 -0.04136987248725  0.31858939673967
 6 -11.06882455025502  0.37020690299030 -0.01027866266627
 6  12.34863930133013 -2.14958725272527  0.80517449374937
 6 -12.20208009060906  2.69992030023002 -0.40658899479948
 6  11.19598930693069 -1.30114216871687  0.86641320972097
 6 -11.10220501470147  1.62348797059706 -0.56443531723172
 6  11.70829141684169  0.56927805290529 -1.98335681428143
 6  12.64887830123012  2.01889594469447 -0.13859537853785
 6 -13.01957954875488 -1.10709782848285 -0.13811998209821
 6 -11.73116198419842 -0.87558073167317  2.14615276347635
 6  9.92679074167417  0.80069618321832  0.52424442494249
 6 -9.91167097399740 -0.55748829092909 -0.12106619441944
 6  10.21311548784878 -1.72523233493349  1.90287292219222
 6 -9.89869283948395  2.12397413651365 -1.49692115701570
 6  8.60816705640564  0.44847480368037  0.30431863806381
 6 -8.58911186958696 -0.29817968326833 -0.00988731163116
 6  7.34214278247825  1.36829562986299  0.31015362796280
 6 -7.61833072697270 -1.34763323842384 -0.26327672457246
 6  7.66718976867687  2.79524216141614  0.53398583558356
 6 -8.00624781298130 -2.68927893899390 -0.67597487508751
 6  6.15118902040204  0.79155354435444  0.16484864386439
 6 -6.31018962886289 -0.91372219481948 -0.26860897259726
 6  4.93281393209321  1.34943727562756  0.16482614161416
 6 -5.06772638443844 -1.68102408020802 -0.26759814141414
 6  3.72940165176518  0.76743430863086 -0.09699775047505
 6 -3.78694407960796 -1.11422205490549 -0.24755719341934
 6  2.50645394679468  1.36858756645665 -0.07205271737174
 6 -2.49275827522752 -1.75414047274727 -0.36710999109911
 6  2.36412078367837  2.81653101960196  0.20567494079408
 6 -2.60643118851885 -3.26035956245625 -0.53772512261226
 6  1.34285583408341  0.64985632723272 -0.18129321232123
 6 -1.39774794789479 -1.01180975297530 -0.32153085818582
 6  1.15065943814381 -0.79124407160716 -0.38653617331733
 6 -0.05959541994199 -1.48428466826683 -0.48467222322232
 1  14.23604371017102 -0.08878644914491  0.35681372427243
 1  14.26123313711371 -0.06553492919292 -1.32850638903890
 1 -12.70050641564156  1.56807919811981  2.12696626142614
 1 -13.97142800040004  0.57824731703170  1.74898133623362
 1  13.98216883888389 -2.56547736543654 -0.44443788958896
 1  12.76920280198020 -2.00523442344234 -1.48298442174217
 1 -14.14340772897290  2.70052341234123  0.52067310491049
 1 -14.09238402220222  1.56109578377838 -0.60023404550455
 1  13.09342130593059 -2.10520302690269  1.63596547854785
 1  12.29891734623462 -3.30264395649565  0.57270412601260
 1 -11.92652244434444  3.40937865856586  0.40489700670067
 1 -12.34787100100010  3.25400890869087 -1.33445734693469
 1  11.42833620412041 -0.40110318761876 -2.36891502420242
 1  12.32509939063906  1.15057971927193 -2.69044561856186
 1  10.70317788908891  1.17942105380538 -2.14429514901490
 1  13.03793474757476  1.86922382428243  0.79536687718772
 1  11.82874128102810  2.81912182308231 -0.12751690869087
 1  13.40928278457846  2.44917518741874 -0.66693896499650
 1 -13.39306853755376 -0.44754876387639 -0.96324242494249
 1 -13.83419559215922 -1.60023582778278  0.48163538423842
 1 -12.52340994419442 -1.98226663156316 -0.74163004550455
 1 -11.04158664956496 -0.12982862226223  2.61447110621062
 1 -11.21747827322732 -1.71269226992699  2.09668368456846
 1 -12.55636970097010 -1.18747321522152  2.80123865196520
 1  10.07909131573157  1.87496235633563  0.78196410431043
 1 -10.09002344704470 -1.74786989698970 -0.42927930593059
 1  9.46770084758476 -1.05332292699270  2.19266302390239
 1  10.63366418051805 -2.28973517141714  2.86003743374337
 1  9.77508957615762 -2.58480833083308  1.26096571817182
 1 -9.17951498679868  1.29873218581858 -1.83838633553355
 1 -9.20455526042604  2.78220174217422 -1.01101114731473
 1 -10.36535680068007  2.40604560996100 -2.42204217751775
 1  8.39990558135814 -0.58043882408241  0.11538458805881
 1 -8.40796419161916  0.86155034913491  0.13833018051805
 1  8.56815004710471  2.62084712061206  1.27631701420142
 1  6.62450433113311  3.22087979217922  0.85243782348235
 1  8.12210644834483  3.29430809280928 -0.42022524542454
 1 -8.66303725592559 -2.57908496759676 -1.55801249484948
 1 -8.57373836213621 -3.32801598889889  0.18438457775778
 1 -7.00640519311931 -3.01747439873987 -1.01705059025903
 1  6.08104896939694 -0.21784701150115  0.00079806310631
 1 -6.29470145474547  0.24249618811881  0.13212293549355
 1  4.78883224052405  2.46880532463246  0.20874378117812
 1 -4.87367746804680 -2.82935645204520 -0.15215735683568
 1  3.57925819251925 -0.19564413431343  0.00008964736474
 1 -3.56190382158216 -0.08186185628563  0.01474960826083
 1  2.97790849024903  3.20219061516152  1.12712136743674
 1  1.27803500430043  3.15347607940794  0.32849257675768
 1  2.78670572937294  3.31223169666967 -0.69233320292029
 1 -3.31452332193219 -3.61403975987599 -1.12080709150915
 1 -2.97165877167717 -3.86855884878488  0.46864151555155
 1 -1.76624759605961 -3.76455679007901 -0.92494472087209
 1  0.48648104890489  1.31063697889789 -0.39344869966997
 1 -1.71268235683568 -0.00329234203420 -0.40161788788879
 1  2.06584512901290 -1.34889393909391 -0.36714627882788
 1  0.25539605040504 -2.61507654995500 -0.46786764766477

