%nproc=4
%Mem=2GB
# td=(NStates=1) B3LYP/6-31G(d,p) 

TD

0 1
 6  12.15801014361436  0.64285488598860 -0.74874099299930
 6 -12.10763307740774 -0.11656669826983  0.82761194009401
 6  13.53714312701270 -0.20057971797180 -0.44385038403840
 6 -13.01843834373437  1.11920631213121  1.40005071947195
 6  13.35448776297630 -1.70017568996900 -0.42373413221322
 6 -13.33757835393539  2.24435294739474  0.33150351745175
 6  11.05711750565056  0.06324058855886  0.36097363516352
 6 -10.94189185698570  0.47418730103010 -0.02819045384538
 6  12.46997143454345 -1.99862215621562  0.83855783208321
 6 -12.01515139773977  2.68494880308031 -0.31117945384538
 6  11.16966667466747 -1.08158021252125  1.04116068446845
 6 -11.02398719291929  1.68397401920192 -0.63351222492249
 6  11.55961654935494  0.28265939103910 -2.12382086068607
 6  12.47948136153615  2.09797385248525 -0.54847636663666
 6 -12.99282687348735 -0.94602172087209 -0.03597976807681
 6 -11.59048791679168 -0.99276244984498  2.01152930113011
 6  9.82044010661066  0.86872298589859  0.40548254875488
 6 -9.92057186408641 -0.56873941604160 -0.27480156795680
 6  10.20989516581658 -1.57498731043104  2.09277191209121
 6 -9.89587255745575  2.25256699579958 -1.62787425232523
 6  8.52664890459046  0.44898485468547  0.41804001020102
 6 -8.63372633103310 -0.38807867316732 -0.24661098399840
 6  7.39737830603060  1.24751355165517  0.42890550315032
 6 -7.51824071797180 -1.26024449954996 -0.38387878477848
 6  7.53723677337734  2.68044068126813  0.72140457745775
 6 -7.88393558175818 -2.71757176827683 -0.60288756635664
 6  6.14551845334533  0.70374476347635  0.11769392839284
 6 -6.15879448934893 -0.88457928052805 -0.43835594729473
 6  4.87597824852485  1.38161049294929  0.08379803880388
 6 -4.95995560736074 -1.65139111691169 -0.50573195479548
 6  3.68760747234723  0.63484104930493  0.10262221152115
 6 -3.85862124732473 -1.05494612731273 -0.33635607330733
 6  2.37352065346535  1.13366407410741  0.09366385428543
 6 -2.59909890929093 -1.84475953465347 -0.35435871597160
 6  2.27817218881888  2.70769013551355  0.37690206350635
 6 -2.67630817621762 -3.39511303780378 -0.72838418851885
 6  1.20758230673067  0.45700704230423 -0.03456853985399
 6 -1.37344551765177 -1.19062763476348 -0.27726643174317
 6  1.09190356255626 -0.93946889408941 -0.27086460616062
 6 -0.03708316871687 -1.63994023382338 -0.27572132813281
 1  13.71735184098410  0.08731116061606  0.46133417631763
 1  14.30228724252425  0.04161578587859 -1.22264580298030
 1 -12.61386775177518  1.70251264146415  2.27954151895189
 1 -13.85690654825483  0.61718121042104  2.16627306540654
 1  14.30694131613161 -2.16539735743574 -0.40141358715872
 1  12.84687056875688 -1.93243714371437 -1.37709383268327
 1 -13.85493888208821  3.16192955295530  0.92753379097910
 1 -14.11961674547455  1.91727140134013 -0.44391841394139
 1  13.00783274707471 -1.95072757935794  1.78857073907391
 1  11.89345680018002 -2.93279697179718  0.67767462306231
 1 -11.56340613271327  3.55797351805180  0.13373989098910
 1 -12.42365857975798  3.31208471627163 -1.19566346754675
 1  11.19427279777978 -0.88477155445545 -2.25525365806581
 1  12.33328020872087  0.42897755905591 -3.01573814781478
 1  10.61524909620962  0.97055016671667 -2.21901262076208
 1  12.74629558365837  2.46142304420442  0.41009835033503
 1  11.53280168706871  2.77008691959196 -0.93018717571757
 1  13.17272912921292  2.42777304720472 -1.36804907600760
 1 -13.31279050975098 -0.65139914891489 -1.01105720642064
 1 -14.01171334393439 -1.37251305550555  0.43602082278228
 1 -12.48320592379238 -1.92568097299730 -0.20529641214121
 1 -10.73241573247325 -0.41425706510651  2.42262192129213
 1 -11.26022254765476 -1.99221022172217  1.83774779097910
 1 -12.56024008800880 -1.05545001290129  2.63180170827083
 1  10.00369377597760  1.94488934903490  0.32367827572757
 1 -10.29277372207221 -1.41196630663066 -0.42437881588159
 1  9.42027610511051 -0.90225782048205  2.60720447804780
 1  10.89093990809081 -1.88923512141214  3.05208663866387
 1  9.57569963716372 -2.38149799979998  1.40418003960396
 1 -9.47588462376238  1.35868818141814 -1.93989648654865
 1 -8.97519232413241  2.72441596359636 -1.10296034223422
 1 -10.31996226122612  2.80545555095510 -2.48795876917692
 1  8.37756334713471 -0.64877565776578  0.22429547914792
 1 -8.29670306550655  0.94704889898990  0.02331867936794
 1  8.12455568766877  2.80997603350335  1.58077746024602
 1  6.64019590029003  3.02478018221822  0.76193877357736
 1  8.12438667636764  3.20370903290329 -0.19434265716572
 1 -8.83447439963997 -2.79825688478848 -1.35354204780478
 1 -8.25077606590659 -3.19616280358036  0.41770791009101
 1 -6.80097465006501 -3.28638128942894 -0.80049893509351
 1  6.03450431493149 -0.30093532033203 -0.23586560326033
 1 -6.18764074867487  0.22027396589659 -0.16010628742874
 1  4.90069342664266  2.46495493959396  0.24286719351935
 1 -5.09876997729773 -2.69616313271327 -0.66841898299830
 1  3.69849011571157 -0.36742131203120 -0.16756711831183
 1 -3.84400203140314  0.03484981488149 -0.14480634733473
 1  2.49088978837884  3.11179157525753  1.39570822612261
 1  1.28040524132413  3.18387911971197  0.33301302880288
 1  2.86905396419642  3.28931940544054 -0.38758272787279
 1 -3.04130600020002 -3.21613996989699 -1.73589860066007
 1 -3.32343394919492 -4.08525051795180  0.03443809520952
 1 -1.73142411371137 -3.90645097949795 -0.87056928332833
 1  0.28500090089009  1.18672458765877  0.01096174137414
 1 -1.45774686328633 -0.15062707550755 -0.13185091119112
 1  2.00850939543954 -1.59156820652065 -0.21175073927393
 1  0.07805831663166 -2.68118316061606 -0.38289915081508

