%nproc=4
%Mem=2GB
# td=(NStates=1) B3LYP/6-31G(d,p) 

TD

0 1
 6  12.08607294989499  0.52752335283528 -0.76820293919392
 6 -12.12357467156716 -0.09653469506951  0.81071024992499
 6  13.48747816051605 -0.19162882288229 -0.65604160316032
 6 -13.01065756565657  1.10787517901790  1.29976069046905
 6  13.24594690889089 -1.76675234763476 -0.49990174897490
 6 -13.43062765886589  2.00447895999600  0.14019438653865
 6  11.07929972387239  0.02311657615762  0.29998753655366
 6 -11.02024969276928  0.47569745204520 -0.19473710851085
 6  12.51917635503550 -2.03170546454645  0.78188216451645
 6 -12.18075795839584  2.66223653185319 -0.40359869576958
 6  11.17967767576758 -1.13235529002900  0.95944251265127
 6 -11.00143493769377  1.75868148994899 -0.70240911461146
 6  11.53393398109811  0.40502162726273 -2.14205268386839
 6  12.49956336973697  2.06735079017902 -0.46835835483548
 6 -13.05855344614461 -1.13354047274727  0.01986581648165
 6 -11.52370123812381 -0.87679085268527  2.03653180138014
 6  9.86906496909691  0.95754186778678  0.31652365286529
 6 -9.98703851075107 -0.46315885798580 -0.50268435623562
 6  10.23081725802580 -1.78699851155116  1.94255689058906
 6 -9.94959792999300  2.14029576867687 -1.63344480938094
 6  8.62052829252925  0.41417137333733  0.24399260546055
 6 -8.71199415781578 -0.22643250855086 -0.27511383428343
 6  7.41137970617062  1.26475527582758  0.33462607520752
 6 -7.52617151105111 -1.23952242734273 -0.40790118701870
 6  7.59163221292129  2.71628426562656  0.52398483548355
 6 -7.88467565576558 -2.64095410651065 -0.89934721232123
 6  6.18685258675868  0.71672606160616  0.14343650265026
 6 -6.25911452135214 -0.88809963256326 -0.22865497719772
 6  4.94316496719672  1.35076740864086  0.23964362336234
 6 -5.13943355515552 -1.62897887568757 -0.36020740234023
 6  3.78884759635964  0.69740730593059  0.12770471977198
 6 -3.84441982718272 -1.14786541924192 -0.28633107080708
 6  2.42830613201320  1.26918762646265  0.32206669456946
 6 -2.54464346374637 -1.83988904760476 -0.32590587068707
 6  2.29762413401340  2.70562992949295  0.65463983728373
 6 -2.60107065246525 -3.26778030453045 -0.39755110521052
 6  1.22547409590959  0.50432177377738  0.25903082008201
 6 -1.36467464056406 -1.14023259525953 -0.18357706280628
 6  1.06413078527853 -0.87487243444344  0.00694317461746
 6  0.00475101470147 -1.66170241004100 -0.08254201020102
 1  13.80786089188919 -0.12209978047805  0.31656969986999
 1  14.17718473227323  0.19566119041904 -1.48772231063106
 1 -12.50519688468847  1.61324371457146  2.08711227602760
 1 -13.97729858745875  0.59089858215822  1.70808724682468
 1  14.31826244824483 -2.13597441514151 -0.54708815461546
 1  12.81276715841584 -2.08607250725073 -1.48445456875688
 1 -14.04223761196120  2.81489484948495  0.43196423402340
 1 -13.97348213201320  1.51061073527353 -0.80675469756976
 1  13.26977894169417 -2.06347885448545  1.72338422042204
 1  12.23534098859886 -3.05155884798480  0.66471332693269
 1 -11.86336612871287  3.41636935763576  0.28144466146615
 1 -12.43899011291129  3.16627013481348 -1.30872477367737
 1  11.59227259775978 -0.64211728902890 -2.37843597629763
 1  12.05832271297130  1.05144980628063 -2.90396697069707
 1  10.47611518281828  0.73015612731273 -2.22398311781178
 1  12.53723467756776  2.12891979387939  0.48796613711371
 1  11.37162556945695  2.64704461536154 -0.83033719071907
 1  13.25860771707171  2.57936820672067 -1.17187945904590
 1 -13.39676890759076 -0.71910591959196 -0.84448054875488
 1 -13.79479165176518 -1.49923572777278  0.77772499319932
 1 -12.37747535073507 -2.05290369526953 -0.41385726822682
 1 -11.15401789268927 -0.10407604700470  2.80269992909291
 1 -10.94844136953695 -1.62584358505851  1.73526754295429
 1 -12.35286935093509 -1.24833930183018  2.61519004710471
 1  10.22527593419342  2.12014687478748  0.36563247114712
 1 -10.28162260696070 -1.55205031503150 -0.62701907990799
 1  9.58524260176018 -0.92585017971797  2.17166092369237
 1  10.96818763286329 -1.99141533943394  2.88170960096010
 1  9.79518158535854 -2.70141999199920  1.61931155275528
 1 -9.49003603890389  1.22406471907191 -2.10961345824582
 1 -9.12021682658266  2.73823734573457 -1.06750679687969
 1 -10.28220848584859  2.81344635003500 -2.31387136043604
 1  8.38285387618762 -0.64870565076508 -0.04887183758376
 1 -8.37661105630563  0.81835602970297  0.05281162866287
 1  8.00238347044704  2.89412444834483  1.58310769326933
 1  6.72916479717972  3.25091279547955  0.38282086178618
 1  8.36423066076608  3.38790745274527 -0.07230045294529
 1 -8.37911886408641 -2.74286134523452 -1.79693638723872
 1 -8.43574456275628 -3.16199938723872 -0.22845670637064
 1 -6.97294184678468 -3.22349500080008 -1.01800068526853
 1  6.14210507500750 -0.32911813861386  0.10673865716572
 1 -6.17700968556856  0.19476141464146 -0.12521279807981
 1  5.02984634193419  2.31818026212621  0.54767767456746
 1 -5.12080218051805 -2.72387590399040 -0.54636677777778
 1  3.97355762246225 -0.48115268516852 -0.09934029562956
 1 -3.60825845704570 -0.06116978707871  0.02049018231823
 1  2.74263496289629  2.76632702880288  1.70181883718372
 1  1.26660386118612  2.97158789058906  0.62307203470347
 1  2.75626268506851  3.49047952145215 -0.09107307690769
 1 -3.15405727532753 -3.77227558345835 -1.19902491329133
 1 -3.03534514031403 -3.61862385528553  0.48274292569257
 1 -1.69642061336134 -3.90172050645065 -0.68474070047005
 1  0.32054445524552  1.14505042024202  0.14286493169317
 1 -1.40318140674067 -0.04357637043704 -0.17580530663066
 1  1.93695223972397 -1.31832088178818  0.13942437823782
 1  0.20906141694169 -2.70113515581558 -0.35107596849685

