%nproc=4
%Mem=2GB
# td=(NStates=1) B3LYP/6-31G(d,p) 

TD

0 1
 6  12.06885122772277  0.56609721022102 -0.69773589248925
 6 -12.11268358245825 -0.02692773437344  0.68408758765877
 6  13.38289770247025 -0.24478413841384 -0.59769576857686
 6 -12.96233273317332  1.05193958545855  1.21613232763276
 6  13.09549186338634 -1.79238491089109 -0.64129588838884
 6 -13.28629322542254  2.07410592269227  0.08633900100010
 6  10.98733052695269 -0.09154488998900  0.17215475327533
 6 -10.94245191299130  0.43846372867287 -0.22066970177018
 6  12.28710314771477 -2.16329862386239  0.57478145444544
 6 -11.96531641424142  2.75334564276428 -0.52394072997300
 6  11.14325403340334 -1.26656871137114  0.79309587798780
 6 -10.88691348554855  1.69673529532953 -0.72898177187719
 6  11.61797238493850  0.72831395649565 -2.19185766436644
 6  12.51421483488349  1.96304035913591 -0.14273579257926
 6 -12.92499008980898 -1.07092421112111 -0.05739190929093
 6 -11.59063793179318 -0.67874104770477  2.07986613481348
 6  9.84607266986699  0.79319543314331  0.33654565506551
 6 -9.87043685058506 -0.57025956805681 -0.31821590939094
 6  10.08111228752875 -1.79681949364936  1.78064069896990
 6 -9.81830480068007  2.14080581968197 -1.73873533843384
 6  8.52404864456446  0.47185714191419  0.19219742594259
 6 -8.54719767816782 -0.31989185448545 -0.26807313021302
 6  7.35147371557156  1.33832263256326  0.30515312791279
 6 -7.50738963286329 -1.36692516761676 -0.29312970987099
 6  7.58291134083408  2.83127576477648  0.50789322632263
 6 -7.82681987018702 -2.83452346344634 -0.53271054865487
 6  6.07479138063806  0.79720410941094  0.29207136613661
 6 -6.19259786968697 -0.90934175677568 -0.21207331903190
 6  4.82771342204220  1.40683301520152  0.43012267126713
 6 -4.99941955375538 -1.65650162796280 -0.22444382598260
 6  3.64412312391239  0.79946751195120  0.23654560386039
 6 -3.71745713091309 -1.18772940564056 -0.38271070877088
 6  2.30652395379538  1.30230093779378  0.28764325222522
 6 -2.48952795219522 -1.92307736643664 -0.28900218031803
 6  2.16204057565757  2.79259862636264  0.58259263256326
 6 -2.48052859825983 -3.38470199669967 -0.54317566766677
 6  1.13556510501050  0.50651199279928  0.25308022502250
 6 -1.40884905800580 -1.11460003200320 -0.13612231733173
 6  1.06827119931993 -0.86070101730173 -0.03960147984798
 6 -0.10040950135014 -1.64662090189019 -0.13798755475548
 1  13.88448855465547 -0.09207677817782  0.40616865976598
 1  14.06588360216022  0.20896252055205 -1.47124066246625
 1 -12.46627299229923  1.54154654485449  2.11767533233323
 1 -13.95048590619062  0.64691418371837  1.66267270537054
 1  13.85835645764577 -2.42281309900990 -0.53363680948095
 1  12.39799568126813 -1.90112401240124 -1.59727585088509
 1 -13.83799718791879  2.93288664866487  0.35203624122412
 1 -13.66015079887989  1.56325599979998 -0.82290631273127
 1  12.72408437223722 -2.16403891049105  1.49964184618462
 1  11.73256071057106 -3.08834252635264  0.39023587918792
 1 -11.58897868996900  3.52579029972997  0.34614113111311
 1 -12.42497871177118  3.19417292509251 -1.47848174937494
 1  11.25553892439244 -0.08176125342534 -2.68003613631363
 1  12.57537441814181  0.92110677197720 -2.75202177617762
 1  10.78970654195419  1.59228233993399 -2.13288400790079
 1  12.86943789788979  1.97243414531453  1.06565390589059
 1  11.78025643254325  2.73132304320432 -0.18341249824982
 1  13.33584544084408  2.33367363726373 -0.82750502160216
 1 -13.44664389508951 -0.65559956895690 -0.90970707140714
 1 -13.61091326392639 -1.65342114631463  0.77502472317232
 1 -12.35141274447445 -1.91006941184118 -0.30662654515452
 1 -10.81476396729673  0.00921528212821  2.64449410851085
 1 -11.07855438083808 -1.53319432013201  1.84259827602760
 1 -12.44413847784779 -0.87776224412441  2.83346187428743
 1  10.03325673227323  1.77390225032503  0.46747265516552
 1 -10.01312575727573 -1.66609171917192 -0.38903528152815
 1  9.47328140564056 -0.96346394109411  2.10486424402440
 1  10.69260007410741 -2.09054525242524  2.47139856985699
 1  9.37890995819582 -2.41032088208821  1.32757237883788
 1 -9.36241327662766  1.26191850445045 -2.33757625452545
 1 -8.89771457635764  2.67542106410641 -1.35455550175018
 1 -10.38914917991799  2.87792279767977 -2.32093206650665
 1  8.18339393019302 -0.65897667786779  0.07994104370437
 1 -8.43499689488949  0.62464665876588 -0.17441109360936
 1  8.47489072117212  3.01361639753975  1.35293467596760
 1  6.69090097079708  3.29581728592859  0.95084766446645
 1  7.92591682938294  3.19066772877288 -0.53540676357636
 1 -8.20105105730573 -3.00815787488749 -1.61672836643664
 1 -8.70798178647865 -2.93150633793379  0.26225236453645
 1 -6.99227377997800 -3.44732738403840 -0.26859574477448
 1  6.05494635913591 -0.17332255905591  0.04730271357136
 1 -6.01099308390839  0.13894583308331 -0.17118739553955
 1  4.84367772507251  2.41240968506851  0.43475638243824
 1 -5.11933203350335 -2.70860437683768 -0.09408154925493
 1  3.70363062976298 -0.10644521442144  0.05161479987999
 1 -3.68920655185519 -0.00387405750575 -0.29476134283428
 1  2.64740543994399  3.13599399549955  1.69998865416542
 1  1.24766196699670  3.21446217801780  0.66202593009301
 1  2.59192625142514  3.42911338483848 -0.22285625522552
 1 -2.92921479107911 -3.76954531043104 -1.42098710951095
 1 -3.19640124592459 -3.80631262416242  0.25061971337134
 1 -1.51687265856586 -4.17748808320832 -0.31597382378238
 1  0.33963636443644  1.10817673287329  0.41632227742774
 1 -1.74048513711371 -0.02476448924893 -0.01717944404440
 1  2.22577112161216 -1.40682973267327 -0.10974053825383
 1  0.10935144594459 -2.77508255055506 -0.19972083298330

