%nproc=4
%Mem=2GB
# td=(NStates=1) B3LYP/6-31G(d,p) 

TD

0 1
 6  12.01422576517652  0.50432103260326 -0.89522564146415
 6 -12.05390770487049  0.03847880628063  0.94197337623762
 6  13.38306771947195 -0.37517717771777 -0.83504950395039
 6 -12.92689918981898  1.23636802830283  1.29930064446445
 6  13.11687400160016 -1.87321299369937 -0.64331609040904
 6 -13.46114071017102  1.98993750585059  0.06183655075508
 6  11.00423221712171 -0.04731046654665  0.24567210501050
 6 -10.94881254905490  0.40470035233523 -0.18562619741974
 6  12.26616105350535 -2.14179647364736  0.63794777107711
 6 -12.24912479507951  2.51500180838084 -0.80366870277028
 6  11.07986769476948 -1.28343039753975  0.98512508090809
 6 -11.13970876507651  1.55828144994499 -0.91504037773777
 6  11.49466005370537  0.45094621972197 -2.20388886748675
 6  12.45453886728673  1.90319437453745 -0.61600311931193
 6 -12.96156374717472 -1.19117623632363  0.46915074497450
 6 -11.32823169116912 -0.43727690129013  2.26238438663866
 6  9.87446550915092  0.88638475207521  0.46260826132613
 6 -9.84386419331933 -0.54850739283928 -0.26914100190019
 6  10.22060623692369 -1.65858567026703  1.98690132503250
 6 -10.00159312951295  1.95339707880788 -1.82972443734373
 6  8.56478271797180  0.43633358955896  0.39865807200720
 6 -8.50329328772877 -0.38752861816182 -0.23740006290629
 6  7.44131269946995  1.32699149944994  0.53768638123812
 6 -7.42789168306831 -1.34413288838884 -0.53401379827983
 6  7.61966501620162  2.84793743094309  0.95610804780478
 6 -7.91495868406841 -2.75739575067507 -0.68587586518652
 6  6.16291019251925  0.78684307330733  0.49666182518252
 6 -6.17948655855586 -0.93560438303830 -0.42444455615562
 6  4.86453710441044  1.41948428032803  0.55049470847085
 6 -4.99047865966597 -1.72315829362936 -0.42389377097710
 6  3.66452516411641  0.82665023022302  0.32366431573157
 6 -3.77853323852385 -1.20384101680168 -0.38762119981998
 6  2.36719002040204  1.47830853855386  0.47992248014801
 6 -2.50009900930093 -1.84217927662766 -0.46694997509751
 6  2.15200957255726  2.90780014651465  0.91396576987699
 6 -2.44112465786579 -3.36424995149515 -0.75757710781078
 6  1.22356390489049  0.69481082268227  0.22239715671567
 6 -1.36862503560356 -1.03163173517352 -0.28702740784078
 6  1.16642101430143 -0.74654960216022 -0.29791731143114
 6 -0.02878233863386 -1.46422266206621 -0.46861061706171
 1  13.98183828962896 -0.00421799229923  0.06064410731073
 1  13.99225623942394 -0.18672704840484 -1.72946648504850
 1 -12.47376374137414  2.02558494869487  1.83126669146915
 1 -13.71732258985899  1.00460995329533  1.87744418251825
 1  14.22523314531453 -2.60843166086609 -0.71508495429543
 1  12.52726860856086 -2.37751165116512 -1.50327645094509
 1 -14.05951934013401  2.79150251025103  0.59800083768377
 1 -14.14652943674368  1.53060273447345 -0.67308133023302
 1  12.96554851865186 -2.01716422302230  1.57474935693569
 1  11.95358281278128 -3.28708240034003  0.52141899749975
 1 -11.96927671977198  3.48750647134713 -0.59047253025303
 1 -12.59023523742374  2.70700420822082 -1.85020892209221
 1  11.09280265076508 -0.62305538283828 -2.47348548124812
 1  12.09822670337034  0.82794745604560 -2.97004357835784
 1  10.65125269656966  1.00139325102510 -2.39343006250625
 1  12.75355630973097  2.26119302120212  0.28894623512351
 1  11.77886629352935  2.65504541544154 -0.84825898289829
 1  13.39573142944294  2.23957422732273 -1.22818508960896
 1 -13.68622785348535 -1.17201121012101 -0.50273637433743
 1 -13.80028220082008 -1.31495729992999  1.19206642734273
 1 -12.32310991419142 -2.11220962586259  0.27375149264926
 1 -10.64251674257426  0.49384374497450  2.56644630373037
 1 -10.51683820922092 -1.16581758245825  1.97177119331933
 1 -12.10001406540654 -0.61007547544754  2.89875840394039
 1  10.12174558115812  2.04546940704070  0.48182409030903
 1 -10.14866931163116 -1.52968807880788 -0.45419179717972
 1  9.44872895039504 -1.06816441114111  2.45125888348835
 1  10.53474428852885 -2.18699489738974  2.81739316931693
 1  9.39209127632763 -2.45139498949895  1.77306692829283
 1 -9.40717775307531  1.10682299489949 -2.10368286518652
 1 -9.50197500240024  2.79227274927493 -1.39055910211021
 1 -10.69146941194120  2.32976798219822 -2.50765073837384
 1  8.42217780858086 -0.53025380558056  0.06394944454445
 1 -8.10364375957596  0.38699289338934  0.28806515401540
 1  8.53712694479448  2.86967200310031  1.63634301680168
 1  6.68544042474247  3.43019072327233  1.25566814651465
 1  7.79555379307931  3.57792645464546 -0.13577680058006
 1 -8.63750470267027 -2.95612267136714 -1.37252394599460
 1 -8.32649363766377 -3.22902608990899  0.33891003030303
 1 -6.81554610721072 -3.13071572287229 -0.68253713891389
 1  6.02295315981598 -0.22294752155216  0.19719770307031
 1 -6.01195317991799  0.08511044954495 -0.22295257205721
 1  4.87995135243524  2.47072551665167  0.68387129392939
 1 -5.05583568386839 -2.94462797919792 -0.44704684578458
 1  3.77397766446645 -0.20567513741374 -0.28598896049605
 1 -3.59467709890989 -0.03085675577558 -0.50564243094309
 1  2.84325502490249  3.06122651875188  1.83142179747975
 1  1.11734893569357  2.82476320812081  1.42397212471247
 1  2.46416347514751  3.47373784728473 -0.15279924952495
 1 -2.95225709530953 -3.26874523042304 -1.88980399119912
 1 -3.27871947774777 -4.05988798169817 -0.36966231483148
 1 -1.48247921922192 -3.98216855125513 -0.66756898329833
 1  0.29115151595159  1.17737365256526  0.20753139833983
 1 -1.40835192379238 -0.06770878367837  0.25880815471547
 1  2.16855540004000 -1.34049309900990 -0.42824238843884
 1  0.23591410221022 -2.52167721002100 -1.02347320822082

