%nproc=4
%Mem=2GB
# td=(NStates=1) B3LYP/6-31G(d,p) 

TD

0 1
 6  12.05086942954295  0.54536513701370 -0.69224534343434
 6 -12.07980029412941 -0.06021106270627  0.88201738063806
 6  13.36775618831883 -0.36864652465247 -0.57558355735574
 6 -13.01202770267027  1.26326071757176  1.30482119651965
 6  12.96927924212421 -1.92734840724072 -0.55337709650965
 6 -13.28364296039604  2.10562907500750  0.04272463956396
 6  11.01656345024502 -0.03449918541854  0.26321385918592
 6 -10.99007667546755  0.38581846414641 -0.06877451225123
 6  12.10140457785779 -2.22600489448945  0.65060903720372
 6 -11.95927581018102  2.69239954815482 -0.52615095099510
 6  11.07971767976798 -1.23256531103110  0.87461402980298
 6 -10.88074286848685  1.58527414921492 -0.71482035573557
 6  11.57553814151415  0.57022814791479 -2.07864634323432
 6  12.51111452485249  1.92304635973597 -0.32775429442944
 6 -12.91358894969497 -1.17874499319932  0.27102093199320
 6 -11.52449131713171 -0.53914708830883  2.29306745494549
 6  9.87118518111811  0.82634874847485  0.45378737923792
 6 -9.91444125102510 -0.66222876497650 -0.11660574837484
 6  10.13131730803080 -1.58596840854085  1.96049868476848
 6 -9.83715668586859  2.04591633073307 -1.64074553945395
 6  8.60543678337834  0.56079603580358  0.44211241744174
 6 -8.56417937633763 -0.37645751105111 -0.29034535743574
 6  7.39133770197020  1.37270607090709  0.56506911951195
 6 -7.45036393029303 -1.45496397149715 -0.34771516841684
 6  7.50479352905291  2.89746238343834  0.90215265226523
 6 -8.02154934313431 -2.86563657475748 -0.50484776237624
 6  6.12394629612961  0.82017640664066  0.40632279127913
 6 -6.16150476037604 -1.00877169976998 -0.36755886758676
 6  4.91642229292929  1.39814214611461  0.37201686068607
 6 -5.01613122492249 -1.76762274007401 -0.36489787138714
 6  3.64374308590859  0.75625319051905  0.03817576687669
 6 -3.73359874507451 -1.15475610831083 -0.41559399709971
 6  2.29501280268027  1.38355906360636  0.04250873877388
 6 -2.50720972037204 -1.82077713641364 -0.54272755285529
 6  2.18860323192319  2.84934430093009  0.43377775107511
 6 -2.41940248564857 -3.24704823132313 -0.83895524562456
 6  1.31441298979898  0.64232557415742 -0.15335041804180
 6 -1.31086926002600 -1.08485705770577 -0.30670937603760
 6  1.09576394859486 -0.81815676287629 -0.34187170687069
 6 -0.04607406780678 -1.56359259905991 -0.45204896089609
 1  13.82517262306231 -0.16306387688769  0.51477952085208
 1  14.24966197999800 -0.14974335003500 -1.30287382578258
 1 -12.28965533053305  1.70897328752875  2.05440900570057
 1 -14.05911676927693  0.97550704300430  1.76772321042104
 1  13.90378100010001 -2.37715853355336 -0.78340178597860
 1  12.37044292599260 -1.96010991099110 -1.49138526182618
 1 -14.05342873107311  2.86788014801480  0.53761479907991
 1 -13.78662344614462  1.48501817601760 -0.65901992409241
 1  12.82253421722172 -2.04342684928493  1.44898678067807
 1  11.67838529302930 -3.28831252335234  0.75006186178618
 1 -11.63740353245325  3.48308602930293  0.16492300930093
 1 -12.05133134703470  3.25842935073507 -1.54854875607561
 1  11.26470984148415 -0.49335241254125 -2.45361349404940
 1  12.26784366506651  0.93100776207621 -2.88286486048605
 1  10.70124769606961  1.09882299399940 -2.05494621412141
 1  13.01939289338934  2.24496139803980  0.75167250775078
 1  11.75816422332233  2.70717062796280 -0.52331648864887
 1  13.24392624892489  2.21474174407441 -0.91602387348735
 1 -13.46037526822682 -0.93769777877788 -0.60568666936694
 1 -13.76159833243324 -1.56649245344534  0.84234145484548
 1 -12.33203080628063 -2.00149855475548 -0.03458934143414
 1 -10.79521201210121  0.10108446904691  2.89552921202120
 1 -11.11076760216022 -1.55513651435144  2.13127714391439
 1 -12.39282334633463 -0.65557002490249  2.83066159425943
 1  10.38667207380738  1.90507536763676  0.42858876677668
 1 -10.30717516221622 -1.75642075207521  0.15055867786779
 1  9.26087016451645 -1.01875947064706  2.35572933053305
 1  10.73007382148215 -2.03165936383638  2.86530796079608
 1  9.69825189238924 -2.55029487948795  1.53142276387639
 1 -9.33122015731573  1.20765307790779 -2.29135163206321
 1 -9.09744454935493  2.65190871287129 -1.14893493969397
 1 -10.32816308130813  2.77990299569957 -2.43885385868587
 1  8.22624821562156 -0.56550733093309  0.46256930653065
 1 -8.17698109330933  0.68170236433643 -0.23462711521152
 1  8.03907713981398  3.05670070597060  1.59895927842784
 1  6.69645152585259  3.59863756795680  0.92065464516452
 1  8.04931916961696  3.29037769976998  0.26079285638564
 1 -8.64828578077808 -2.97062412151215 -1.55861255485549
 1 -8.76513750205021 -2.94217740504050  0.39603574287429
 1 -7.26994154675468 -3.72418506980698 -0.37933681888189
 1  5.95636650115012 -0.21991721852185 -0.06909892659266
 1 -5.87214919951995  0.07946988548855 -0.27244752155216
 1  4.86447980528053  2.38440688478848  0.39468237503750
 1 -5.01601170147015 -2.76824034043404 -0.68486062716272
 1  3.78480874757476 -0.29945451535154 -0.21692205380538
 1 -3.61973960516052 -0.07219088918892 -0.11949381608161
 1  2.52527322672267  2.90321071717172  1.31239989528953
 1  1.07688488928893  3.09278000980098  0.47658738623862
 1  2.52883994279428  3.39525999949995 -0.31697566716672
 1 -2.75698756835684 -3.45259361526153 -2.02906791759176
 1 -3.13918552435244 -3.93348534143414 -0.30740608920892
 1 -1.39735070637064 -3.68676901130113 -0.60448267466747
 1  0.41441384218422  1.15443135833583 -0.16500585538554
 1 -1.41101218981898 -0.08195020782078 -0.30495822192219
 1  2.02297084158416 -1.25176422612261 -0.41125068926893
 1  0.13524403520352 -2.47462250455045 -0.76891775267527

