%nproc=4
%Mem=2GB
# td=(NStates=1) B3LYP/6-31G(d,p) 

TD

0 1
 6  12.12892723532353  0.37791839233923 -0.72984910381038
 6 -12.10992330643064 -0.05376041764176  0.91670084898490
 6  13.42322173487349 -0.44504416441644 -0.59317531653165
 6 -12.98588508840884  1.11065545704570  1.31841255565557
 6  12.99822213641364 -1.86454212661266 -0.61078283708371
 6 -13.40387498359836  1.95455396749675  0.18984935203520
 6  10.99423121702170 -0.06023175867587  0.29445698349835
 6 -10.90912858065806  0.41464134643464 -0.08967660246025
 6  12.08436287368737 -2.25217751175118  0.60156413271327
 6 -12.22603248584858  2.41640194839484 -0.75523385928593
 6  11.05347505550555 -1.26288834333433  0.91726829522952
 6 -11.10319511371137  1.44946056785679 -0.83941281498150
 6  11.72118270597060  0.41876300140014 -2.25410388898890
 6  12.41665507890789  1.85854991009101 -0.29235075407541
 6 -13.04233182398240 -1.24621173987399  0.32003583348335
 6 -11.48367723572357 -0.69722289588959  2.11635978417842
 6  9.84728279087909  0.85125123872387  0.50184218471847
 6 -9.91497130403040 -0.60189273137314 -0.31104519231923
 6  10.05110928722872 -1.67899771147115  1.92217485238524
 6 -9.98475144534454  1.97185892499250 -1.86066753165317
 6  8.56896313601360  0.51560151635163  0.10689889608961
 6 -8.59307226562656 -0.28351821712171 -0.15390171307131
 6  7.43451201940194  1.39925872617262  0.41727434003400
 6 -7.51098999289929 -1.23477195229523 -0.32487288418842
 6  7.60539358905891  2.86809944714471  0.94979741674167
 6 -7.83598078627863 -2.61520153125313 -0.53619089668967
 6  6.17931183268327  0.92812720172017  0.07830998999900
 6 -6.20641925182518 -0.84524534713471 -0.25237734943494
 6  4.86760741144114  1.46855918781878  0.37000665966597
 6 -4.97282689448945 -1.60842682048205 -0.45931731333133
 6  3.76662537413741  0.78127569276928  0.13789573887389
 6 -3.69814519971997 -1.02127275997600 -0.35023746144614
 6  2.43137643904390  1.32486319401940  0.34398888678868
 6 -2.40247924732473 -1.68365342404240 -0.43199647974798
 6  2.16127049864987  2.86951631813181  0.65939031233123
 6 -2.41914245964596 -3.22472599909991 -0.74947629772977
 6  1.24028557705771  0.70492183378338  0.06129104610461
 6 -1.26002417551755 -0.98322689468947 -0.18252695779578
 6  1.16762113431343 -0.78074302150215 -0.22982050175017
 6  0.00293083268327 -1.48913515331533 -0.33228698469847
 1  13.94900500630063 -0.35077264776478  0.41092913581358
 1  14.00990800460046 -0.19401777747775 -1.54906844524452
 1 -12.59019538453845  1.72603499369937  2.19810337513751
 1 -13.84190504810481  0.61200069236924  1.94013045114511
 1  13.81496211821182 -2.67716853455346 -0.77951139693969
 1  12.44150003170317 -1.99548344834483 -1.63987011031103
 1 -13.91828521672167  2.80651401140114  0.80263130073007
 1 -14.31101588538854  1.57059673387339 -0.34583860596060
 1  12.86775873967397 -2.37525003160316  1.55105698769877
 1  11.75465291979198 -3.24003769586959  0.70030688628863
 1 -11.80575036713671  3.42600032073207 -0.49579306230623
 1 -12.63305951985198  2.53115662346235 -1.97717161836184
 1  11.41789516001600 -0.67513059035904 -2.40680881358136
 1  12.58195507620762  0.90981564286429 -2.73556013001300
 1  10.67855542684268  1.09309242094209 -2.15238595809581
 1  12.97057801190119  1.97643454535454  0.63096043654365
 1  11.59408781568157  2.61848175907591 -0.39892404940494
 1  13.20241209750975  2.25445571547155 -0.94828709980998
 1 -13.52035126582658 -0.97367137613761 -0.63067916861686
 1 -13.86305847844784 -1.53379918411841  0.90695791649165
 1 -12.35144274747475 -2.23618202310231  0.26712082958296
 1 -10.93330582148215 -0.10371601100110  2.69446910601060
 1 -10.91352787818782 -1.48869987068707  1.93933794999500
 1 -12.32665672967297 -1.00515498339834  2.86041456955696
 1  10.27427083368337  1.85508036813681  0.93953986188619
 1 -10.07442188688869 -1.68556366636664 -0.26719309730973
 1  9.36816089358936 -0.95710330503050  2.04145790339034
 1  10.40892170627063 -1.88871506940694  3.11056248624862
 1  9.64909697689769 -2.72519236923692  1.76782640424042
 1 -9.46914394969497  1.05411772437244 -2.09868236513651
 1 -9.12145695059506  2.73512703470347 -1.57662770897090
 1 -10.46260652565257  2.37943294869487 -2.74034400770077
 1  8.39771536233623 -0.34063484368437 -0.26324327472747
 1 -8.21234462966297  0.76259045314531 -0.26041969446945
 1  7.99268250035003  2.79348438433843  1.91667104960496
 1  6.70879275997600  3.62672037623762  0.91397397709771
 1  8.49940417811781  3.36508517051705  0.23127990509051
 1 -8.62537348954896 -2.81270832993299 -1.36467316091609
 1 -8.10308129642964 -3.12118530583058  0.48155429472947
 1 -6.77815236783678 -3.23032568386839 -0.91282016721672
 1  6.28931979647965 -0.16290151695170 -0.17999001570157
 1 -5.98914089868987  0.21303324182418 -0.18502877967797
 1  4.66180953825383  2.55575401950195  0.63805671247125
 1 -4.86916701700170 -2.51614513091309 -0.81655379647965
 1  4.15231549824983 -0.16638120802080 -0.32145250685069
 1 -3.54990262146215  0.00218654855486 -0.33943581028103
 1  2.42612331173117  3.04097449354936  1.70748940424042
 1  1.18550575137514  3.03414414621462  0.57007673517352
 1  2.89918697749775  3.74993546704670  0.26923295369537
 1 -3.04421629122912 -3.25456381228123 -1.52899791059106
 1 -2.84932653845385 -3.67105909880988  0.04274892629263
 1 -1.43321429272927 -3.61031136553655 -1.23969619601960
 1  0.34224662546255  1.13042895809581  0.23749439463946
 1 -1.33723481208121  0.07966595379538  0.00998327222722
 1  2.03683222772277 -1.46253530323032 -0.17657722192219
 1 -0.04489397859786 -2.53341838413841 -0.37909877077708

