%nproc=4
%Mem=2GB
# td=(NStates=1) B3LYP/6-31G(d,p) 

TD

0 1
 6  12.17756209880988  0.41144174467447 -0.63504962386239
 6 -12.08139045314531 -0.11138618021802  0.91586076497650
 6  13.44871428412841 -0.41619127912791 -0.53658965796580
 6 -13.14233073297330  0.97881227272727  1.35037575197520
 6  13.13598591279128 -1.93768944134413 -0.47759951875188
 6 -13.51909650575057  1.86857536963696  0.09233960106011
 6  11.05430722462246 -0.01374711021102  0.35356289408941
 6 -11.02088975677568  0.42433231553155 -0.03447108190819
 6  12.32088652605261 -2.30036233023302  0.84791876817682
 6 -12.22600248284828  2.50312062026203 -0.41373970987099
 6  11.16331603960396 -1.21528358285829  0.99628619701970
 6 -11.09912470667067  1.47899352115212 -0.74143301700170
 6  11.70887147484749  0.49070019511951 -2.18286676527653
 6  12.58406181958196  1.86562061716172 -0.20480199919992
 6 -12.94430202100210 -1.24846196489649  0.16005983588359
 6 -11.51376024402440 -0.68650182378238  2.19995814401440
 6  9.93925198779878  0.75514162776278  0.34378637913791
 6 -9.89244905180518 -0.57958050015002 -0.19191327912791
 6  10.15918009430943 -1.65551536323632  2.10137277217722
 6 -10.13005597579758  1.98420015911591 -1.66363782868287
 6  8.56769300900090  0.38875883208321  0.34184239043904
 6 -8.56085904430443 -0.23476334163416 -0.20815713861386
 6  7.44483305150515  1.34310311061106  0.30543315591559
 6 -7.38763765766577 -1.26253472857286 -0.31365176207621
 6  7.66435948564857  2.82926556375638  0.42801523852385
 6 -7.78392558075808 -2.69185919701970 -0.56171344894489
 6  6.18848274977498  0.81690607960796  0.10482264126413
 6 -6.20551916181618 -0.70486130873087 -0.35372748444844
 6  4.92249289999000  1.59807213911391  0.18382804180418
 6 -5.01552116391639 -1.59396537433743 -0.32067344894489
 6  3.73639235083508  0.82495006020602  0.18641059035904
 6 -3.77056244144414 -1.03826445914591 -0.27791022872287
 6  2.38821212261226  1.37539824752475  0.31696618451845
 6 -2.57854685408541 -1.66526158485849 -0.59602288238824
 6  2.22493686528653  2.89422878937894  0.41728610191019
 6 -2.59780032543254 -3.11984551105111 -1.06359770987099
 6  1.22118366686669  0.63578492009201  0.10544546154615
 6 -1.30628880198020 -1.02913148514851 -0.34530323542354
 6  1.08476284848485 -0.69972491969197 -0.20112763246325
 6 -0.02957241764176 -1.55322156195620 -0.44887864386439
 1  13.93626373217322 -0.18735630613061  0.46796483938394
 1  14.11875888968897 -0.15218359405941 -1.25073861226123
 1 -12.78503486848685  1.61226361656166  2.11320488528853
 1 -14.08009886748675  0.43590308260826  1.86444288238824
 1  14.06664728672867 -2.58026884458446 -0.49510295609561
 1  12.26291217291729 -2.41924582458246 -1.26181230453045
 1 -14.42297568576858  2.48714207420742  0.48702974057406
 1 -14.08441322512251  1.17520719491949 -0.60697471957196
 1  13.02292425622562 -2.16850935753575  1.60645252725273
 1  11.91305876037604 -3.29990368246825  0.65257211281128
 1 -11.99245903800380  3.28428614931493  0.29227574457446
 1 -12.46396261016102  3.22939644744474 -1.43461736293629
 1  11.77962133263326 -0.49164224152415 -2.56555468816882
 1  12.46324320502050  1.07947260856086 -2.63169974397440
 1  10.74393196449645  0.98416152785279 -2.28280900040004
 1  12.91185213931393  1.94280118201820  0.86106344684468
 1  11.85884429132913  2.56662657355736 -0.43185734273427
 1  13.39123097939794  2.31221149104910 -1.11656392749275
 1 -13.65695492619262 -0.77345135413541 -0.65656175687569
 1 -13.57479965256526 -1.63257906210621  0.84997221792179
 1 -12.30589819301930 -2.10541894679468 -0.25882176467647
 1 -10.98542103300330 -0.00290592999300  2.94271393049305
 1 -10.67432395779578 -1.33849485018502  1.93177719391939
 1 -12.28707277127713 -1.04951941984198  2.66490501860186
 1  10.16925033163316  1.82815767586759  0.29808571647165
 1 -10.47606205090509 -1.66912202220222 -0.11193757175718
 1  9.47008108560856 -0.95030262496250  2.54765852345235
 1  10.60958177227723 -2.01816801470147  2.95701713171317
 1  9.49417148434844 -2.38788863886389  1.59029865146515
 1 -9.37249428472847  1.26516882948295 -2.33012550945095
 1 -9.47452225712571  2.83775729772977 -1.37017706390639
 1 -10.66967723272327  2.51670667606761 -2.40442041534153
 1  8.26266185698570 -0.69607038723872  0.25109815941594
 1 -8.32185558075808  0.75450964506451 -0.28266191869187
 1  7.77199043114311  2.97949298519852  1.59248863136314
 1  6.58204008470847  3.32596030023002  0.50865344504450
 1  8.75059929762976  3.10175883788379 -0.16928015091509
 1 -8.45754670687069 -2.78228528762876 -1.37773446704671
 1 -8.37523851215121 -2.86526971427143  0.43316945624562
 1 -6.85790034263426 -3.42168481978198 -0.61512039723972
 1  6.16048691319132 -0.22892811961196  0.08364634793479
 1 -6.01889387398740  0.32823476197620 -0.18688896569657
 1  4.99192254955496  2.67686613071307  0.28944185098510
 1 -4.99454955525553 -2.50760427682768 -0.66359850095009
 1  3.86378664536454 -0.17292186208621  0.04462410081008
 1 -3.67669530073007  0.12738906880688 -0.12157402410241
 1  2.73864456385639  3.25577597369737  1.29819847514751
 1  1.10415761656166  2.96910764256426  0.69573930143014
 1  2.70845790459046  3.54218469196920 -0.39125309490949
 1 -3.42118398799880 -3.21498985488549 -1.96792180298030
 1 -3.07469907570757 -3.74815680858086 -0.35491083968397
 1 -1.71194216551655 -3.50347068146815 -1.31416364276428
 1  0.30879328012801  1.05684159935994 -0.09094844964496
 1 -1.67087817641764 -0.04508652145215 -0.08190591669167
 1  2.03735227972797 -1.23394244394439 -0.08942850705071
 1  0.03109362016202 -2.60635567786779 -0.73602446334634

