%nproc=4
%Mem=2GB
# td=(NStates=1) B3LYP/6-31G(d,p) 

TD

0 1
 6  12.10219456205621  0.47911851235124 -0.71982810171017
 6 -12.00512282638264 -0.05582062366237  0.94989416831683
 6  13.28639805250525 -0.42565222522252 -0.63739973897390
 6 -12.89141564146415  1.23340773227323  1.47458817321732
 6  12.93286560076008 -1.91891756415642 -0.60206196499650
 6 -13.24406900300030  2.03536204830483  0.28466883398340
 6  11.04138593249325 -0.03393912941294  0.26109364716472
 6 -11.03229089688969  0.37674755705571 -0.08698633343334
 6  12.33163760116012 -2.22487478147815  0.68521249754975
 6 -12.05775565816582  2.66258656685669 -0.50886922282228
 6  11.12588229622962 -1.13303535803580  0.95661222962296
 6 -11.01206600080008  1.52644826662666 -0.86863573727373
 6  11.61513210091009  0.54171529662966 -2.20567904650465
 6  12.48321173457346  1.89780383548355 -0.23449496849685
 6 -12.91772936373637 -1.24908202690269  0.45591942184218
 6 -11.10104897289729 -0.53554672827283  2.21635978417842
 6  9.81503956655666  0.84263037663766  0.31273327382738
 6 -9.90618042494249 -0.68309085118512 -0.40818490629063
 6  10.16175035133513 -1.58410822252225  1.93212584748475
 6 -10.18660163036304  1.81748348744874 -2.05012647754776
 6  8.52283852355236  0.49516947314731  0.28068627482748
 6 -8.49023198159816 -0.30594045934593 -0.38705502840284
 6  7.28572714091409  1.32056085638564  0.38478109070907
 6 -7.53325221912191 -1.30646912201220 -0.52516291319132
 6  7.62886593629363  2.73753639083908  0.58167060406041
 6 -7.93057024522452 -2.76803681478148 -0.86700397799780
 6  6.02541644314431  0.66775116411641  0.37145930493049
 6 -6.16975558545855 -0.89682050465047 -0.37909002070207
 6  4.84677532823282  1.43245557745775  0.46351601060106
 6 -4.99188880068007 -1.66759273707371 -0.53840522212221
 6  3.61339005060506  0.78018558375838  0.25146709600960
 6 -3.83653903910391 -1.04319495219522 -0.34111654935494
 6  2.38356165756576  1.39052976067607  0.48009249714971
 6 -2.54470346974697 -1.77236229492949 -0.47281056115612
 6  2.17667203880388  2.90826019251925  0.61230560386039
 6 -2.50530107550755 -3.29548307480748 -0.71839318941894
 6  1.15965751425143  0.66958830043004  0.26015093209321
 6 -1.39968814191419 -1.03247181918192 -0.28004670977098
 6  1.16876124832483 -0.73670861806181 -0.10993851355136
 6  0.04201474107411 -1.47887412721272 -0.30377413341334
 1  13.94568467426743 -0.07376494699470  0.38051609450945
 1  13.74245125892589 -0.32455083078308 -1.50933447184718
 1 -12.20384674967497  1.63465585578558  2.12944650945095
 1 -13.77017787538754  0.96257574987499  1.94866130423042
 1  13.82985360736074 -2.61828264596460 -0.80510395619562
 1  12.20892677437744 -2.28625252525253 -1.45777190049005
 1 -13.72728611681168  3.02481584158416  0.64091512911291
 1 -14.10483526732673  1.66387606180618 -0.39615363746375
 1  12.93327529132913 -2.08722122872287  1.58395027702770
 1  11.96554400890089 -3.20837452955295  1.05319217481748
 1 -11.58638843094309  3.38637635833583  0.16331284828483
 1 -12.35842205610561  2.98204171197120 -1.27599150035003
 1  11.27527089758976 -0.43620669796980 -2.58987712041204
 1  12.45266214691469  1.07283194449445 -2.74934150815082
 1  10.90824839613961  1.28931204290429 -2.21965268476848
 1  12.57172812691269  1.78741564346435  0.91124846534653
 1  11.69711811871187  2.73740365126513 -0.31446560356036
 1  13.40387224352435  2.31862213211321 -0.76936920802080
 1 -13.36064529522952 -1.03527753675368 -0.62221832253225
 1 -13.75443761636164 -1.41525732993299  1.16906412711271
 1 -12.51046865006501 -2.21272967786779  0.14986910441044
 1 -10.17757024792479  0.20740510111011  2.34124378347835
 1 -10.71956848224823 -1.43025402610261  1.94523854005401
 1 -11.59443350735073 -0.82996746464646  3.32349087718772
 1  10.17900130673067  1.77051191129113  0.19141504940494
 1 -10.32001644634463 -1.73913902390239 -0.65960233823382
 1  9.67010108760876 -0.71223881858186  2.24527828542854
 1  10.76640745484548 -2.11297749564956  2.78591002100210
 1  9.27722979017902 -2.26647649764976  1.64241386298630
 1 -9.66189322462246  0.93820613321332 -2.63831632853285
 1 -9.29651445634563  2.44299782178218 -1.84151419761976
 1 -10.97571783678368  2.20220522592259 -2.75139511281128
 1  8.47562315311531 -0.58621940214021  0.08215126472647
 1 -7.98644203940394  0.60693488758876 -0.27660131263126
 1  8.28686191829183  3.11743677957796  1.49490887338734
 1  6.71196307700770  3.19059676387639  0.94162674237424
 1  8.04096833453345  3.29082774477448 -0.41217444034403
 1 -8.60316126832683 -2.84672173127313 -1.68598529212921
 1 -8.38164915321532 -3.33312649994999 -0.13982784348435
 1 -6.99104365696570 -3.01474412571257 -1.15197408260826
 1  5.96161702620262 -0.31776700350035 -0.04487650435043
 1 -6.05565755035503  0.18625056355636 -0.43341361816182
 1  4.92047540484048  2.39795823992399  0.76269917671767
 1 -5.01364146444645 -2.75609912631263 -1.04753689478948
 1  3.69835010171017 -0.19076364626463 -0.06551691329133
 1 -3.60002763396340 -0.08995266536654  0.27397553085308
 1  2.58257895729573  2.92961335743574  1.57763641894189
 1  1.11645884668467  3.07774850665067  0.51350107760776
 1  2.81803886268627  3.42432290579058 -0.25502947254725
 1 -3.10640250985099 -3.60460881678168 -1.62025703650365
 1 -2.65092669846985 -3.87348934183418  0.26046069746975
 1 -1.47471844314431 -3.68484881928193 -0.82065429182918
 1  0.38453085388539  1.38865478067807  0.42096274147415
 1 -1.45902699129913  0.11864985218522 -0.19214694079408
 1  2.19990853535354 -1.15679472917292 -0.07145670987099
 1  0.12749326012601 -2.55480052235223 -0.28435929682968

