%nproc=4
%Mem=2GB
# td=(NStates=1) B3LYP/6-31G(d,p) 

TD

0 1
 6  12.11528587118712  0.53822442294229 -0.65561168006801
 6 -12.20534284838484 -0.04160920252025  0.86249542844284
 6  13.38825823852385 -0.28339799979998 -0.57891389038904
 6 -13.14590109000900  1.16283067456746  1.19316003040304
 6  13.21456377057706 -1.75373104550455 -0.74444620342034
 6 -13.55005960206021  2.04624313641364  0.05301566866687
 6  10.96536833073307 -0.12118785428543  0.28844638243824
 6 -11.00428809660966  0.39768965126513 -0.03597123192319
 6  12.24627906530653 -2.23388568256826  0.47085106140614
 6 -12.17038692129213  2.54709501770177 -0.70921925782578
 6  11.12479218721872 -1.29958201270127  0.79163573197320
 6 -11.02270706490649  1.54935055685569 -0.73867274097410
 6  11.63741432913291  0.71943306840684 -2.12423090169017
 6  12.38972238563857  2.04400845594559 -0.22047356635664
 6 -13.10970856165617 -1.10076719541954  0.07170100000000
 6 -11.74424329232923 -0.59385255885589  2.21642979117912
 6  9.80333839643965  0.78943505710571  0.49322132263226
 6 -9.87891769866987 -0.56272881498150  0.01725763796380
 6  10.13075725202520 -1.93551336303630  1.79671230613061
 6 -9.86834980518052  2.02328406750675 -1.70247171207121
 6  8.51952819251925  0.45663561976198  0.32023022922292
 6 -8.54742770117012 -0.27434730003000 -0.17387371027103
 6  7.39172774097410  1.32969176947695  0.50438305090509
 6 -7.53532242614261 -1.36568504360436 -0.33129352625263
 6  7.56719976967697  2.81538417561756  0.94329676667667
 6 -7.90419760796080 -2.81875188628863 -0.43122039963996
 6  6.20503440494049  0.77888227722772  0.38683084208421
 6 -6.17348595849585 -0.81308213081308 -0.42532464416442
 6  4.86784743544354  1.43238557045705  0.39705936493649
 6 -4.91616122792279 -1.62796877467747 -0.44135551715172
 6  3.74007271887189  0.72799036423642  0.15725767506751
 6 -3.70662604780478 -1.11529216191619 -0.54171660936094
 6  2.44355765716572  1.41790249794979  0.12363685158516
 6 -2.44091309070907 -1.81284634333433 -0.35851913201320
 6  2.32191656325633  2.86101546804680  0.24672904620462
 6 -2.43375392079208 -3.31190471697170 -0.53513486358636
 6  1.35021657015702  0.66034737633763 -0.07352243524352
 6 -1.21319949304930 -1.12085065706571 -0.22639134423442
 6  1.19431380358036 -0.86595154235424 -0.15977349704971
 6  0.13129366896690 -1.58151439123912 -0.22306606260626
 1  13.92581268706871 -0.10928849934993  0.42097013991399
 1  14.02261927572757  0.49048067236724 -1.20322386078608
 1 -12.38991535653565  1.80635302550255  1.60244380918092
 1 -13.99735059265927  1.03252274457446  1.66934337243724
 1  14.17733835583558 -2.41082189988999 -0.67506095189519
 1  12.59225510721072 -1.89439333933393 -1.73715983928393
 1 -13.99641302950295  2.94528788878888  0.27190822842284
 1 -14.23116790059006  1.56377605180518 -0.63591761386139
 1  12.85364732853285 -2.26145865246525  1.22813469546955
 1  11.79133658815882 -3.30948464056406  0.21609846544654
 1 -11.71394118621862  3.34828254895490 -0.17466094909491
 1 -12.54159037293729  3.12734624242424 -1.72126602780278
 1  11.35581895239524 -0.28807188448845 -2.58210634333433
 1  12.21861874257426  1.22938760006001 -2.76143271727173
 1  10.73834140544054  1.31871498319832 -1.99766048554855
 1  12.63302425652565  2.13553045494549  0.82199954045405
 1  11.50101850875087  2.57257716861686 -0.52686684368437
 1  13.29830168646865  2.44751502140214 -0.75050732183218
 1 -13.35557478817882 -0.77358136713671 -0.87629373007301
 1 -13.77591976457646 -1.42314811901190  0.82174939563956
 1 -12.33702130533053 -1.88561696659666 -0.12427831033103
 1 -11.05174766566657  0.17180154075408  2.65450510961096
 1 -11.14931145654566 -1.61278227892789  2.22166618281828
 1 -12.51549561356136 -0.80176464436444  2.90302883098310
 1  9.92070547714772  1.94338919901990  0.66082199009901
 1 -10.19569401410141 -1.68974408440844  0.27632125412541
 1  9.72549662716272 -1.16759435413541  2.43678743634363
 1  10.58351916601660 -2.57279347724772  2.50115154515452
 1  9.20534260146015 -2.82551240124012  1.43248286988699
 1 -9.35795283058306  1.15972828542854 -1.88242073897390
 1 -9.46127093199320  2.78610213221322 -1.33589363556356
 1 -10.22055232023202  2.44397940334033 -2.56361633493349
 1  8.33784937573757 -0.55029580978098  0.30620366996700
 1 -8.21887528272827  0.79545373947395 -0.10507415991599
 1  8.36630986308631  2.81909694559456  1.76100548304830
 1  6.76664854555456  3.20683838803880  1.17765034473447
 1  8.05687992569257  3.27502616461646  0.19848662576258
 1 -8.33286423862386 -3.01052811191119 -1.33845053865386
 1 -8.64232522082208 -3.12505569286929  0.30850698999900
 1 -6.97454200680068 -3.54377702900290 -0.33780266546655
 1  6.02705356985699 -0.31566679347935  0.35861384468447
 1 -6.04814679927993  0.19505144364436 -0.21704198099810
 1  4.82220557785779  2.52570101420142  0.36260916771677
 1 -4.93773387368737 -2.72642615901590 -0.31753389448945
 1  3.84821508820882 -0.43134770467047  0.01338097649765
 1 -3.77132476367637  0.03898022792279 -0.43417528422842
 1  2.99641034043404  3.30236063216322  0.98979763506351
 1  1.39945714651465  3.25111584338434  0.36556628412841
 1  2.80955801460146  3.44008448194819 -0.60294426402640
 1 -2.94850672027203 -3.76911526742674 -1.51800681148115
 1 -3.15111671747175 -3.82868486138614  0.15880053145315
 1 -1.45527649894990 -3.81519185358536 -0.30303252965297
 1  0.38108050885088  1.24646056125613 -0.12622197699770
 1 -1.44930601920192 -0.08758077087709 -0.25920364646465
 1  2.25281382588259 -1.32649169886989  0.02183261906191
 1  0.22604311511151 -2.76285132743274 -0.49258011891189

