%nproc=4
%Mem=2GB
# td=(NStates=1) B3LYP/6-31G(d,p) 

TD

0 1
 6  12.13706804940494  0.48310891139114 -0.72200831973197
 6 -12.11723403750375 -0.14242928452845  0.85625480438044
 6  13.46826623932393 -0.20702036203620 -0.53007900690069
 6 -12.99334583448345  1.09488387988799  1.37745846024602
 6  13.24509682388239 -1.80727640004000 -0.47581934073407
 6 -13.39007360346035  2.11224973707371  0.27357772487249
 6  11.05822761666167 -0.05438117361736  0.20548808660866
 6 -10.94326199399940  0.37009689198920 -0.04077171197120
 6  12.34112855025502 -2.07606990099010  0.77398137443744
 6 -12.00966084868487  2.63796410461046 -0.43284162006201
 6  11.22798250625062 -1.14598665316532  1.02501907030703
 6 -10.92309710391039  1.61872749454945 -0.52829170287029
 6  11.64340492819282  0.29464058915892 -2.19602808140814
 6  12.34315772917292  1.99884393949395 -0.38396991599160
 6 -13.04760235103510 -1.10753787248725  0.12260609050905
 6 -11.47039590759076 -0.67106027962796  2.06958510671067
 6  9.87037510011001  0.91111722532253  0.23843584408441
 6 -9.94651445834583 -0.50547308940894 -0.22151623942394
 6  10.32537671397140 -1.64376418811881  2.13278591349135
 6 -10.05899887008701  2.11889362846285 -1.64366583148315
 6  8.57139337903790  0.53223317951795  0.33936214241424
 6 -8.53647660606061 -0.33583344864486 -0.35368169106911
 6  7.44855342354235  1.32203100340034  0.50527313991399
 6 -7.55213410731073 -1.38052652775278 -0.42262265916592
 6  7.67994104380438  2.82656529372937  0.67162959996000
 6 -7.90536772497250 -2.77255726682668 -0.75217249484948
 6  6.16976087758776  0.81146553555356  0.27217937693769
 6 -6.24532314221422 -0.84033485608561 -0.32097420912091
 6  4.80090074077408  1.42799513141314  0.31782144114411
 6 -5.01471108290829 -1.58485446324632 -0.55220660226023
 6  3.65931464306431  0.74492205740574  0.24627657695770
 6 -3.80137552275228 -1.10676130883088 -0.37839027672767
 6  2.30987428882888  1.21543225092509  0.21823631153115
 6 -2.53648264766477 -1.86315137383738 -0.40852413251325
 6  2.15132950455046  2.80679004550455  0.30058443174317
 6 -2.58169871527153 -3.27464099059906 -0.85146649674968
 6  1.21387293579358  0.49892123372337  0.01997691469147
 6 -1.36133430653065 -1.13054162616262 -0.18495720082008
 6  1.11588596079608 -0.98240318751875 -0.14979249894990
 6 -0.07422688308831 -1.68372461226123 -0.37244100010001
 1  13.94819492529253  0.06704913441344  0.46678472137214
 1  14.20907792159216 -0.00046842254225 -1.21773531193119
 1 -12.56102246724672  1.80541293149315  2.09603316811681
 1 -14.05706656425643  0.80696018831883  1.86083252135214
 1  14.22600322232223 -2.36775759345935 -0.52565601140114
 1  12.75866174787479 -2.04509840984098 -1.38407453075308
 1 -13.94434782298230  3.01252461246125  0.59456049364937
 1 -14.12575735953595  1.80780045424542 -0.65365938803880
 1  13.11256322012201 -1.89289179577958  1.54296617861786
 1  11.74169162366237 -2.93635732783278  0.69711656725673
 1 -11.67668746084608  3.53950167086709  0.23513003000300
 1 -12.17635384928493  3.23337684548455 -1.37798169936994
 1  11.53728709920992 -0.80592366966697 -2.37339547224722
 1  12.24880176087609  0.90140480178018 -2.90634720872087
 1  10.81219879117912  0.82889600130013 -2.34072479197920
 1  12.41834278837884  2.10559746164616  0.72063940444044
 1  11.54236264316432  2.58447835873587 -0.93750790779078
 1  13.28064992129213  2.21184145404540 -0.87013928502850
 1 -13.36497572827283 -0.47531154015402 -0.76743284398440
 1 -13.90309248184818 -1.34339014321432  0.62302952365237
 1 -12.27998560176018 -1.86374477937794 -0.43950983348335
 1 -11.10339283018302  0.10252461306131  2.77166682578258
 1 -10.90749727512751 -1.56425742644264  2.01992600880088
 1 -12.38480254425443 -1.16431089898990  2.69851837993799
 1  10.01380478707871  1.91705656575658  0.29472538043804
 1 -10.02056650135014 -1.65085019501950 -0.25747212521252
 1  9.44419849734974 -0.91641923662366  2.57339109670967
 1  10.76173698779878 -1.88019421732173  2.99117054705470
 1  9.89889195639564 -2.38262811281128  1.67042666426643
 1 -9.46942397769777  1.39252156475648 -2.15261775867587
 1 -9.24940974587459  2.74695821782178 -1.27149719591959
 1 -10.66461672667267  2.65560056545655 -2.30461043434344
 1  8.26583217401740 -0.59088986918692  0.24321737133713
 1 -8.05066846204620  0.65257945204520 -0.22833648614861
 1  8.47800103220322  3.16557159305931  1.54133351585159
 1  6.85876775747575  3.38760646484648  0.83229580928093
 1  8.41772601030103  3.13634229622962 -0.22955617851785
 1 -8.15346629882988 -2.87516457555756 -1.81092778637864
 1 -8.82392338063806 -3.18033122042204 -0.16547040774077
 1 -7.02379693229323 -3.42273492479248 -0.62110099529953
 1  6.07302816731673 -0.24007923472347 -0.04070608730873
 1 -6.07646963156316  0.22711464996500 -0.26503678047805
 1  4.70807416471647  2.53230167426743  0.50294320112011
 1 -5.16002610291029 -2.67922143854385 -0.75891803290329
 1  3.70278054475448 -0.31606617651765  0.17704734313431
 1 -3.82747037823782  0.04306063596360 -0.08334020072007
 1  2.71637233663366  3.10292068816882  1.16294494979498
 1  1.00138733953395  3.02840357215722  0.36415614311431
 1  2.86827388618862  3.16545701920192 -0.42627659725973
 1 -3.30889275887589 -3.30625898179818 -1.67911292209221
 1 -3.02638424422442 -3.96052804570457  0.11727637903790
 1 -1.56130710201020 -3.55506584098410 -0.86503873027303
 1  0.17214961576158  1.10838675387539 -0.23812316711671
 1 -1.30437152575257 -0.13395540834083  0.09644191809181
 1  1.99380792529253 -1.57869691939194 -0.26093565776578
 1 -0.02123161236124 -2.77935297759776 -0.49895075597560

