%nproc=4
%Mem=2GB
# td=(NStates=1) B3LYP/6-31G(d,p) 

TD

0 1
 6  12.11719606220622  0.52600320082008 -0.58150426932693
 6 -12.08346066016602  0.06358131653165  0.99902908180818
 6  13.48426783948395 -0.27683734373437 -0.61304730373037
 6 -12.98318481838184  1.26492088358836  1.28530924532453
 6  13.24225653985398 -1.83343901630163 -0.58255001380138
 6 -13.39647424352435  2.01338985108511  0.00345071217122
 6  11.08444023792379 -0.00308604410441  0.24516205400540
 6 -10.98679634743474  0.42546242854285 -0.00285792059206
 6  12.27864230163016 -2.15931822582258  0.57608158445845
 6 -12.21356123872387  2.53526383458346 -0.82554088998900
 6  11.18419812781278 -1.23655571007101  0.84659122752275
 6 -11.04868966316632  1.47914353615362 -0.91961083478348
 6  11.71166175387539  0.72384350945095 -2.08889736833683
 6  12.53416683008301  1.93905796089609 -0.07202872187219
 6 -12.95707329812981 -1.14222134083408  0.44283811371137
 6 -11.32198106610661 -0.41315448904890  2.25307345554555
 6  9.80208827142714  0.87751386498650  0.40163216371637
 6 -9.83941374827483 -0.56073861596160 -0.13292738053805
 6  10.09349352565256 -1.89429924162416  1.66005864076408
 6 -10.09725269546955  1.85938767786779 -1.99089055395540
 6  8.54779101880188  0.55290524672467  0.26344455065507
 6 -8.58177113551355 -0.37946781208121 -0.10510683358336
 6  7.41932050025003  1.37440624092409  0.44810742334233
 6 -7.56085497939794 -1.32366084118412 -0.34578497539754
 6  7.58157120682068  2.86845948314831  0.63300573757376
 6 -7.89282647084708 -2.69534954605461 -0.65665294289429
 6  6.21102500400040  0.76849123812381  0.33521568056806
 6 -6.22594120402040 -1.01207202980298 -0.25242735443544
 6  4.91479212991299  1.40312264416442  0.38164782378238
 6 -5.08062767456746 -1.72458843664366 -0.45082646424642
 6  3.71597030863086  0.71474904010401  0.34122607190719
 6 -3.84175956115612 -1.09996062876288 -0.25015745344534
 6  2.42439574097410  1.26158686638664  0.40128461636164
 6 -2.51119011841184 -1.74868992769277 -0.46359964006401
 6  2.28163253485349  2.67076644314431  0.56260063336334
 6 -2.66429697509751 -3.26385991249125 -0.88481983208321
 6  1.26739828832883  0.53553489508951  0.14976989398940
 6 -1.44737291039104 -1.14908348034803 -0.29589829492949
 6  1.00788516071607 -0.76418136533653 -0.18559607930793
 6 -0.08089755015502 -1.54015025482548 -0.39637339333933
 1  13.99212931873187 -0.06693426392639  0.35654369726973
 1  14.14181119491949 -0.00888926462646 -1.31875541394139
 1 -12.41391775677568  1.81676406660666  2.14477804260426
 1 -13.86354721232123  0.85338483078308  1.65446188428843
 1  14.21659228122812 -2.31393221092109 -0.72829627542754
 1  12.78205408710871 -2.14672857285729 -1.56140226352635
 1 -14.13994738293829  2.92745610561056  0.27570860846085
 1 -13.87252203600360  1.35450512471247 -0.78690271237124
 1  12.90544250805081 -2.36310881748175  1.60075195719572
 1  11.87885534003400 -3.17278097019702  0.35501235683568
 1 -11.64861465356536  3.45376309700970 -0.23106658965897
 1 -12.68515472937294  2.69123263106311 -1.93434733593359
 1  11.27618098859886 -0.05184826212621 -2.69174730743074
 1  12.52267914861486  1.09147380868087 -2.80613718771877
 1  10.77076464776478  1.19177228892889 -2.18426914641464
 1  12.77778873297330  2.02311921382138  0.91891923242324
 1  11.96164457135714  2.90351026192619 -0.40608476547655
 1  13.70763261956196  2.27249751965197 -0.44505677677768
 1 -13.55650488118812 -1.00863487248725 -0.44136023672367
 1 -13.54196636923692 -1.39567537173717  1.50381760246025
 1 -12.27273487668767 -1.90692909780978  0.29761387888789
 1 -10.77223971487149  0.52803716431643  2.52717237633763
 1 -10.69298582398240 -1.23639464016402  2.15435945214521
 1 -12.10688475247525 -0.54355882378238  3.20825935403540
 1  10.17657106370637  1.91080594069407  0.49470537843784
 1 -10.23757820252025 -1.54466957695770 -0.53921029902990
 1  9.32628670617062 -1.09589718441844  2.05293905150515
 1  10.44174498859886 -2.45528172607261  2.52619404940494
 1  9.55528759595960 -2.53639348934894  0.86187580918092
 1 -9.35668270357036  1.04718703130313 -2.32706520342034
 1 -9.47512231713171  2.79672319431943 -1.59991003720372
 1 -10.77023728872887  2.35103010841084 -2.87795776907691
 1  8.25208079887989 -0.34584536473647  0.01264431403140
 1 -8.12010540574057  0.55923011711171  0.34420076757676
 1  8.03833706580658  3.15890092599260  1.72616199869987
 1  6.65343722442244  3.50048775297530  0.37574015371537
 1  8.38401263896390  3.33415207720772  0.13326010311031
 1 -8.43321427362736 -2.88383544264426 -1.62387908150815
 1 -8.66245723402340 -3.03973716101610  0.02096823612361
 1 -7.17180173277328 -3.49231188248825 -0.51628051325133
 1  6.22493335783578 -0.31366659345935  0.27486546984698
 1 -6.14888687328733 -0.03261132263226  0.16453617681768
 1  4.80838419571957  2.38689713381338  0.34015692249225
 1 -5.16734683498350 -2.75138865526553 -0.84901704280428
 1  3.75719598629863 -0.45441001090109  0.36867650605060
 1 -3.70066769796980 -0.06054972507251  0.19743787708771
 1  2.94689538893889  3.08030842694269  1.34920357565757
 1  1.18705590639064  2.85059579137914  0.79017874537454
 1  2.60610766956696  3.15063553705371 -0.37476144574457
 1 -2.98382025162516 -3.32653100900090 -1.98179319011901
 1 -3.24267587338734 -3.85213720662066 -0.31444679327933
 1 -1.67747871917192 -3.58992932733273 -0.84411663806381
 1  0.30055245604560  1.01754766996700  0.25546619181918
 1 -1.41123221182118 -0.04171618441844  0.10099237313731
 1  2.04730327482748 -1.31067011671167 -0.53522308650865
 1  0.05720623142314 -2.63765880818082 -0.59337019791979

