%nproc=4
%Mem=2GB
# td=(NStates=1) B3LYP/6-31G(d,p) 

TD

0 1
 6  12.12989733233323  0.59082968346835 -0.71978809770977
 6 -12.11473378747875  0.02745770417042  0.83903308220822
 6  13.50907031973197 -0.21291095109511 -0.55693169216922
 6 -13.11456795669567  1.06775116661666  1.24709542394239
 6  13.10840315451545 -1.70209588198820 -0.41994375317532
 6 -13.37796239233923  2.03359187128713  0.11627199429943
 6  11.09278107200720  0.00325458995900  0.21773931173117
 6 -10.90026769456946  0.51701158345835 -0.05119275407541
 6  12.40741517891789 -2.01820411441144  0.82190616691669
 6 -12.09725960856086  2.71184149234923 -0.39121745764576
 6  11.28735844384438 -1.05960801530153  0.99282585098510
 6 -10.95993078727873  1.77876349814981 -0.66680555425543
 6  11.53628421612161  0.47477860296030 -2.14960343894389
 6  12.58285169856986  2.07350140524052 -0.45475699469947
 6 -12.89010660146015 -1.12845996469647  0.06230005990599
 6 -11.55944481248125 -0.68044121772177  2.10056820502050
 6  9.88523658625863  0.76333244684468  0.35809781028103
 6 -9.84559436633663 -0.42062460456046 -0.16324041184118
 6  10.09306348264826 -1.65541535323532  1.95616825172517
 6 -9.96493946414641  2.30597233633363 -1.56672813771377
 6  8.57508374807481  0.43496345254525  0.33357156335634
 6 -8.44714767316732 -0.21307117241724 -0.29552587548755
 6  7.40538910711071  1.30183898419842  0.34990760336034
 6 -7.50548944284428 -1.27255573067307 -0.31199159605961
 6  7.58575162486249  2.74233687088709  0.75467790479048
 6 -7.90765795399540 -2.72202221332133 -0.53843112071207
 6  6.06090999249925  0.76597098609861  0.24049620862086
 6 -6.13321193109311 -0.94027485008501 -0.29029114081408
 6  4.79583023372337  1.40121245314531  0.19068872787279
 6 -5.08462807460746 -1.78558453625363 -0.38045942754275
 6  3.65473418501850  0.70181774697470  0.17350930023002
 6 -3.77044242944294 -1.26235686838684 -0.40427286498650
 6  2.28916221762176  1.28316902460246  0.22589707760776
 6 -2.55386438583858 -2.03446850555056 -0.42977625772577
 6  2.18987335893589  2.65578494499450  0.48022239553955
 6 -2.50722126752675 -3.41315484198420 -0.72260361046105
 6  1.16883843234323  0.46720806240624  0.04097901490149
 6 -1.37393556665667 -1.25005357735774 -0.34217292239224
 6  1.08471284348435 -1.00742568976898 -0.23551107080708
 6 -0.04885434583458 -1.67859409920992 -0.41878563456346
 1  14.07818792459246  0.15205763526353  0.29197724062406
 1  14.03051006480648 -0.14844322002200 -1.36372991139114
 1 -12.66036240124012  1.60743313351335  2.11839540434043
 1 -14.05183604120412  0.56942643494349  1.59447588568857
 1  14.20255087708771 -2.34501531923192 -0.61440488628863
 1  12.71486736843684 -2.14680858085809 -1.36333245654565
 1 -14.34393778197820  2.73279663966397  0.28104914251425
 1 -13.89811459525953  1.36143581778178 -0.76799082118212
 1  13.04367633143314 -1.91935444204420  1.59481136313631
 1  12.11452890739074 -3.08141183328333  0.89425628122812
 1 -12.01806159825983  3.40329805050505  0.23442995999600
 1 -12.55878209210921  3.08951245904590 -1.43876777797780
 1  11.46380975147515 -0.64000707800780 -2.46994512721272
 1  12.22592947364736  0.94409907120712 -3.02029860386039
 1  10.48454602590259  1.01791490319032 -1.92348306780678
 1  12.94619557365737  2.04390129202920  0.48785612611261
 1  11.69972837973797  2.99431934283428 -0.48134229122912
 1  13.39858171447145  2.32445271517152 -1.16105837693769
 1 -13.24955418611861 -0.75915992499250 -0.99971607230723
 1 -13.71814398699870 -1.41212701690169  0.72260948164816
 1 -12.18220582378238 -1.94364276917692 -0.12925880838084
 1 -10.88308079897990 -0.04270991039104  2.63946360546055
 1 -11.15639216461646 -1.57935893659366  1.83453746994700
 1 -12.48509257325733 -0.81686615451545  2.58685721382138
 1  10.02473588018802  1.90560542064206  0.30247615551555
 1 -10.24396884158416 -1.55825093509351 -0.24477085508551
 1  9.24848892639264 -0.83224081878188  2.17198095569557
 1  10.67754856895690 -1.85768196609661  2.84379580958096
 1  9.45593766096610 -2.58183803380338  1.57193681528153
 1 -9.45527256255625  1.46045835843584 -2.17677017391739
 1 -9.22684748964896  3.07513103510351 -1.24266431263126
 1 -10.42017228222822  2.77271227662766 -2.34397437073707
 1  8.42218780958096 -0.59320010021002  0.16974002360236
 1 -8.01359475467547  0.84167836193619 -0.20090374287429
 1  8.27834106620662  2.78589362526253  1.69820920342034
 1  6.46258813951395  3.23932163636364  1.07984056375638
 1  8.07825206290629  3.33218188018802 -0.01677490039004
 1 -8.39872082428243 -2.97518457755776 -1.55534222782278
 1 -8.80362135043504 -2.97524071137114  0.11223736303630
 1 -7.09767432003200 -3.30099275057506 -0.13310219541954
 1  5.92022288678868 -0.26939216601660  0.24304228752875
 1 -5.82405439003900  0.17302924142414 -0.22004228102810
 1  4.85994935223522  2.52850129422942  0.20921382818282
 1 -5.17843794409441 -2.86319983638364 -0.47124926602660
 1  3.68316858355836 -0.33376794669467  0.08917855625563
 1 -3.62634026522652 -0.10716438653865 -0.41587345404541
 1  2.52365306470647  2.90657105320532  1.51127978327833
 1  1.26724392519252  3.22469320112011  0.47412714021402
 1  2.99920697949795  3.34084455795580 -0.13553752335234
 1 -3.17457932753275 -3.50438879477948 -1.49172418321832
 1 -2.87074868066807 -4.05000699359936  0.03638829022902
 1 -1.50058102940294 -3.84484481888189 -0.93039526592659
 1  0.25395779657966  1.03284920012001  0.30177082228223
 1 -1.57336842544254 -0.21076308910891 -0.07921564766477
 1  1.95789433393339 -1.46838588828883 -0.37494705890589
 1  0.24325483628363 -2.69172421472147 -0.56713757465747

