%nproc=4
%Mem=2GB
# td=(NStates=1) B3LYP/6-31G(d,p) 

TD

0 1
 6  12.14554889748975  0.50459105960596 -0.68522464136414
 6 -12.14399671377138 -0.07797283888389  0.81305048394839
 6  13.35818523122312 -0.43902356235624 -0.72438843784378
 6 -13.08156465636564  1.05399979147915  1.27628834323432
 6  12.94158647284728 -1.94349002140214 -0.63784554335434
 6 -13.46743133923392  1.93223173527353  0.03255362246225
 6  10.99736153005301 -0.05553128862886  0.25829336713671
 6 -10.99615728352835  0.46903678597860 -0.05705334013401
 6  12.17020145754575 -2.23855614961496  0.58457243354335
 6 -12.24818470107011  2.51845215341534 -0.62657099299930
 6  11.06870657865787 -1.28974102860286  0.88480504890489
 6 -11.03354814901490  1.62625824762476 -0.82508138183818
 6  11.58406899459946  0.54449557465747 -2.10574905350535
 6  12.59227264066407  1.95123917901790 -0.43436495549555
 6 -12.81045863666367 -1.26890400910091  0.21643547344734
 6 -11.57513638163816 -0.64602777637764  2.17701584978498
 6  9.87652571517152  0.93600971457146  0.46157815831583
 6 -9.81344115101510 -0.51717425952595 -0.21652574037404
 6  10.11527570387039 -1.72388219991999  1.94203683858386
 6 -10.03081605180518  1.94413615271527 -1.80802226712671
 6  8.52866910661066  0.59402935913591  0.21163937013701
 6 -8.46355931433143 -0.15398526382638 -0.32263858675868
 6  7.35324389258926  1.34488328862886  0.52433504610461
 6 -7.48585747964797 -1.21556003110311 -0.34341473837384
 6  7.61613466316632  2.86204884208421  0.83121555855586
 6 -7.95634282248225 -2.71265127622762 -0.68489576717672
 6  6.15901980348035  0.71387577657766  0.26927908690869
 6 -6.19692830273027 -0.84183500610061 -0.28744085578558
 6  4.92107275797580  1.46948928082808  0.48616827582758
 6 -4.99720933273327 -1.70186616441644 -0.35446682828283
 6  3.66941565316532  0.84449201440144  0.22234418371837
 6 -3.71173655885589 -1.08021865456546 -0.18155059275928
 6  2.42017531893189  1.32140284798480  0.28018250615062
 6 -2.40960996039604 -1.77776283498350 -0.34673795389539
 6  2.33767813941394  2.79434880138014  0.63100747404741
 6 -2.44477502290229 -3.34572809930993 -0.60915226532653
 6  1.31264281278128  0.67317865946595  0.08108302530253
 6 -1.33809198229823 -1.00899947194719 -0.28278698379838
 6  1.13172754495450 -0.73103805100510 -0.18489600930093
 6 -0.03087254765477 -1.52042828262826 -0.34318807480748
 1  14.12430253605361 -0.17559513001300  0.18433647654765
 1  14.12977999179918 -0.14634301000100 -1.46791032943294
 1 -12.75807217221722  1.73325571577158  2.21650521532153
 1 -14.06907776537654  0.49951944424442  1.66846328442844
 1  13.96441706370637 -2.53270408810881 -0.85100854665467
 1  12.22859874157416 -2.33577747774778 -1.59601572487249
 1 -14.09456284448445  2.88769212921292  0.25513655125513
 1 -14.16085086888689  1.39107878207821 -0.67794181628163
 1  12.90765272907291 -2.31573408000800  1.38525040704070
 1  11.86308376287629 -3.09384307640764  0.33555041064106
 1 -11.85578537063706  3.49518723942394 -0.00693417641764
 1 -12.49148536243624  2.96864037183718 -1.57628152935294
 1  11.45042841334133 -0.39622269956996 -2.70548868156816
 1  12.22042892359236  1.16656131743174 -3.01170774477448
 1  10.50259783108311  0.99736284798480 -2.10984170367037
 1  13.12023297739774  1.98253515541554  0.35896323682368
 1  11.63139154605460  2.58724863576358 -0.50064422142214
 1  13.33846570287029  2.38881915181518 -1.11197346844684
 1 -13.41614084478448 -0.97525153415342 -0.68936503720372
 1 -13.51697386998700 -1.68604440864086  0.79219644034403
 1 -12.11617922112211 -2.17912631753175  0.08021213871387
 1 -10.79792228312831 -0.03510915031503  2.45141480058006
 1 -11.01259778517852 -1.66325732643264  1.93327734393439
 1 -12.32708677267727 -0.60034450235023  2.83546207430743
 1  10.09643304990499  2.03118797889789  0.68668457635764
 1 -9.99413385808581 -1.46282139213921 -0.36389276727673
 1  9.33416749424943 -1.02200979567957  2.35685944354435
 1  10.67172798689869 -1.95489168706871  2.86569799979998
 1  9.49872193939394 -2.63400325032503  1.69155877747775
 1 -9.15179221452145  1.26908922152215 -2.06655915281528
 1 -9.37867267216722  2.61733525552555 -1.44981502770277
 1 -10.64884514951495  2.17986299169917 -2.69149912321232
 1  8.42788837963796 -0.57393817401740  0.10831388098810
 1 -8.15342873807381  0.88335252935294 -0.15573922642264
 1  8.01869510161016  2.87389242514251  1.91703108560856
 1  6.66363824452445  3.34764246844684  0.67313989368937
 1  8.45412965066507  3.26313497549755 -0.00961418431843
 1 -8.78752970517052 -2.71829888898890 -1.46623331693169
 1 -8.18746973527353 -3.36083927122712  0.46602274157416
 1 -7.14274882748275 -3.44874752605260 -1.23611249644964
 1  6.14078494299430 -0.38178340514051  0.03443142644264
 1 -5.98673065766577  0.22003394189419 -0.26827710451045
 1  4.88983234053405  2.46562500660066  0.72743565036504
 1 -5.02060216051605 -2.77924144054405 -0.45768790989099
 1  3.90432069876988 -0.19577414731473 -0.09701006260626
 1 -3.64868249944994 -0.05565923602360 -0.20983284998500
 1  2.78286898629863  3.23769416551655  1.59426808210821
 1  1.29008620942094  3.24221495329533  0.77360708820882
 1  2.72801986078608  3.46832730623062 -0.15567953755376
 1 -2.98020989058906 -3.55338369426943 -1.35260027082708
 1 -2.95396700250025 -3.62878487138714  0.32225687708771
 1 -1.39488045934593 -3.87510784518452 -0.72516474287429
 1  0.30561296209621  1.35889180438044  0.02285293049305
 1 -1.60121120972097  0.00373836103610  0.07401967586759
 1  1.84190273477348 -1.31154020372037 -0.58749831403140
 1  0.28709922072207 -2.52916795909591 -0.71080194109411

