%nproc=4
%Mem=2GB
# td=(NStates=1) B3LYP/6-31G(d,p) 

TD

0 1
 6  12.24561890449045  0.59130973147315 -0.67369348824882
 6 -12.22322463656366  0.00876583498350  0.84351353025303
 6  13.52957236993699 -0.18851851185119 -0.52867886688669
 6 -13.00635713561356  1.22321671317132  1.29811052545255
 6  13.23971628582858 -1.62778845124512 -0.61418317711771
 6 -13.35998059415942  2.11466997909791  0.01871223832383
 6  11.11605339923992 -0.03169890539054  0.24385192299230
 6 -11.02176984478448  0.46231611391139 -0.06922455725573
 6  12.47262169956996 -2.07293958795880  0.58620259655966
 6 -12.19453933653365  2.62208251645165 -0.60329866576658
 6  11.31408111611161 -1.23552560706071  0.85206177457746
 6 -11.09022381658166  1.56903252505251 -0.85112398609861
 6  11.69567015471547  0.80682180728073 -2.07601608020802
 6  12.41573498689869  2.15822987808781 -0.15996751575158
 6 -12.98026561736174 -1.05356247494749  0.17491132103210
 6 -11.53339220722072 -0.74740791439144  2.03005115331533
 6  9.79647771037104  0.84633074667467  0.38244024452445
 6 -10.02942274917492 -0.53105564766477 -0.32712680048005
 6  10.15007918421842 -1.84181399309931  1.71803443834383
 6 -10.09663263346335  2.02471421052105 -1.88891035593559
 6  8.57363360306031  0.38368832503250  0.10464867106711
 6 -8.62772573097310 -0.24538440374037 -0.30935725862586
 6  7.39432800100010  1.21319011931193  0.20285289788979
 6 -7.51714060796080 -1.15340381548155 -0.39826022292229
 6  7.60639368906891  2.68678131533153  0.53109554655466
 6 -7.88621580978098 -2.68986899799980 -0.72020929852985
 6  6.14878878037804  0.64065845484548  0.03645580458046
 6 -6.21943055295530 -0.83896471907191 -0.16060817251725
 6  4.83466411711171  1.28235056695670  0.37732739173917
 6 -5.07984759655966 -1.60299627742774 -0.25643702530253
 6  3.72185089668967  0.58862642784278  0.18182013131313
 6 -3.78195358055806 -1.11704233693369 -0.05195763346335
 6  2.36403970537054  1.19901060876088  0.37668215611561
 6 -2.52380137953795 -1.86317137583758 -0.13445672577258
 6  2.34872924452445  2.64272363886389  0.71687606090609
 6 -2.56936748214822 -3.39177270377038 -0.35581693179318
 6  1.21322287078708  0.47478882048205  0.20170508750875
 6 -1.38782695579558 -1.18096666866687 -0.15304400950095
 6  1.10980535273527 -0.90590553775378 -0.17851537123712
 6 -0.04939439983998 -1.60718695849585 -0.28563231923192
 1  14.15362546834683 -0.07583515401540  0.41806984988499
 1  14.21191820562056  0.05547717201720 -1.16143968236824
 1 -12.60058642364236  1.95550794099410  1.80453401820182
 1 -13.72149300690069  0.78591808410841  1.70050648874887
 1  14.30258088008801 -2.01710252795280 -0.44876832263226
 1  12.78621450315032 -2.04082798279828 -1.41403752705271
 1 -13.88989237743774  2.89956331633163  0.30477151475148
 1 -14.05136992079208  1.51398107230723 -0.82669669176918
 1  13.05075703950395 -2.06870937753775  1.56898878087809
 1  12.22434988948895 -3.11737542964296  0.34658151375138
 1 -11.88101789388939  3.44620234093409 -0.06528001100110
 1 -12.29376559045905  3.27889139693969 -1.59381328252825
 1  11.37841121162116 -0.02394547184718 -2.73668180088009
 1  12.46745362606261  1.18885354665467 -2.81007758175818
 1  10.98036560786078  1.69514262596260 -2.36567728722872
 1  12.63601455555556  2.23596049794980  0.97751509200920
 1  11.68160656755676  3.02755266616662 -0.46773093009301
 1  13.50140199649965  2.52492276217622 -0.32206447754775
 1 -13.49724895559556 -0.56321033003300 -0.80775687638764
 1 -13.85457763036304 -1.12263806800680  0.95749296999700
 1 -12.41738934213421 -1.95966437133713 -0.20101598409841
 1 -10.80844333523352 -0.10714635403540  2.63485314441444
 1 -11.10165669106911 -1.69215021572157  1.87761177737774
 1 -12.23132719671967 -1.00866533443344  2.72658118621862
 1  10.18949235583558  1.83363822392239  0.73171907980798
 1 -10.45267971267127 -1.47596270627063 -0.52529890789079
 1  9.41606568406841 -1.18978657335734  2.26865062266227
 1  10.50033084718472 -2.45792199009901  2.65462689268927
 1  9.56793886108611 -2.53717356735674  1.13986360796080
 1 -9.43272030733073  1.27203951655166 -2.14759725662566
 1 -9.43097790269027  2.84357787978798 -1.40957100330033
 1 -10.55828609360936  2.41333633903390 -2.92804277757776
 1  8.54304989578958 -0.64951573177318  0.02001505110511
 1 -8.42582597779778  0.63587778187819  0.10135648314832
 1  7.94891812391239  2.83082811871187  1.48552793529353
 1  6.60946282698270  3.10527823202320  0.48323090279028
 1  8.17276151385139  3.35828449044905 -0.21639486238624
 1 -8.15912686488649 -2.84911197029703 -1.76056274987499
 1 -8.66250723902390 -3.12513570087009 -0.00662452315232
 1 -7.09961451405140 -3.39173182448245 -0.41919080428043
 1  6.05367623212321 -0.38150337713771 -0.28783079977998
 1 -6.20479246384638  0.17445938443844  0.18352807600760
 1  4.65723908120812  2.19227767186719  0.92336524332433
 1 -5.13597369766977 -2.80984450085008 -0.63539568066807
 1  3.75139540624063 -0.36805137503750 -0.32577293889389
 1 -3.62694032523252 -0.11281495159516  0.07830596389639
 1  2.78111881128113  2.72485288138814  1.62422107740774
 1  1.40897809860986  2.86606733853385  0.75372510001000
 1  2.77724478327833  3.22077255075508  0.02379841024102
 1 -3.18365023462346 -3.76973532943294 -1.38086309710971
 1 -3.01776338213821 -3.93140513341334  0.41078572997300
 1 -1.54645561686169 -3.89821015541554 -0.52057428382838
 1  0.26279868066807  0.94087000220022  0.44060470567057
 1 -1.41146223482348 -0.03615562836284  0.13222549644964
 1  2.06930547504750 -1.15905495519552 -0.48686825102510
 1  0.20445095589559 -2.63994903720372 -0.62411327222722

