%nproc=4
%Mem=2GB
# td=(NStates=1) B3LYP/6-31G(d,p) 

TD

0 1
 6  12.13243758635864  0.54355495599560 -0.65428154705471
 6 -12.13259557365737  0.05453041144114  0.85262444134413
 6  13.33655306800680 -0.35738539853985 -0.55055105410541
 6 -12.92770927082708  1.24641903340334  1.23354406880688
 6  12.96842915711571 -1.87472314471447 -0.63698545734573
 6 -13.32073666976698  2.08263677577758  0.18447881498150
 6  11.01531332523252  0.02815708020802  0.21532907070707
 6 -11.07675534333433  0.49784966726673 -0.13506114091409
 6  12.19879431683168 -2.12302459645965  0.44733871017102
 6 -12.07778766136614  2.59364967316732 -0.55602393829383
 6  11.08829853785378 -1.25066712121212  0.72885945434543
 6 -11.05845063926393  1.63698932073207 -0.84978385208521
 6  11.62911349904991  0.65300642574257 -2.14701317991799
 6  12.42758617201720  2.01062511761176 -0.19257077607761
 6 -12.97910550135014 -1.01513863256326  0.13799762966297
 6 -11.57271613961396 -0.58656182978298  2.17245539373937
 6  9.82842090469047  0.89874598819882  0.30382238273827
 6 -9.90964077097710 -0.58597113921392 -0.27443153095310
 6  10.14161833813381 -1.73925373707371  1.86137877277728
 6 -9.86602957315732  1.94210594969497 -1.74476594149415
 6  8.58460470017002  0.56960691689169  0.33281148734873
 6 -8.54380733913391 -0.36760662596260 -0.23772009490949
 6  7.45626419461946  1.42400120042004  0.57457006960696
 6 -7.47551644554455 -1.41095957105711 -0.30561095799580
 6  7.60643369306931  2.90990362756276  0.64850728772877
 6 -7.91653884208421 -2.80395040614061 -0.55911318891889
 6  6.21648555005501  0.84660904990499  0.47134929392939
 6 -6.22923153305331 -0.95067589018902 -0.39681179287929
 6  4.90231088178818  1.41068340024002  0.64659431843184
 6 -5.04678429022902 -1.74545052285229 -0.39527090869087
 6  3.72075078667867  0.75391295649565  0.28272022132213
 6 -3.80395578077808 -1.19384001670167 -0.28670110781078
 6  2.46728002940294  1.26245695339534  0.32129661756176
 6 -2.48485748514851 -1.93749880858086 -0.47203048314831
 6  2.22233660526053  2.74182354885489  0.50869524282428
 6 -2.50058060346035 -3.41500502700270 -0.42895424552455
 6  1.29237078557856  0.50893223482348  0.01871678867887
 6 -1.32991116421642 -1.19114768676868 -0.39195790089009
 6  1.17059143134313 -0.84291923912391 -0.24798231793179
 6  0.00395093469347 -1.57333357315732 -0.37547130313031
 1  13.80801090689069 -0.30133770427043  0.56983502640264
 1  14.22658967276728 -0.02876125182518 -1.10874441284128
 1 -12.33908027302730  1.71191358155816  2.07905146994699
 1 -13.83054391199120  0.73832332463246  1.75087152525253
 1  13.91384200620062 -2.37137795549555 -0.61980542634263
 1  12.52556843854386 -2.14993889388939 -1.62449857315732
 1 -14.14462785098510  2.96913027302730  0.61410244784478
 1 -13.96053083688369  1.56597627182718 -0.66345036713671
 1  12.85766773057306 -2.26097860446045  1.38058994099410
 1  11.70159761426143 -3.16477016911691  0.46351320692069
 1 -11.60302009410941  3.44774249494949  0.15068158515852
 1 -12.11231744564457  3.23048655645565 -1.44907880908091
 1  11.33174654515452 -0.47102017931793 -2.54193232593259
 1  12.28784566526653  0.98049271057106 -2.77052362636264
 1  10.70666823812381  1.24625773747375 -2.15541626112611
 1  12.80255120922092  2.02584948684869  0.75278261876188
 1  11.67848625552555  2.59649956085609 -0.49610376737674
 1  13.27642949924993  2.42444271417142 -0.92658492959296
 1 -13.47596682738274 -0.65557956695670 -0.75505160586059
 1 -13.74259643224323 -1.28021382558256  0.97342456315632
 1 -12.20697830103010 -1.74620302520252 -0.15736161866187
 1 -10.79059155005501  0.00237459805981  2.80951061016102
 1 -10.99536606200620 -1.44371537223722  1.85993000920092
 1 -12.49776384038404 -0.93916838473847  2.74801332943294
 1  10.02304571117112  1.87174203430343  0.35042094999500
 1 -10.26420086478648 -1.53457856785679 -0.38791516951695
 1  9.67257133463346 -0.94910250495050  2.33537729532953
 1  10.95167598169817 -2.13010920882088  2.64016544654465
 1  9.21894396159616 -2.40244009400940  1.66835645724572
 1 -8.91092812811281  1.18584089668967 -1.95167766466647
 1 -9.58671347624762  2.91827534953495 -1.30194024022402
 1 -10.28974923992399  2.46405141054105 -2.67512748604860
 1  8.22880847164716 -0.44607538773877  0.05090814041404
 1 -8.39256265146515  0.75232942704270 -0.00490414291429
 1  8.19333256535654  3.03236827272727  1.57949733223322
 1  6.86045792649265  3.76650435463546  0.49061164086409
 1  8.24336857455746  3.32104076607661 -0.10748397129713
 1 -8.61592254445445 -3.03665072417242 -1.38875556915692
 1 -8.38484947324732 -3.42678586588659  0.35981212051205
 1 -7.26771132373237 -3.53584623592359 -0.85762464766477
 1  6.28746961146115 -0.21614684148415  0.33487147044704
 1 -6.00846283088309 -0.01448951045105 -0.44767504430443
 1  4.70055341264126  2.35939438353835  0.73577648444844
 1 -4.98937903820382 -2.75680919731973 -0.89011115221522
 1  3.78641890859086 -0.08051262116212  0.00411004940494
 1 -3.72952058325833 -0.19822349244925 -0.13695556225623
 1  2.63545424482448  3.08151854795480  1.32289094439444
 1  1.29748694949495  3.08082881468147  0.24009373687369
 1  2.66589364816482  3.56499697319732 -0.21222519211921
 1 -2.98397026662666 -3.70133848974897 -1.48735374617462
 1 -3.30548215401540 -3.87101909480948  0.28816346774677
 1 -1.58367933923392 -3.91021135553555 -0.33703592999300
 1  0.28337073787379  0.97030294549455 -0.20752010681068
 1 -1.58779986858686 -0.06408842164216 -0.55661338743874
 1  2.13074161866187 -1.42763181288129 -0.33731329552955
 1 -0.03327281648165 -2.59047408970897 -0.66421728262826

