%nproc=4
%Mem=2GB
# td=(NStates=1) B3LYP/6-31G(d,p) 

TD

0 1
 6  12.22040638323832  0.39345994649465 -0.76983310221022
 6 -12.14890720482048 -0.16318135973597  0.81988116701670
 6  13.45769518221822 -0.51316097609761 -0.67473347234723
 6 -13.03002950285028  1.07615200670067  1.23987470187019
 6  13.06946926112611 -1.98732440484048 -0.58934069286929
 6 -13.41529612571257  1.95586409850985  0.15931629872987
 6  11.06535832973297 -0.01532726822682  0.29552709050905
 6 -10.96783445124512  0.30101998429843 -0.11663929872987
 6  12.20997543494349 -2.22436473047305  0.67073104940494
 6 -12.19755963856386  2.63403371157116 -0.49200753665367
 6  10.96989669766977 -1.26723877837784  0.76777334573457
 6 -11.09486428062806  1.49842546434643 -0.84404327802780
 6  11.65377596529653  0.56279740484048 -2.24752323092309
 6  12.70915432883288  1.79614366946695 -0.24894641364136
 6 -13.05798338913891 -1.24140125882588  0.11733556345635
 6 -11.46810567856786 -0.73079625322532  2.10637878607861
 6  9.93133119571957  0.89783589718972  0.33847584808481
 6 -9.90046985388539 -0.68666120822082 -0.35087917571757
 6  10.00841501780178 -1.58145795749575  1.95733836873687
 6 -10.06927989818982  1.99203094219422 -1.77364882978298
 6  8.66438267796780  0.48512846904690  0.17477568376838
 6 -8.67268022642264 -0.37609747504750 -0.37418374127413
 6  7.45940450865086  1.41996079637964  0.26726933953395
 6 -7.51611050495050 -1.37836631173117 -0.47551794869487
 6  7.64615766546655  2.87611024822482  0.73486592359236
 6 -7.85228241644164 -2.81034104520452 -0.55145242284228
 6  6.22597649914991  0.78510289928993  0.23259541854185
 6 -6.27041565146515 -0.89190001260126 -0.37085919761976
 6  4.89194984568457  1.45162749464947  0.42231189018902
 6 -5.00397000880088 -1.51113709150915 -0.28690007160716
 6  3.70347905950595  0.75150271547155  0.41230317961796
 6 -3.79007439263926 -0.95496612931293 -0.25363780148015
 6  2.49056235763576  1.36949765746575  0.47074156205621
 6 -2.52492149154915 -1.59998505720572 -0.32150543064306
 6  2.42790716231623  2.82057142364236  0.62321669496950
 6 -2.54701524692469 -3.08712223872387 -0.57285863596360
 6  1.23028457695770  0.72214355595560  0.08350326732673
 6 -1.40888906200620 -0.96741531353135 -0.16324502960296
 6  1.11238561076108 -0.72451739893989 -0.18074559425943
 6 -0.05447490789079 -1.39315555535554 -0.37866162216222
 1  13.83139324512451 -0.23686125662566  0.24834287718772
 1  14.07416443024302 -0.25112348804881 -1.36957049544954
 1 -12.33319968496850  1.68464085428543  1.87549111391139
 1 -13.90248110571057  0.86785627792779  1.92375881398140
 1  13.97281790379038 -2.58322914061406 -0.53508695449545
 1  12.56585246694669 -2.38844274427443 -1.53268939223922
 1 -13.94077746594659  2.81896525652565  0.80859189678968
 1 -14.04655943974397  1.43726340054005 -0.70544456655666
 1  12.82478444224422 -1.96565907250725  1.69013089508951
 1  11.80666812131213 -3.20933462556256  0.87742459805981
 1 -11.74690448254825  3.38472619331933  0.21165768276828
 1 -12.57437365126513  3.21683519131913 -1.40618451965197
 1  11.51680505100510 -0.23042611991199 -2.72296042874287
 1  12.32781966266627  1.35237989928993 -2.75120169416942
 1  10.58384595589559  1.08799191089109 -2.00470118961896
 1  12.59367032113211  1.90625752765277  0.82446978747875
 1  11.95830423732373  2.55035494639464 -0.58967312431243
 1  13.71860371667167  1.74837510741074 -0.79125139623962
 1 -13.26956618731873 -0.98863287228723 -0.94633073377338
 1 -13.96030820342034 -1.31382718691869  0.72402962366237
 1 -12.27715531873187 -2.03723212811281  0.02699681718172
 1 -10.67442993389339 -0.08550418981898  2.60190985008501
 1 -10.87179370477048 -1.48415941664166  1.63865788198820
 1 -11.99259332333233 -1.11821628952895  3.04428295639564
 1  10.07223062966297  1.92857771787179  0.55664157205721
 1 -10.33896834153415 -1.74839994999500 -0.05994237223722
 1  9.46082015951595 -0.77068466316632  2.35922968056806
 1  10.63936475057506 -1.94804100200020  2.80342177217722
 1  9.33225529272927 -2.39515936593659  1.75770539213921
 1 -9.60329736503650  0.96253856645665 -1.97551004790479
 1 -9.39583438833883  2.58540206220622 -1.43645369156916
 1 -10.61009127412741  2.55448045344534 -2.76201617491749
 1  8.44715030583058 -0.61900268046805 -0.31767871827183
 1 -8.38313170837084  0.72419661376138 -0.29740339283928
 1  8.32153538563856  3.04706974287429  1.55046442894289
 1  6.60407228792879  3.43053075727573  0.88270084978498
 1  8.11854609230923  3.42058072007201 -0.07190041294129
 1 -8.58588954115412 -2.79324638373837 -1.50785747934793
 1 -8.30361134943494 -3.22144533183318  0.27751389068907
 1 -7.11452600520052 -3.46442909420942 -0.83552243744374
 1  6.30146101060106 -0.24008923572357 -0.08227024372437
 1 -6.23410539513951  0.21043298179818 -0.23685396219622
 1  4.72773613091309  2.51204964906491  0.70168307510751
 1 -5.20830093039304 -2.71015453185319 -0.18290043114311
 1  3.80201046774678 -0.45040961086109  0.22370200860086
 1 -3.59412704390439  0.07269359925993 -0.14286615331533
 1  2.79879057845785  3.05921631773177  1.63292194749475
 1  1.40642784358436  3.15518625042504  0.37720744824482
 1  3.02958001680168  3.22992346584658 -0.06948091769177
 1 -3.29511138073807 -3.30792914881488 -1.49734474527453
 1 -3.12233383918392 -3.81292328522852  0.14637928932893
 1 -1.60429140044004 -3.68057839223922 -0.86073830023002
 1  0.29413181398140  1.33852976817682 -0.20357971277128
 1 -1.53763485208521  0.16630461766177 -0.06466419251925
 1  2.10277882238224 -1.17195624532453 -0.33433299749975
 1  0.14187469826983 -2.48662370467047 -0.79836069696970

