%nproc=4
%Mem=2GB
# td=(NStates=1) B3LYP/6-31G(d,p) 

TD

0 1
 6  12.12071641424142  0.45900650115011 -0.78155427432743
 6 -12.08448076217622 -0.02436747834783  0.90679985888589
 6  13.41571098379838 -0.33461312131213 -0.74761076007601
 6 -12.98035453535354  1.18160255175518  1.35511622602260
 6  13.10988330253025 -1.84534020642064 -0.67816957575758
 6 -13.38075267136714  2.05449396149615  0.14661502860286
 6  11.02607440134013  0.00443470797080  0.27171470927093
 6 -11.03443111091109  0.42996287858786 -0.15703333813381
 6  12.27318175557556 -2.04356665066507  0.57268124442444
 6 -12.13350323292329  2.51435174337434 -0.70016835273527
 6  11.06231593959396 -1.17925998049805  0.89343591199120
 6 -11.14384917911791  1.50462608440844 -0.89949882358236
 6  11.58034862256226  0.41375250035004 -2.21422990159016
 6  12.57718113151315  1.98404245934593 -0.39392091109111
 6 -13.02582017281728 -1.11851897059706  0.38093192309231
 6 -11.34364323232323 -0.63158633223322  2.14608275647565
 6  9.87391545414541  0.98676479007901  0.41066306680668
 6 -9.95289509640964 -0.53069561166117 -0.43876796459646
 6  10.23797797409741 -1.68778859055906  1.89893252815282
 6 -10.06274924512451  2.17839957905791 -1.73451491639164
 6  8.67361360106011  0.66908686488649  0.29236744294429
 6 -8.63470642904290 -0.27862772807281 -0.29996631953195
 6  7.42592116031603  1.40871967226723  0.47306991959196
 6 -7.57905679957996 -1.34815329042904 -0.50243063996400
 6  7.64673772347235  2.80649328652865  0.81094353135314
 6 -7.89169635783578 -2.71457146824682 -0.82050932853285
 6  6.26013991549155  0.78480286928693  0.33395555455546
 6 -6.20725933583358 -0.87885870847085 -0.48056016771677
 6  4.88120877157716  1.34888722062206  0.55977563656366
 6 -5.03900351215122 -1.67882386018602 -0.46250763236324
 6  3.69754846644664  0.66690425562556  0.42165411471147
 6 -3.75984136933693 -1.19331996469647 -0.32440487818782
 6  2.36298960036004  1.20294100180018  0.39041352925293
 6 -2.49223822322232 -1.84968002670267 -0.29166244634463
 6  2.28236260786079  2.73448281478148  0.47097147044704
 6 -2.51512205760576 -3.33497702420242 -0.51800315041504
 6  1.21132268076808  0.53570491209121  0.20449536653665
 6 -1.43489166226623 -1.11840041204120 -0.17072577767777
 6  1.12060643284328 -0.90084503170317  0.00389286958696
 6 -0.06601606200620 -1.56842308210821 -0.22788654465447
 1  13.92400250605060 -0.04733230373037  0.12343038593859
 1  13.99899691349135  0.18348997329733 -1.73215675407541
 1 -12.25136150115011  1.90374276447645  1.97554111891189
 1 -13.69381023862386  0.73466295859586  2.04218065616562
 1  13.91853247524753 -2.38717953565357 -0.70232367816782
 1  12.55883176487649 -2.01941584158416 -1.63464958825883
 1 -13.94904829302930  2.99034239423942  0.45227626522652
 1 -14.06177096089609  1.56566624082408 -0.29067308940894
 1  12.91914387818782 -2.06402890949095  1.50049193119312
 1  12.11804925942594 -3.06018971107111  0.44123097869787
 1 -11.53609340144014  3.36476419711971  0.00019653665367
 1 -12.41087730163016  3.02718622642264 -1.72323622482248
 1  11.29607297779778 -0.55777885518552 -2.66064419711971
 1  12.18149503020302  1.15257991929193 -2.93303987798780
 1  10.62337990929093  1.13915702740274 -2.15531625112511
 1  12.65615656975698  2.17070397229723  0.61574891539154
 1  11.91174958185819  2.82272218311831 -0.78367252425243
 1  13.55400725702570  1.90450071997200 -0.83939621072107
 1 -13.60964019471947 -0.83336734573457 -0.62201830253025
 1 -13.80943311591159 -1.48956476067607  1.12684990569057
 1 -12.36160376357636 -1.95412381728173 -0.12864874737474
 1 -10.73742623352335  0.34847920852085  2.67457711681168
 1 -10.43133965936594 -1.35530653135313  1.64361837803780
 1 -12.28156222022202 -1.13187765566557  2.88800732883288
 1  9.96988039463946  2.07675253535354  0.77019292719272
 1 -10.21962640734073 -1.60900601060106 -0.67575395339534
 1  9.42200627812781 -1.12252984768477  2.11552531013101
 1  10.91198201230123 -1.95440163806381  2.81080251025103
 1  9.86972904010401 -2.75717556755676  1.66921654325433
 1 -9.25668270357036  1.63478579117912 -2.21713421032103
 1 -9.41414621952195  2.96841036303630 -1.25976602280228
 1 -10.62836310131013  2.66864186958696 -2.67852782608261
 1  8.50607619841984 -0.41050183038304  0.18203125272527
 1 -8.50940433563356  0.67773196729673  0.00468681618162
 1  8.17013024512451  2.97637267316732  1.78142752525253
 1  6.61641352205220  3.31181888608861  0.99103168286829
 1  8.25202944064407  3.33955261726173  0.05648242534253
 1 -8.32623357555756 -2.69899695879588 -1.85433212681268
 1 -8.75367635593559 -3.28000118741874 -0.15566942764276
 1 -7.02291684428443 -3.39189184048405 -0.70124901010101
 1  6.20041090559056 -0.16192141894189  0.06881486478648
 1 -6.09204118871887  0.09361129962996 -0.36108638543854
 1  4.71161451875188  2.42660110421042  0.69477238403840
 1 -5.04636473677368 -2.69854337073707 -0.63864600570057
 1  3.78672893959396 -0.38690326022602  0.21431106950695
 1 -3.65301293249325 -0.17117078717872 -0.34218608530853
 1  2.42745344474447  2.91253164926493  1.59131778707871
 1  1.30770797159716  3.10541127292729  0.24350407790779
 1  3.04267132593259  3.09850032353235 -0.17903187278728
 1 -3.03265513511351 -3.62272062796280 -1.43010802160216
 1 -3.10845245104510 -3.90738273117312  0.08398304970497
 1 -1.62076304760476 -4.01461179557956 -0.43833606000600
 1  0.31602400320032  1.08819473467347  0.13145379057906
 1 -1.46670775937594  0.01462945014501 -0.12796052215222
 1  2.06356490099010 -1.69960901060106  0.24591502730273
 1  0.12126263706371 -2.67777281958196 -0.23501436233623

