%nproc=4
%Mem=2GB
# td=(NStates=1) B3LYP/6-31G(d,p) 

TD

0 1
 6  12.19454379697970  0.54342494299430 -0.56475259415942
 6 -12.12124443854385  0.01362632103210  0.95827500640064
 6  13.51287069976998 -0.30839049904991 -0.48523452245225
 6 -12.89658615851585  1.26554094559456  1.36592730713071
 6  13.07078939313931 -1.81464713711371 -0.57374913371337
 6 -13.37990258635864  2.06691520362036  0.09380974807481
 6  11.01729352325233 -0.02905864136414  0.29123666146615
 6 -10.97849551735173  0.37666754905491 -0.02640027482748
 6  12.34194863226323 -2.19397169116912  0.74410838713871
 6 -12.22063194579458  2.55194550275028 -0.67517585348535
 6  11.16248595659566 -1.25550760526053  0.86352292069207
 6 -11.00920571477148  1.49887550935093 -0.82301117481748
 6  11.75434602230223  0.57133825892589 -2.11930040864086
 6  12.56067948134814  1.91996605170517 -0.07627914691469
 6 -13.02289988078808 -1.09162628132813  0.30306413631363
 6 -11.54749361736174 -0.59115228882888  2.29234738293829
 6  9.88991705430543  0.87783389698970  0.42045404590459
 6 -9.96474628152815 -0.62552509460946 -0.13851793959396
 6  10.13125730203020 -1.85373518521852  1.86921955685569
 6 -10.00554352455246  1.96409814891489 -1.69070053495350
 6  8.59471571127113  0.49422937913791  0.22621082728273
 6 -8.60199315771577 -0.37219708500850 -0.26482280518052
 6  7.34770333853385  1.37294609490949  0.29872248484848
 6 -7.61656054995500 -1.40121859695970 -0.28247864476448
 6  7.58509155885589  2.76811944914491  0.61371380838084
 6 -7.92074926312631 -2.83991400250025 -0.63404068166817
 6  6.12272617411741  0.81775616461646  0.15632779177918
 6 -6.22819142904290 -1.07323814641464 -0.25512762446245
 6  4.88259891059106  1.45959829172917  0.22912257125713
 6 -5.02637224902490 -1.65495147294729 -0.52694407600760
 6  3.72435114671467  0.73111067626763  0.12120406970697
 6 -3.78836422162216 -1.08070870357036 -0.49562199989999
 6  2.36166946834683  1.36866757445745  0.20074456235624
 6 -2.47318631803180 -1.76567162586259 -0.58264154425443
 6  2.15703007460746  2.81647101360136  0.51691606490649
 6 -2.46503704910491 -3.11439496599660 -0.77585893599360
 6  1.20556210471047  0.60466180778078  0.13312822982298
 6 -1.29304747784778 -1.03135170717072 -0.32102080718072
 6  1.12427679987999 -0.77816276347635 -0.24660217991799
 6  0.03451399099910 -1.60247648744874 -0.38845260126013
 1  13.97587769356936 -0.21791936243624  0.70354839773977
 1  14.13155016881688  0.08954057835784 -1.26337987638764
 1 -12.21040740574057  2.00267265746575  1.94379794459446
 1 -13.91467232483248  1.00547003930393  1.87472391049105
 1  13.99935055705571 -2.33928474617462 -0.69403284908491
 1  12.48096397809781 -2.17364126412641 -1.45378150145014
 1 -14.06268965716572  2.75374873487349  0.48172921052105
 1 -14.06591137493749  1.52925259945995 -0.64300832293229
 1  12.86329829362936 -1.89740224682468  1.54325620762076
 1  11.90639809430943 -3.24221791389139  0.81065792139214
 1 -11.67198699079908  3.40169789048905 -0.15023850685069
 1 -12.59563577747775  2.90099360716072 -1.68615251645165
 1  11.34117748824882 -0.34603768106811 -2.32886101880188
 1  12.76108298899890  0.95488014931493 -2.65296187018702
 1  10.94428199949995  1.26137924962496 -2.40296101560156
 1  12.65826678077808  2.01292819471947  1.08909625012501
 1  11.82670107700770  2.85669558045805 -0.36733089008901
 1  13.59604146044605  2.23624389428943 -0.58025029612961
 1 -13.70169940064006 -0.69505351435144 -0.46803290399040
 1 -13.66380855345535 -1.54377018121812  1.08998621932193
 1 -12.35958356155616 -1.83308171307131 -0.11828771127113
 1 -10.97844033493349  0.07458181878188  2.91682134123412
 1 -10.85155168056806 -1.46767776847685  1.93783779998000
 1 -12.46427049104910 -0.77512198009801  2.89961848994899
 1  10.03787719431943  1.93737859795980  0.60169607750775
 1 -10.36201064576458 -1.66116122612261  0.05305892789279
 1  9.21057513501350 -1.19297689238924  2.13310706830683
 1  10.54645545964597 -2.30104630253025  2.83756518651865
 1  9.57556962416242 -2.65336518651865  1.28950857245725
 1 -9.29908694399440  1.15507782038204 -1.90854335123512
 1 -9.44171897679768  2.87389091109111 -1.04154420062006
 1 -10.47782804780478  2.29327433283328 -2.60163013631363
 1  8.50219581038104 -0.65450623082308  0.26218926852685
 1 -8.00570396559656  0.55290948504851 -0.06293994649465
 1  8.07703093519352  3.01663669956996  1.55771515401540
 1  6.60308218891889  3.08526623082308  0.55832841254125
 1  8.34740897859786  3.24947360936094 -0.01473469636964
 1 -8.40075102730273 -2.91322838193819 -1.66284297789779
 1 -8.76085707400740 -3.12348553585359  0.09924606390639
 1 -7.00713526612661 -3.45073772507251 -0.54325321052105
 1  5.83249411391139 -0.26538176497650  0.20915889918992
 1 -6.14116610121012  0.09357129562956  0.00743046624662
 1  4.84557791509151  2.51076952105211  0.54987789458946
 1 -4.78984908520852 -2.62994651105111 -0.60086222732273
 1  3.67466773347335 -0.40310488038804 -0.03480384198420
 1 -3.67008463966397 -0.04641831193119 -0.22478434513451
 1  2.34844554395440  2.96179657575758  1.75847450275027
 1  1.16910411121112  2.97155788758876  0.39338906640664
 1  2.65714277307731  3.39520999449945 -0.20856482608261
 1 -3.18516038563856 -3.33695205110511 -1.44201921272127
 1 -2.71645325112511 -3.57880987388739  0.34674932633263
 1 -1.42582355365537 -3.49690002440244 -1.10018224462446
 1  0.18365076587659  0.98147406260626 -0.06572592739274
 1 -1.46195728432843  0.10199818701870  0.08978125202520
 1  2.06097464196420 -1.36212526222622 -0.36203576777678
 1  0.11800231103110 -2.47857289958996 -0.59002986388639

