%nproc=4
%Mem=2GB
# td=(NStates=1) B3LYP/6-31G(d,p) 

TD

0 1
 6  12.08806314891489  0.46768736923692 -0.75455157405741
 6 -12.02449476357636 -0.12895793739374  0.91268044694469
 6  13.37394680738074 -0.50062972297230 -0.58984498349835
 6 -12.89701620152015  1.09905429692969  1.42081279567957
 6  13.02896521072107 -1.98704437683768 -0.48998075687569
 6 -13.34263885998600  1.99950846294629  0.17245761286129
 6  11.06288808270827  0.01589585408541  0.19464700250025
 6 -11.00905857365736  0.36963684598460 -0.15825346014601
 6  12.26209064646465 -2.16936923092309  0.69923389968997
 6 -12.09903978657866  2.62496280448045 -0.49503783968397
 6  11.09840954895490 -1.20216227072707  0.86891345974597
 6 -11.09089388358836  1.58732435423542 -0.70959983368337
 6  11.59356994469447  0.51991311641164 -2.22037051565156
 6  12.56761017441744  1.89478353345335 -0.29569108810881
 6 -13.07305489628963 -1.11331845054505  0.23121695159516
 6 -11.38703757175717 -0.73322649624962  2.06153430163016
 6  9.80414847744774  0.86172228582858  0.28254025452545
 6 -9.87467727462746 -0.63088563066307 -0.38437252505251
 6  10.20967514381438 -1.50590040174017  2.08318095299530
 6 -10.00295326552655  2.16161790089009 -1.67324878977898
 6  8.55509174887489  0.53288324452445  0.27891609780978
 6 -8.64075703410341 -0.41402126742674 -0.43708003090309
 6  7.40538910711071  1.43569236953695  0.47211982458246
 6 -7.49047794169417 -1.32113058815882 -0.56815721262126
 6  7.55984903460346  2.85847848504850  0.48528096509651
 6 -7.88306549474948 -2.73061307240724 -0.78804608220822
 6  6.08745264676468  0.84775916491649  0.35565772477248
 6 -6.17738634853485 -0.80869169176918 -0.49120123182318
 6  4.85325597629763  1.47460979287929  0.37302696169617
 6 -5.03658327012701 -1.52860883868387 -0.42883426502650
 6  3.63328203980398  0.77715528072807  0.26507845714571
 6 -3.81508689388939 -1.04404503720372 -0.33332577027703
 6  2.34070737213721  1.34033474117412  0.42011649954996
 6 -2.51052005140514 -1.75596065476548 -0.41629490959096
 6  2.27519189078908  2.80143951045104  0.60091446474647
 6 -2.51174171957196 -3.28816234273427 -0.62308365846585
 6  1.25823737223722  0.55567690929093  0.18718363536354
 6 -1.34245241834183 -1.05343391539154 -0.22886159125913
 6  1.11680605280528 -0.91275622282228 -0.13145066476648
 6 -0.01252071247125 -1.64541078087809 -0.31188494449445
 1  14.09070917671767 -0.34512208270827  0.25806384928493
 1  14.03541055485548 -0.29721809750975 -1.51940547894789
 1 -12.26119248424842  1.65278766896690  2.30519408420842
 1 -13.68718957655766  0.96297578987899  2.18831526962696
 1  14.12098272027203 -2.57823864156416 -0.32129557535754
 1  12.66242212391239 -2.23798769876988 -1.38847497079708
 1 -13.93491687988799  2.79116247624762  0.67875891349135
 1 -13.85591037483748  1.59787946214621 -0.59222324442444
 1  12.86355831963196 -1.98290079667967  1.56338822082208
 1  11.98397585208521 -3.22383607570757  0.90401725732573
 1 -11.53254304640464  3.45684340504050  0.14102061906191
 1 -12.33549976387639  2.86526003380338 -1.45862976417642
 1  11.69488285878588 -0.53282635993599 -2.72179031173117
 1  12.31916879757976  1.08180284158416 -2.70431700570057
 1  10.70619819111911  1.10992410411041 -2.56661738123812
 1  12.50030098419842  1.94230113201320  0.82843018351835
 1  11.78663707060706  2.80033994489449 -0.64224838183818
 1  13.53308516481648  2.19069933983398 -0.67087935903590
 1 -13.36082531323132 -0.50513452245225 -0.51893799449945
 1 -13.99428160076008 -1.41065686988699  0.81314853555356
 1 -12.49314691789179 -2.11897030193019  0.07235135263526
 1 -10.49065155605561 -0.05063070247025  2.46112577167717
 1 -10.99929645504550 -1.79877087778778  1.84349836603660
 1 -11.90075413941394 -0.85641010891089  3.03241176927693
 1  9.99348275487549  1.97167202730273  0.30919682758276
 1 -10.20768521322132 -1.64263937393739 -0.50140651865187
 1  9.64690876837684 -0.63500109480948  2.36624038163816
 1  11.05246606070607 -1.90089628752875  2.80271170117012
 1  9.60952301950195 -2.36901675167517  1.82065168676868
 1 -9.44885192049205  1.14523683628363 -2.05928842574257
 1 -9.32438724362436  2.75220874287429 -0.91111115731573
 1 -10.57168743374338  2.78696370177018 -2.42694266756676
 1  8.33781937273727 -0.56409718991899  0.12476552615262
 1 -8.20511390659066  0.58183237733773 -0.39806345884588
 1  8.12456568866887  3.23278831473147  1.34408379087909
 1  6.63170505120512  3.36879458365837  0.27553013271327
 1  8.23390762846285  3.18064672667267 -0.41786500940094
 1 -8.78319927212721 -2.74790184928493 -1.53483017661766
 1 -8.15222621092109 -3.20374356165617  0.27221336063606
 1 -7.14465901850185 -3.38809146044604 -1.21976086128613
 1  6.13468433293329 -0.34360958775878  0.39675765906591
 1 -6.15793777837784  0.32823476197620 -0.17689796659666
 1  4.83994735203520  2.67762620672067  0.33750665746575
 1 -5.09498959925993 -2.62375589198920 -0.79517165826583
 1  3.67339760646065 -0.29491406130613  0.31084072247225
 1 -3.65441307250725  0.07294362426243 -0.08067993469347
 1  2.90564126352635  3.33497389348935  1.62165082038204
 1  1.17438463926393  3.19003973577358  0.70208993649365
 1  2.67135419421942  3.22113258675868 -0.40993496309631
 1 -2.83542541214121 -3.85016337223722 -1.68811382218222
 1 -2.97540914671467 -3.53149514241424  0.25762041344134
 1 -1.42800377167717 -3.91082141654165 -0.21069329572957
 1  0.26245864666467  1.11506742194219  0.24763540874087
 1 -1.21893298189819  0.08210619781978  0.01835410931093
 1  2.08607715221522 -1.59296834653465 -0.22262182638264
 1  0.07734824562456 -2.76360140244024 -0.41246210711071

