%nproc=4
%Mem=2GB
# td=(NStates=1) B3LYP/6-31G(d,p) 

TD

0 1
 6  12.24788913151315  0.52029262976298 -0.67329344824482
 6 -12.07018933303330  0.03935889428943  1.04663384228423
 6  13.46546595929593 -0.41443110311031 -0.46274227322732
 6 -12.96975347524753  1.24739913141314  1.55251596599660
 6  13.15625793999400 -1.91936760916092 -0.43515527432743
 6 -13.45129972607261  2.01322983508351  0.26436680378038
 6  11.17369916381638  0.00219448394839  0.32238977677768
 6 -11.01204887268727  0.35822570487049 -0.09608724352435
 6  12.38233267066707 -2.22248454245425  0.81236521282128
 6 -12.20038992159216  2.40562087028703 -0.51040937683768
 6  11.17603731173117 -1.19265131963196  0.94524109250925
 6 -11.01808660286028  1.48991461326133 -0.78823769746975
 6  11.75016560426043  0.60640176527653 -2.08650712931293
 6  12.56635004840484  1.86303035813581 -0.13720523952395
 6 -13.08686627742774 -1.01890900960096  0.55954978487849
 6 -11.36910577857786 -0.49601277487749  2.31834998319832
 6  9.90873893649365  0.93535964956496  0.41273327382738
 6 -9.97104691159116 -0.58957149924993 -0.16667075487549
 6  10.11581575787579 -1.63070288198820  1.91277391229123
 6 -10.18704167436744  1.89211095019502 -1.97507897279728
 6  8.67157339703970  0.61731168736874  0.23587179337934
 6 -8.68517147554755 -0.33992385768577 -0.22368869176918
 6  7.33964253245325  1.41542034233423  0.46994960756076
 6 -7.60378927282728 -1.26529500460046 -0.48530892779278
 6  7.56284933463346  2.96903954115412  0.81573401040104
 6 -7.91113830203020 -2.73655366646665 -0.77853513111311
 6  6.19136303780378  0.75109949894990  0.19053121212121
 6 -6.31668027792779 -0.92462328492849 -0.39918202990299
 6  4.83121377207721  1.46586891879188  0.25621528052805
 6 -5.03057266906691 -1.59694567236724 -0.58976035763576
 6  3.71038975057506  0.67348491369137  0.10770271957196
 6 -3.78420380558056 -1.07969860256026 -0.39356179387939
 6  2.39705300670067  1.17692840054005  0.20433492139214
 6 -2.50023902330233 -1.79653471217122 -0.67350063016302
 6  2.23845821742174  2.76832619911991  0.33213758705871
 6 -2.49379992539254 -3.28403192969297 -0.92406375647565
 6  1.16726827532753  0.62212355395540  0.05753067006701
 6 -1.29992816591659 -1.09565813781378 -0.50300900600060
 6  1.12974734693469 -0.84580952815282 -0.20320784048405
 6  0.02465300490049 -1.63131937173717 -0.51164492049205
 1  13.99946005180518 -0.06120369086909  0.45020306320632
 1  14.05162217601760 -0.37744612031203 -1.37504104250425
 1 -12.48504486948695  1.80485287548755  2.34187775257526
 1 -13.87209806740674  0.91735122742274  2.19267570567057
 1  13.92334295629563 -2.70012082978298 -0.79927337313731
 1  12.37607348904891 -2.10925482548255 -1.35497162046205
 1 -13.98913230143014  2.99823318331833  0.52417345494549
 1 -13.87961274507451  1.19797947214721 -0.38514253635363
 1  13.15690765456546 -1.94198670527053  1.69487136913691
 1  11.97207466196620 -3.24589828192819  0.83840069566957
 1 -11.73684347644764  3.43361108180818 -0.07191067406741
 1 -12.58928514241424  2.87166067386739 -1.56179008020802
 1  11.37529089958996 -0.30099317661766 -2.37617575027503
 1  12.53309018971897  0.92372703400340 -2.99861643564356
 1  10.90317788908891  1.12341545324533 -2.03033375287529
 1  13.14712566666667  1.69883678557856  0.73399073957396
 1  11.73865227212721  2.59927983888389 -0.09790394739474
 1  13.56102795909591  2.29373964386439 -0.55443771487149
 1 -14.05860509120912 -0.77930193919392 -0.22501860256026
 1 -13.81670384298430 -1.42411821602160  1.25908312901290
 1 -12.33733133633363 -1.85739414431443  0.17073119061906
 1 -10.49277176807681  0.08205256585659  2.53094275337534
 1 -10.94884140954095 -1.48279928062806  2.04413843004300
 1 -11.97121118511851 -0.49854432233223  3.30743927202720
 1  10.11183459005901  1.96265112521252  0.68233414131413
 1 -10.19207365206521 -1.69576468646865 -0.21729810781078
 1  9.50401447894790 -0.81069866456646  2.11912567016702
 1  10.65693650775077 -1.94693089098910  2.93872530253025
 1  9.52053412061206 -2.41540139013901  1.32277189878988
 1 -9.46155319061906  0.92194450705071 -2.26386888378838
 1 -9.40961576647665  2.54129765176518 -1.57766781298130
 1 -10.53454371937194  2.14952995839584 -2.82611258455846
 1  8.28059365016502 -0.53673445364536 -0.07457440784078
 1 -8.18279167436744  0.58275246934693 -0.05116876937694
 1  8.51033426552655  3.01335637153715  1.46664604710471
 1  6.51459334003400  3.22973067726773  1.20866344604460
 1  7.95097933563356  3.49028769076908  0.02200897799780
 1 -8.72610356255626 -2.83679073817382 -1.50507720132013
 1 -8.40463145144514 -3.02563575087509  0.21372751205121
 1 -7.14027858045805 -3.49155180648065 -0.75882476767677
 1  6.11273213771377 -0.24493972077208  0.29337732103210
 1 -5.93746573117312  0.19286122462246 -0.15561583838384
 1  4.61587494479448  2.45765420952095  0.39896280308031
 1 -4.89168926922692 -2.56800031643164 -0.84980712181218
 1  3.89646991369137 -0.47756232613261 -0.06356671827183
 1 -3.78047567876788  0.13022935283528 -0.12146401310131
 1  2.64664536393639  3.09470986708671  1.28980763606361
 1  1.14607180798080  2.93288402020202  0.32763249074907
 1  2.65827288608861  3.30592106560656 -0.43562753235324
 1 -3.09857172677268 -3.43194155005501 -1.78244325512551
 1 -3.14407601340134 -3.68806079897990  0.00974562596260
 1 -1.51987295859586 -3.64513484788479 -0.92421464786479
 1  0.23161556235624  1.00731664686469 -0.00896025082508
 1 -1.44745583418342  0.00852884008401 -0.39593731983198
 1  2.07754629912991 -1.46425547524752 -0.30058962316232
 1  0.05870638143814 -2.79630467276728 -0.69363022392239

