%nproc=4
%Mem=2GB
# td=(NStates=1) B3LYP/6-31G(d,p) 

TD

0 1
 6  12.12164650725073  0.46533713421342 -0.72154827372737
 6 -12.19788210231023 -0.12559760136014  0.82331151005101
 6  13.41839125182518 -0.40134979497950 -0.68615461446145
 6 -13.02270877077708  1.10857524902490  1.29080979537954
 6  13.13773608780878 -1.90268594099410 -0.47209896869687
 6 -13.33093768986899  2.08932744484448  0.16651701880188
 6  11.02751454535454 -0.08163389888989  0.23727126492649
 6 -11.03120078787879  0.40624050635064 -0.08971660646065
 6  12.39523396079608 -2.05493778777878  0.74827880418042
 6 -12.08797868046805  2.70786109430943 -0.35788412431243
 6  11.11492120012001 -1.15577763226323  0.94929149754976
 6 -10.95054984918492  1.68105372717272 -0.68996787048705
 6  11.61244183188319  0.49198032313231 -2.21426990559056
 6  12.55576899029903  1.90505456055606 -0.27484900390039
 6 -13.20566815761576 -1.18550566926693  0.09611344124412
 6 -11.65092396039604 -0.62762593619362  2.14469261746175
 6  9.85641370397040  0.93342945654565  0.30857285778578
 6 -9.91998180508051 -0.56936947904790 -0.23082717051705
 6  10.12152632893289 -1.51902171387139  2.14550718561856
 6 -9.97343031323132  2.05329706880688 -1.66165763066307
 6  8.60815705540554  0.46250620682068  0.37385559175918
 6 -8.66444940334033 -0.41439130443044 -0.37526384928493
 6  7.40932950115011  1.27798659895990  0.43081569416942
 6 -7.54083297719772 -1.39697817291729 -0.32140253715372
 6  7.66253930363036  2.80971360856086  0.67767020402040
 6 -7.90106729492949 -2.83187319841984 -0.53753103070307
 6  6.23185708720872  0.73188757775778  0.29522168116812
 6 -6.24334294419442 -1.01308213081308 -0.27619973167317
 6  4.90476112681268  1.39996232813281  0.23993365236524
 6 -4.95247485928593 -1.64226020382038 -0.32680406200620
 6  3.71445015661566  0.70926849204920  0.16786873617362
 6 -3.71535692089209 -1.14322495519552 -0.22255469316932
 6  2.34227752915291  1.31379208690869  0.18056254415442
 6 -2.46239523892389 -1.78680373907391 -0.50423370347035
 6  2.29128349995000  2.82100146664666  0.50210458375838
 6 -2.53394393979398 -3.15909943644364 -0.82656400650065
 6  1.23349489798980  0.55678702030203  0.09089400640064
 6 -1.29841801490149 -1.08738731073107 -0.32162086718672
 6  1.07114148634863 -0.72672761996200 -0.31592911261126
 6  0.02482302190219 -1.53424966476648 -0.48352210821082
 1  13.92867297309731 -0.16785435593559  0.32983102600260
 1  14.05315232903290  0.07279890419042 -1.51919545794579
 1 -12.51787815281528  1.63230562076208  2.02741630643064
 1 -13.98063892149215  0.69389888218822  1.58405484358436
 1  14.08795941794179 -2.17874869256926 -0.22007545334533
 1  12.84983086478648 -2.36471037103710 -1.48543466676668
 1 -14.00781416961696  2.98029138913891  0.39993103070307
 1 -13.78691347514752  1.72891256545655 -0.64443846594660
 1  13.10037200100010 -2.01019352595260  1.69410129212921
 1  11.89650710521052 -3.04543823592359  0.80156701230123
 1 -11.54187397949795  3.45326304700470  0.36456297329733
 1 -12.35956217011701  3.34294780258026 -1.30228412961296
 1  11.22382575307531 -0.34327740504050 -2.68339647234723
 1  12.49643652435244  0.95605026632663 -2.84623119711971
 1  10.75950352165216  1.27024013571357 -2.30558127762776
 1  12.82903385748575  2.01420832273227  0.83852119261926
 1  11.65506391329133  2.57892780368037 -0.06407056405641
 1  13.32931478777878  2.37908817871787 -0.92413468456846
 1 -13.53369259996000 -0.69341335033503 -0.88324442514251
 1 -13.88348052065206 -1.55424122832283  0.88776599729973
 1 -12.56202380558056 -2.05225363026303 -0.26099198169817
 1 -11.01298378927893 -0.09485512491249  2.59913957305731
 1 -11.09405593099310 -1.57543854455446  2.05491950815082
 1 -12.41489555355536 -0.82707717561756  2.84599312741274
 1  10.18436184278428  1.86705156525653  0.46468237613761
 1 -10.38280272497250 -1.59524463446345 -0.28744512251225
 1  9.36591066856686 -0.71377897259726  2.43506726432643
 1  10.63864467856786 -1.96069226712671  2.91810324032403
 1  9.52093416061606 -2.32343219321932  1.89571919351935
 1 -9.49971700700070  1.26477879047905 -2.16466896379638
 1 -9.09890469536954  2.50380390239024 -0.92597264346435
 1 -10.38268853385339  3.02870787618762 -2.30675064836484
 1  8.46048163896390 -0.60634141434143  0.14748779837984
 1 -8.23092648784879  0.58696289038904 -0.13851750425042
 1  8.14413764586459  3.02644768066807  1.56918630113011
 1  6.57384926562656  3.24683238743874  0.74080666036604
 1  8.31181541924192  3.07970663266327 -0.25021824472447
 1 -8.31779273147315 -2.88677573667367 -1.64431112471247
 1 -8.56069705800580 -3.18638182548255  0.16406254555456
 1 -7.06372092469247 -3.63376602790279 -0.69008789398940
 1  6.15670653515352 -0.29810503730373  0.02873085638564
 1 -6.06615860046004  0.13710564906491 -0.21022129892989
 1  4.97087044434443  2.48088653275328  0.26209911671167
 1 -5.04563466376638 -2.57614113051305 -0.61920406150615
 1  3.66808707540754 -0.35745031493149 -0.11169153075308
 1 -3.47455508670867 -0.12889655975598 -0.07583945064506
 1  2.61961266066607  3.15559595569557  1.54238289358936
 1  1.21494869566957  3.15287601940194  0.34884461196120
 1  2.81201826062606  3.51578205170517 -0.33416738633863
 1 -2.96636850645065 -3.56962531843184 -1.76864187498750
 1 -3.07861946774677 -3.80707270017002 -0.08528387698770
 1 -1.52568353965396 -3.83567390179018 -0.79837206360636
 1  0.23047544834483  1.19259517471747  0.01139178437844
 1 -1.37049813841384 -0.01314332713271  0.07406968086809
 1  2.09964850935093 -1.20915996569657 -0.63645320952095
 1  0.27743825462546 -2.45518056035604 -0.94557541844184

