%nproc=4
%Mem=2GB
# td=(NStates=1) B3LYP/6-31G(d,p) 

TD

0 1
 6  12.22640698329833  0.49984058455846 -0.85259137803780
 6 -12.15609792389239 -0.13422846444644  0.73805298419842
 6  13.41004041674167 -0.37236689668967 -0.73300929992999
 6 -13.08231473137314  1.05412980448045  1.25733644804480
 6  13.11748406260626 -1.93956962936294 -0.63363512231223
 6 -13.53633822992299  1.95494400650065  0.01849221632163
 6  11.05354714861486  0.03503776827683  0.14369190699070
 6 -11.01420908870887  0.44490437273727 -0.05929356415642
 6  12.19672410981098 -2.24427672167217  0.60815479177918
 6 -12.20540042264226  2.61370167836784 -0.60493882978298
 6  11.14874458245825 -1.19524157865787  0.83902047044704
 6 -11.03634842904290  1.64689031083108 -0.65990486418642
 6  11.60476106380638  0.44018514361436 -2.28229670827083
 6  12.59161257465747  2.00675473057306 -0.50342186118612
 6 -13.05493308410841 -1.24186130483048 -0.06416258635864
 6 -11.72055092309231 -0.85572874647465  2.07946609480948
 6  9.97185524812481  0.87950406400640  0.34553655415542
 6 -9.96841664856486 -0.53576611871187 -0.32825691349135
 6  10.18111228752875 -1.65732554425443  1.82513514841484
 6 -9.95512848304831  2.05825756485649 -1.55154661956196
 6  8.66198243794379  0.52529248544855  0.47676588278828
 6 -8.63439639803980 -0.28859872517252 -0.10306662956296
 6  7.43129169736974  1.40806960726073  0.48685129772977
 6 -7.45103399729973 -1.25248372347235 -0.51018141504150
 6  7.75161821152115  2.86554919211921  0.73603604060406
 6 -7.90602779097910 -2.57983799489949 -0.80140741834183
 6  6.20906480798080  0.89147353635364  0.41733389238924
 6 -6.11324993489349 -0.74006482908291 -0.46051816351635
 6  4.88594924562456  1.50882321422142  0.43956361536154
 6 -5.03397300910091 -1.56430240804080 -0.63832521412141
 6  3.72856156775678  0.66191375657566  0.31863381268127
 6 -3.77245263046305 -1.07546817951795 -0.26144858255826
 6  2.42626592799280  1.29847055475548  0.26038052595260
 6 -2.51129012841284 -1.78599365806581 -0.19238251835184
 6  2.34375874747475  2.80797016351635  0.50284465776578
 6 -2.63171371677168 -3.32446597309731 -0.31808315841584
 6  1.29416096459646  0.57970931253125  0.26414133113311
 6 -1.30354852795280 -1.15266383838384 -0.09890859595960
 6  1.14253862606261 -0.79845479267927  0.07847032733273
 6  0.01188172777278 -1.60968720852085 -0.05212896889689
 1  13.82447255305531 -0.04644221472147  0.26716475937594
 1  14.23509052285229 -0.27562593829383 -1.53948748714871
 1 -12.69521588658866  1.66913930413041  2.17246081088109
 1 -14.21533239083908  0.63163265556556  1.50628706680668
 1  14.09414003600360 -2.46464728242824 -0.42311575737574
 1  12.67452333403340 -2.53310721072107 -1.41936806010601
 1 -14.30180356855686  2.75973933393339  0.19922095969597
 1 -14.04790957475748  1.35156483068307 -0.59253327542754
 1  12.75073703750375 -1.89881238783878  1.71544342634263
 1  11.91917937243724 -3.19555324742474  0.53670052565257
 1 -11.93052284438444  3.53071079177918  0.15706222322232
 1 -12.51503771767177  2.95788929672967 -1.56151005220522
 1  11.21358472897290 -0.64801787908791 -2.52363049574957
 1  12.31662854355435  0.75601026232623 -3.00696727072707
 1  10.86899447074707  1.11691480318032 -2.57249796929693
 1  13.27633858795880  2.22950985288529  0.52862020252025
 1  11.74022242914291  2.62505241614161 -0.44826898389839
 1  13.20468232453245  2.21978224812481 -1.43623589468947
 1 -13.29250848154815 -0.84967897689769 -1.15236133683368
 1 -13.87317949054906 -1.65149095329533  0.50077729842984
 1 -12.56737434063406 -2.23899230413041 -0.31873775627563
 1 -11.17547003790379 -0.11140678007801  2.76779643874387
 1 -11.06906343174317 -1.69584058475848  1.71421543774377
 1 -12.63620768476848 -1.17798226612661  2.56837536563656
 1  10.15200860746075  2.03469832993299  0.32883879177918
 1 -10.23641808650865 -1.64307941794179 -0.40255663366337
 1  9.61850592809281 -0.81717931263126  2.57220097769777
 1  10.55335614971497 -2.46924312221222  2.61612304230423
 1  9.40932299949995 -2.20177002700270  1.31432105370537
 1 -9.39093612891289  1.39007131973197 -2.20722321922192
 1 -9.32859766466647  2.91474499649965 -1.18399844604460
 1 -10.37799806480648  2.84062906830683 -2.27835780908091
 1  8.25938152895290 -0.57294807500750  0.21918496809681
 1 -8.26658005320532  0.85028922302230  0.29179552705270
 1  8.08888212031203  3.11610664656466  1.75216459895990
 1  6.73087496819682  3.28916662086209  0.68092067176718
 1  8.27620185788579  3.38700736273627 -0.08829205210521
 1 -8.87694864706471 -2.55422248134813 -1.51842853645365
 1 -8.21668265656566 -3.03009619691969  0.26549268856886
 1 -7.13892844544454 -3.50980363166317 -1.38107699289929
 1  6.11926279077908 -0.13843907070707  0.26588457175718
 1 -6.06612859745974  0.33066500500050 -0.26651692849285
 1  4.77479083638364  2.56508495259526  0.29690259705971
 1 -5.24184428472847 -2.67902141854185 -0.83355549664967
 1  3.92470273697370 -0.39422399229923  0.49857949634963
 1 -3.81558919011901 -0.01093476357636 -0.13033490019002
 1  2.62715341474147  3.19288968506851  1.52708136343634
 1  1.26195339613961  3.04496522832283  0.44788451595160
 1  2.96667372617262  3.31514198769877 -0.45676964656466
 1 -2.71970383998400 -3.22153050895089 -1.60859587038704
 1 -3.43186479227923 -3.74816680958096  0.36933158455846
 1 -1.62614358565857 -4.02423275767577 -0.20828305470547
 1  0.28960136093609  1.11085700090009  0.34032467766777
 1 -1.34505559415942 -0.10351236403640 -0.34804253035304
 1  2.05421396589659 -1.43857290699070  0.06104654045405
 1  0.26566707750775 -2.69414445674567 -0.06912777367737

