%nproc=4
%Mem=2GB
# td=(NStates=1) B3LYP/6-31G(d,p) 

TD

0 1
 6  12.18874321692169  0.43598419891989 -0.58275439433943
 6 -12.13512582668267 -0.21388643024302  0.91769094799480
 6  13.56077549024902 -0.38017767776778 -0.25431143014301
 6 -12.99581608150815  0.96603099459946  1.44332504690469
 6  13.34258657285729 -1.94161983438344 -0.15475723452345
 6 -13.47317191329133  1.81810032213221  0.30406077317732
 6  11.00764255815582 -0.02466820232023  0.29402694049405
 6 -11.10898856665666  0.30308019031903 -0.08373600840084
 6  12.33958839623962 -2.12666496049605  1.05538951525153
 6 -12.25680556315631  2.50638094629463 -0.33656199209921
 6  11.15176488448845 -1.24648670317032  0.98154472287229
 6 -11.18651344554455  1.65311093289329 -0.55617449114912
 6  11.82041262896290  0.13477460256026 -2.11764024262426
 6  12.47412082548255  1.90195425052505 -0.40275179417942
 6 -13.06517410821082 -1.25677279597960  0.22175600550055
 6 -11.41832070007001 -0.88283145674567  2.09445759395940
 6  9.88385644824483  0.80125623922392  0.35016701720172
 6 -9.99851965886589 -0.62151469356936 -0.29863395119512
 6  10.07810198649865 -1.68942875457546  1.94825746064606
 6 -10.11194416461646  2.20073181228123 -1.59912137703770
 6  8.58374461416142  0.46634659085909  0.13402160836084
 6 -8.66141910031003 -0.39440930623062 -0.18665498839884
 6  7.39612818101810  1.29995879617962  0.31043365596560
 6 -7.50578947284728 -1.30049852495250 -0.35192558945895
 6  7.65479852955296  2.84887752495250  0.43401583858386
 6 -7.80151733993399 -2.70037004810481 -0.70043732133213
 6  6.14539844134413  0.78028241724172  0.11735389438944
 6 -6.22795140504050 -0.63434425702570 -0.30509262096210
 6  4.85606625732573  1.39685201710171  0.26418607760776
 6 -5.02740235203520 -1.48342432023202 -0.49557093869387
 6  3.75218392999300  0.66940450565056 -0.05221327202720
 6 -3.74692007720772 -0.92662329502950 -0.32194463216322
 6  2.45291859325933  1.38054876257626  0.11072556045605
 6 -2.53709270867087 -1.58891395009501 -0.52193547364736
 6  2.40850522212221  2.83309267576758  0.43311768506851
 6 -2.56415696109611 -3.08741226772677 -0.78391974207421
 6  1.29542109060906  0.76199754135414 -0.02721780478048
 6 -1.42853102620262 -0.85001357335734 -0.29197790289029
 6  1.10995536773677 -0.66962190939094 -0.49653717341734
 6 -0.05746520692069 -1.39540578037804 -0.59339309530953
 1  14.01773187898790 -0.06592416291629  0.65127317021702
 1  14.27925493929393 -0.10056843254326 -1.14969850825082
 1 -12.33028939393939  1.47803019321932  2.18194175897590
 1 -13.86482734033403  0.36369586188619  1.93451989008901
 1  14.32223284528453 -2.47837865556556  0.05110166436644
 1  13.06958283998400 -2.09547344734473 -1.25910203350335
 1 -14.31960534873487  2.70293365336534  0.69449048664867
 1 -14.18453323712371  1.53330300450045 -0.52719674177418
 1  12.84799676347635 -1.80321282788279  2.15627750975097
 1  11.98600605510551 -3.26784047614761  1.09707656325632
 1 -11.96609640174017  3.44626234693469  0.32617913491349
 1 -12.36696291019102  2.92440594839484 -1.17430133133313
 1  11.80360373087309 -1.03999707700770 -2.42632076477648
 1  12.68427530823082  0.48005266656666 -2.74523109710971
 1  10.93922149344935  0.74448756045605 -2.31113183268327
 1  12.42711366546655  2.09026592849285  0.80627796829683
 1  11.73251165806581  2.72142205310531 -0.69435359235924
 1  13.49432128842884  2.16610688058806 -0.78818108920892
 1 -13.57367659835984 -0.89613362236224 -0.87828392909291
 1 -13.69724189678968 -1.61792759695970  0.96661388208821
 1 -12.31607921112111 -2.18529693459346 -0.10265614811481
 1 -10.72266475737574 -0.24935057445745  2.73281294039404
 1 -10.71620814621462 -1.86054705540554  1.74927894409441
 1 -12.16833089708971 -1.31448591649165  2.77769629772977
 1  10.11495490209021  2.02903776387639  0.45726163406341
 1 -10.34949939463946 -1.68124323432343 -0.52279865786579
 1  9.27229130663066 -0.69150674537454  2.06444020162016
 1  10.64579539363936 -1.88331452935294  2.95528695869587
 1  9.69954202140214 -2.62319216921692  1.34968459005901
 1 -9.25634266956696  1.40085239783978 -1.78268076497650
 1 -9.63992879777978  3.06322984498450 -1.21826187238724
 1 -10.45769603460346  2.44802980838084 -2.63453342664266
 1  8.31577716851685 -0.53934471467147  0.04842789238924
 1 -8.60174356955696  0.57276147024702  0.08953530103010
 1  8.41239447154715  3.05874090999100  1.29718910141014
 1  6.74950683138314  3.30268797299730  0.13639621932193
 1  8.45485972367237  3.02393105510551 -0.45581880478048
 1 -8.70597154935494 -2.97589464856486 -1.32878957255726
 1 -8.13476446474647 -3.16947013431343  0.16113225252525
 1 -7.04702925552555 -3.34502715401540 -1.19133801900190
 1  6.09964082858286 -0.37120234703470 -0.29760177687769
 1 -6.05991797639764  0.34900683918392  0.09109883308331
 1  4.80145350265026  2.41452989708971  0.46052895969597
 1 -5.08429853015302 -2.41925544194419 -0.72428456955696
 1  3.73982424912491 -0.30090466036604 -0.34823518511851
 1 -3.73680131133113  0.22997932783278 -0.18457032373237
 1  2.62269296869687  3.15723611971197  1.59189784508451
 1  1.25621282208221  3.23849458125813  0.42586231373137
 1  2.83853091189119  3.65009548304830 -0.29173314291429
 1 -3.24555642524252 -3.43948230413041 -1.73712872367237
 1 -2.71791339713971 -3.34210620352035  0.04526917831783
 1 -1.46641761306131 -3.41680201460146 -1.28978120452045
 1  0.29720212101210  1.27090300550055 -0.11082043684368
 1 -1.36376746534653  0.22446043324332 -0.01211893799380
 1  2.06640518501850 -1.02414146384638 -0.40737030123012
 1 -0.17267675687569 -2.47552259455946 -0.83179404030403

