%nproc=4
%Mem=2GB
# td=(NStates=1) B3LYP/6-31G(d,p) 

TD

0 1
 6  12.03227757035704  0.47212781328133 -0.68666478537854
 6 -12.10300261436144 -0.01129617121712  0.82199137803780
 6  13.39013842654266 -0.28501816181618 -0.70089608860886
 6 -13.09125562546255  1.19582397389739  1.24938565296530
 6  13.13223553775378 -1.74065973837384 -0.72953471227123
 6 -13.41136573267327  2.02490100220022  0.08095846294629
 6  10.92316411031103 -0.06862259775978  0.29243678147815
 6 -11.00090775857586  0.42129201150115 -0.12634026882688
 6  12.33393783118312 -2.21071336533653  0.58819279557956
 6 -12.20391027362736  2.68454876307631 -0.57984632053205
 6  11.06226593459346 -1.24367642214221  0.85648221662166
 6 -11.10832562676268  1.59456507830783 -0.75356423012301
 6  11.49400998869887  0.60340146524652 -2.08160663926393
 6  12.34704811821182  1.97615167026703 -0.40188170717072
 6 -13.01137872867287 -0.98770588928893  0.03455728562856
 6 -11.55219408740874 -0.76352952655266  2.12945109330933
 6  9.80100816341634  0.88191430503050  0.47597959845985
 6 -9.84242404930493 -0.57574011611161 -0.20327441524152
 6  10.08555273157316 -1.83724353605361  1.88644127902790
 6 -10.05925889608961  2.04276601570157 -1.80125159005901
 6  8.49906614631463  0.48962891909191  0.37041524772477
 6 -8.43937689608961 -0.24718458375838 -0.21083740664066
 6  7.35206377457746  1.32297109740974  0.48421103370337
 6 -7.42087098099810 -1.26746522162216 -0.37468786568657
 6  7.70437348704870  2.83772640984098  0.66486892389239
 6 -7.85139232743274 -2.72411242234223 -0.61701897949795
 6  6.11431533303330  0.82477686668667  0.33108526752675
 6 -6.12827143704370 -0.91457227982798 -0.25833794549455
 6  4.90356100680068  1.50577290919092  0.39695935493549
 6 -4.92487209900990 -1.67975395319532 -0.32873425502550
 6  3.71651036263626  0.76825439063906  0.29151110041004
 6 -3.69537492269227 -1.11565219791979 -0.22420485818582
 6  2.37678097949795  1.31541224892489  0.21578606650665
 6 -2.36937593699370 -1.83663872257226 -0.28091137123712
 6  2.25378975057506  2.83820318681868  0.37314168746875
 6 -2.43343388878888 -3.31303482998300 -0.66632798289829
 6  1.24554610311031  0.51755309690969  0.10874579157916
 6 -1.21330950405040 -1.10906947894789 -0.15844454955496
 6  1.22720709290929 -0.95978092529253 -0.00689820952095
 6  0.15005554515452 -1.70187642744274 -0.23622737873787
 1  13.65674578037804  0.18501093059306  0.29097714061406
 1  14.12997001080108  0.12973459775978 -1.37701123952395
 1 -12.58445481048105  1.79333172337234  1.89352291709171
 1 -14.03337419501950  0.63069256155616  1.65750218831883
 1  14.14179480148015 -2.22083290099010 -1.08894234003400
 1  12.26589247094709 -1.84198809880988 -1.62804892819282
 1 -14.22717610581058  2.74054741474147  0.44693573117312
 1 -13.98557334113412  1.41967164136414 -0.80412443454345
 1  13.10417238103810 -2.31634414101410  1.37621950395040
 1  11.87863531803180 -3.15153884598460  0.32626948254825
 1 -11.97959775187519  3.52265998669867 -0.07578106110611
 1 -12.50252646654666  2.94753826162616 -1.65154905610561
 1  11.43451682218222 -0.38491156845685 -2.46621475417542
 1  12.25468234893489  1.05786044734473 -2.82737931193119
 1  10.62218979027903  1.00334344604460 -2.28261898139814
 1  12.70322127622762  2.26668357025703  0.62004934543454
 1  11.37573598049805  2.72461237213721 -0.24248840584058
 1  13.02437429372937  2.36253652355235 -1.12724499559956
 1 -13.55886511721172 -0.47530153915392 -0.65317141784178
 1 -13.69700187278728 -1.45749155335534  0.73339055975598
 1 -12.35316291949195 -1.70340874577458 -0.61853773627363
 1 -10.90290278117812 -0.06323196259626  2.78929858895890
 1 -10.81439796519652 -1.70703170387039  1.82523653985398
 1 -12.60130419441944 -1.10352482038204  2.56690521862186
 1  9.92723613021302  1.80528538863886  0.61957786568657
 1 -10.22883732843284 -1.60950606060606 -0.39348572657266
 1  9.49429350685069 -1.13425101980198  2.35778953655365
 1  10.56599741384138 -2.75784198209821  2.57381881188119
 1  9.29252131933193 -2.60059990999100  1.35357497909791
 1 -9.35065210051005  1.15949826242624 -1.96140863776378
 1 -9.34494929982998  2.77736125812581 -1.35334538073807
 1 -10.43347361236124  2.53739874527453 -2.58071804510451
 1  8.33395898669867 -0.65208598879888  0.35902895249525
 1 -8.09012240744074  0.82387658175818  0.07101344884488
 1  8.26289952205221  2.92643767966797  1.41002038453845
 1  6.66668854955496  3.24525222942294  0.90407298699870
 1  8.10316455415542  3.24729339133913 -0.37532075497550
 1 -8.54970592279228 -2.74893195229523 -1.61940863446345
 1 -8.44782577087709 -3.12982616991699  0.20636677597760
 1 -6.79752430503050 -3.19078172947295 -0.63955284048405
 1  6.21767263176318 -0.24323955075508 -0.11944396109611
 1 -6.09055103970397 -0.00797885938594  0.17644736793679
 1  4.71131448874887  2.43767221132113  0.47378028482848
 1 -5.18805890619062 -2.80106362276228 -0.89454159525953
 1  3.96271653835383 -0.34587915781578  0.27095673407341
 1 -3.67242487368737 -0.08405207530753 -0.10007187388739
 1  2.73318401780178  3.32397279337934  1.31267992329233
 1  1.29709691049105  3.25551628342834  0.53107283478348
 1  2.84924198299830  3.26423689718972 -0.65279924952495
 1 -3.05859772937294 -3.17642599849985 -1.59228423922392
 1 -2.99762136793679 -3.88744073697370  0.12145679707971
 1 -1.69885085638564 -4.00683101750175 -0.68659088548855
 1  0.24817721852185  0.93845976117612  0.13594423962396
 1 -1.42578366696670  0.05008299549955  0.03081535543554
 1  2.08648719321932 -1.46969601930193  0.08324876067607
 1  0.09377988878888 -2.88438348064806 -0.54263512441244

