%nproc=4
%Mem=2GB
# td=(NStates=1) B3LYP/6-31G(d,p) 

TD

0 1
 6  12.14650899349935  0.61597219771977 -0.70346646554655
 6 -12.02812512661266  0.01030598899890  0.71004018291829
 6  13.42513192589259 -0.21143080308031 -0.50840683968397
 6 -12.95465196509651  1.22055644714471  1.21127184158416
 6  13.16447876207621 -1.75315098749875 -0.69555131393139
 6 -13.33493808990899  1.98747725982598 -0.05019465236524
 6  11.01573336723672 -0.00384612011201  0.10607814561456
 6 -10.99020668846885  0.48167805010501 -0.22046968176818
 6  12.23845828322832 -2.18404069806981  0.51959593589359
 6 -12.13790367296730  2.65655596379638 -0.67131546744674
 6  11.10126983498350 -1.20515256975698  0.72483905230523
 6 -10.95139993419342  1.66483210501050 -0.87286616031603
 6  11.64517510521052  0.75839696479648 -2.30879935853585
 6  12.50133354675468  1.99442349744975 -0.21417293629363
 6 -12.89718730953095 -1.14307142584258  0.10072390229023
 6 -11.51147001500150 -0.58921209480948  1.97514566276628
 6  9.84671273387339  0.88851496509651  0.29053105360536
 6 -9.95469527642764 -0.57689023112311 -0.28278236603660
 6  10.01342551885189 -1.94330414211421  1.50688332323232
 6 -9.92584555475548  2.07165890499050 -1.80533199809981
 6  8.55663190289029  0.46874683088309  0.17335554175418
 6 -8.60811376977698 -0.27003686898690 -0.28001432433243
 6  7.37771633983398  1.38537733803380  0.43434604720472
 6 -7.56952584648465 -1.33979245434543 -0.35837623452345
 6  7.63435648534854  2.81289392659266  0.97548998599860
 6 -7.96191337953795 -2.79893990509051 -0.69733701130113
 6  6.24268817031703  0.80231462046205  0.16054821382138
 6 -6.23882249214921 -0.90937175977598 -0.09099121082108
 6  4.88729938063806  1.35563789568957  0.36987664666467
 6 -5.04747435923592 -1.68222420022002 -0.21932331393139
 6  3.65659437103710  0.72583014821482  0.24342629192919
 6 -3.74739012421242 -1.18010864356436 -0.10632307000700
 6  2.32537583898390  1.27423813151315  0.43926841474147
 6 -2.54135313471347 -1.89801486018602 -0.21738501860186
 6  2.20099447104710  2.73077244374437  0.56900127342734
 6 -2.60965151055106 -3.39174270077008 -0.34848619871987
 6  1.26514806330633  0.45003634523452  0.26726164316432
 6 -1.40701887498750 -1.12132070407041 -0.10742944804480
 6  1.20259463166317 -0.89357430463046  0.06894937523752
 6 -0.04532399279928 -1.61569780958096 -0.08602235823582
 1  13.86228633443344 -0.04179174967497  0.57828587148715
 1  14.25517253105311  0.17450907520752 -1.18866240464046
 1 -12.48399476447645  1.85592798299830  2.11418498329833
 1 -13.88030888848885  0.69253874617462  1.63111955005501
 1  14.03799442144214 -2.34340515821582 -0.67996144194419
 1  12.66510239193919 -1.79593349334933 -1.74705082838284
 1 -13.89600298849885  2.88505186518652  0.08548958655866
 1 -14.06134091789179  1.58121779597960 -0.90257427952795
 1  12.89325128892889 -2.33370587718772  1.35538742074207
 1  11.75637309180918 -3.18865255735574  0.34707156275628
 1 -11.95446523862386  3.48468618931893  0.00671718871887
 1 -12.52767898179818  2.85336884468447 -1.86633053425343
 1  11.37987135763576 -0.17286036333633 -2.65693382608261
 1  12.31854873557356  1.10332499379938 -2.88856543054305
 1  10.75424299559956  1.51415452715272 -2.31770248974897
 1  12.92208316241624  2.09980688258826  0.68490583108311
 1  11.72655106200620  2.55839575047505 -0.38685284228423
 1  13.23177503380338  2.55694596449645 -1.01666393749375
 1 -13.20912014271427 -0.79556356535654 -0.89753585428543
 1 -13.68018019061906 -1.57191299549955  0.79772699339934
 1 -12.37241484468447 -2.07068547344734 -0.11474735723572
 1 -10.72716520742074  0.05976033663366  2.47636729582958
 1 -10.86342286768677 -1.32275327602760  1.97302131833183
 1 -12.11413547754776 -0.75185965386539  2.69363789188919
 1  9.96358976557656  1.93727858795880  0.48881478937894
 1 -10.37110155485549 -1.57891300130013 -0.46339271727173
 1  9.38940301780178 -1.30803839853985  2.09862361996200
 1  10.54695550965097 -2.55496169406941  2.34562599259926
 1  9.45983805100510 -2.71596144614461  1.10756037763776
 1 -8.90453748904890  1.45621793439344 -2.03895639253925
 1 -9.41320612551255  3.01910543254325 -1.42265231143114
 1 -10.55202546754676  2.24838984438444 -2.61683165646565
 1  8.28878446924692 -0.62028280848085  0.06064911451145
 1 -8.07416081128113  0.58911310541054 -0.19807345984598
 1  8.42735596769677  2.69760479637964  1.81602098459846
 1  6.67192907360736  3.11226893109311  1.22580516021602
 1  8.05952018971897  3.55574423642364  0.08922569966997
 1 -8.49635058725873 -3.02344940404040 -1.45193188678868
 1 -8.59129011731173 -3.09266245354535  0.11830797009701
 1 -7.07868242084208 -3.55469812111211 -0.68448733393339
 1  6.31820268476848 -0.29361458825883 -0.45369738643864
 1 -6.14502648724872  0.24902684118412  0.46597632083208
 1  4.80657401470147  2.41381982608261  0.86752965976598
 1 -5.28904900520052 -2.61875539193919 -0.36331847294729
 1  3.56920718741874 -0.38624319421942 -0.13150351195120
 1 -3.63396102730273 -0.14426809690969  0.02680081338134
 1  2.50352105150515  3.21434183028303  1.54534318961896
 1  1.15933313411341  3.08531926372637  0.54793452095210
 1  2.72753981278128  3.41750222372237 -0.06757072667267
 1 -3.01860372997300 -3.62510086598660 -1.35570058085809
 1 -3.14755636143614 -3.88022001490149  0.54422907430743
 1 -1.48172914421442 -3.69219955435544 -0.14349657605761
 1  0.41663406420642  0.99432534773477  0.31199184438444
 1 -1.32450353895390  0.07384537173717 -0.00901862796280
 1  2.17710625512551 -1.60521957165717 -0.26259582378238
 1  0.11572208300830 -2.68252329462946  0.00255939503950

