%nproc=4
%Mem=2GB
# td=(NStates=1) B3LYP/6-31G(d,p) 

TD

0 1
 6  12.22811715431543  0.55051565206521 -0.76265238413841
 6 -12.27767008110811 -0.11879692129213  0.70272945184518
 6  13.51545095779578 -0.36593625362536 -0.68358435743574
 6 -13.16481298119812  1.02703709520952  1.08088880328033
 6  13.22944525872587 -1.78158383078308 -0.56180793959396
 6 -13.53063765986599  1.99035754785479 -0.05483511641164
 6  11.09973176707671  0.01780604510451  0.14819235703570
 6 -10.96989465726573  0.45589547184718 -0.00756839163916
 6  12.43025746314632 -2.09402169616962  0.61203517981798
 6 -12.23178306090609  2.66354666286629 -0.54973330923092
 6  11.23823353135313 -1.16063811831183  0.88399496789679
 6 -11.04686948114811  1.68831445324532 -0.65514438813881
 6  11.68747933563356  0.55602672777278 -2.19598807740774
 6  12.69420283368337  1.95960001510151 -0.36721824082408
 6 -13.06826441724172 -1.23568068676868 -0.06654282438244
 6 -11.74135300330033 -0.74938811241124  2.05259340754075
 6  9.92036009860986  0.98009412301230  0.31080308080808
 6 -9.96298610551055 -0.49510205230523 -0.17308139593959
 6  10.26504068036804 -1.56874668636864  1.92364499939994
 6 -9.94015698589859  2.10234197329733 -1.63499496439644
 6  8.69032527222722  0.48363832003200  0.27312551875188
 6 -8.65076803520352 -0.14999486478648 -0.18065438833883
 6  7.50511908010801  1.30005880618062  0.32305491809181
 6 -7.54754364826483 -1.19964843994399 -0.31007140404040
 6  7.70543359305931  2.81902453965397  0.55451788878888
 6 -8.04658184638464 -2.63871388248825 -0.59137641524152
 6  6.17848174967497  0.70590497949795  0.32389454845485
 6 -6.21648025792579 -0.89077990059006 -0.14542665436544
 6  4.94158480918092  1.34094642654265  0.51083074207421
 6 -5.08803841564156 -1.66670264806481 -0.32728411001100
 6  3.73847255885589  0.65358292349235  0.26587853715372
 6 -3.78700408560856 -1.15040567326733 -0.19240167786779
 6  2.43896719811981  1.19279998769877  0.29337382528253
 6 -2.59889888928893 -1.74894995369537 -0.34130741084108
 6  2.27552192379238  2.55822518901890  0.57290166346635
 6 -2.57272781818182 -3.23848737523752 -0.73738508860886
 6  1.29777132563256  0.44768611021102  0.24979989698970
 6 -1.42638081118112 -1.06393496549655 -0.17262596769677
 6  1.10001437363736 -0.88976392359236 -0.07076459615962
 6 -0.11520098049805 -1.58799503930393 -0.13465722172217
 1  14.17472757855786  0.08778120762076  0.11714975787579
 1  14.21001801560156 -0.08089646534653 -1.47013055145515
 1 -12.56264262926292  1.61026341654165  1.79960352515251
 1 -14.20504136173617  0.61292078437844  1.46491292939294
 1  13.98971959395940 -2.29767058475848 -0.76112955875588
 1  12.52601848354836 -2.06728062806281 -1.50891701500150
 1 -14.39352274047405  2.85981934193419  0.17088812641264
 1 -13.99054383818382  1.25694536873687 -0.95244926702670
 1  13.12580454425443 -1.71937444404440  1.57928981098110
 1  11.94272172667267 -3.06594028612861  0.66712356795680
 1 -11.78778857095710  3.40427814851485  0.20063658065807
 1 -12.29109532343234  3.22928643644364 -1.50110401160116
 1  11.70269363986399 -0.45247832513251 -2.70641877457746
 1  12.24870175087509  1.29172383368337 -2.72697927192719
 1  10.59642721402140  0.91383449514952 -2.11506222572257
 1  12.94626558065807  1.84487138903890  0.62452979347935
 1  11.84692309920992  2.83613352425242 -0.35983014001400
 1  13.59788164446445  2.31166143604360 -0.86264853595360
 1 -13.27651688238824 -0.85255926492649 -1.16103220392039
 1 -14.13032520512051 -1.55808161236124  0.49073629432943
 1 -12.38451605480548 -1.96255466036604 -0.14662054455446
 1 -11.23438592949295  0.04536889748975  2.58106776587659
 1 -11.21949847524752 -1.62779378007801  1.59126314251425
 1 -12.62328639263926 -1.13109757765777  2.60231875997600
 1  9.93225663226323  2.07059191929193  0.24421032893289
 1 -10.29298374307431 -1.55809091909191 -0.40226660466047
 1  9.71003508100810 -0.73875146984698  2.45746950455046
 1  10.77432824692469 -1.88692489038904  2.92828425842584
 1  9.62049411661166 -2.50865071507151  1.67775739733973
 1 -9.24263129842984  1.27311962456246 -2.09355185208521
 1 -9.28408321322132  2.94930845284528 -1.02824287048705
 1 -10.36755702070207  2.70438544394439 -2.44659463276328
 1  8.49158474927493 -0.70334111431143  0.01743479307931
 1 -8.24429782498250  0.86360055415542 -0.08833248574857
 1  8.04569780188019  2.92287732363236  1.56077546004600
 1  6.65985786648665  3.27665536973697  0.41876445614561
 1  8.45311954965497  3.23451211321132 -0.10042326522652
 1 -8.55454640684068 -2.97399445854585 -1.67845453905391
 1 -8.52278326662666 -2.86607979527953  0.44305044434443
 1 -7.02806735933593 -3.11078372967297 -0.36681556675668
 1  6.29454031853185 -0.49483471027103 -0.01394341104110
 1 -6.00877286188619  0.10695263376338  0.25487521072107
 1  4.81260461776178  2.46100454455446  0.53487639443944
 1 -5.11560166046605 -2.81023453985398 -0.69880202130213
 1  3.96509677637764 -0.41147571747175 -0.16524688628863
 1 -3.78664629582958 -0.09127279737974  0.04191232453245
 1  2.67681838123812  2.74705510161016  1.57768642394239
 1  1.28610581138114  3.07882861466147  0.46261598909891
 1  2.91444850365037  3.07884835833583 -0.26555052465247
 1 -3.40400226982698 -3.40237859375938 -1.56765177597760
 1 -3.02552415821582 -3.91325331823182  0.07861251265127
 1 -1.70643161446145 -3.66786712111211 -1.39301152755276
 1  0.15972837363736  0.89115503070307  0.34492513771377
 1 -1.41981306990699 -0.03040505330533 -0.03818154425443
 1  2.02344088858886 -1.74337338703870 -0.15041460566057
 1 -0.12563205240524 -2.63134817711771 -0.31864272517252

