%nproc=4
%Mem=2GB
# td=(NStates=1) B3LYP/6-31G(d,p) 

TD

0 1
 6  12.13328767136714  0.53664426492649 -0.68964508340834
 6 -12.13045535963596 -0.01089613121312  0.89085826472647
 6  13.57377679037904 -0.20587024702470 -0.41418741774177
 6 -12.97900440034003  1.16086047754775  1.26443715811581
 6  13.27562987718772 -1.68012368476848 -0.46996875567557
 6 -13.40449504560456  2.05603411551155  0.09119948704870
 6  11.08799059295930  0.00972523702370  0.16869440724072
 6 -11.07158482628263  0.46200608290829 -0.13022065686569
 6  12.42623706110611 -2.08834112811281  0.69307328362836
 6 -12.14341422402240  2.56679698789879 -0.54460279617962
 6  11.15425513351335 -1.15653770827083  0.74752132053205
 6 -11.04265906010601  1.67075269706971 -0.77534640834083
 6  11.74015460316032  0.54837596269627 -2.25741422002200
 6  12.43281669506951  2.10403445854585 -0.26311783078308
 6 -13.02645023582358 -1.04779189788979  0.23934776467647
 6 -11.48755762376238 -0.54542771637164  2.17201534973497
 6  9.93732179477948  0.83852996659666  0.30056205670567
 6 -9.99817962486249 -0.59391193329333 -0.26740082788279
 6  10.19164334063406 -1.72481229292929  1.70341297619762
 6 -10.04494746494650  2.09041078017802 -1.76429789468947
 6  8.62429866956696  0.53541349754975  0.29991819801980
 6 -8.62293525192519 -0.35694555985599 -0.21517784068407
 6  7.42244081228123  1.33359215951595  0.41682429502950
 6 -7.57506640054005 -1.31957043214321 -0.39279967686769
 6  7.60795384508451  2.76113875107511  0.73538597559756
 6 -7.89418660686069 -2.75950596169617 -0.63638091569157
 6  6.22903680518052  0.78414280328033  0.34877703670367
 6 -6.22772138203820 -0.80601142374237 -0.39226133783378
 6  4.89144979567957  1.27817014891489  0.25426508550855
 6 -5.07070668246825 -1.55252122992299 -0.55847722932293
 6  3.77427613921392  0.52593015821582  0.21301325062506
 6 -3.80942632783278 -1.09940057275728 -0.37447988568857
 6  2.37172047344734  1.15573628132813  0.28712320022002
 6 -2.53997299669967 -1.87253231193119 -0.43399667976798
 6  2.21644601620162  2.59949931643164  0.56987136043604
 6 -2.60797134253425 -3.35475900240024 -0.68865021512151
 6  1.26077762626263  0.45665700730073  0.16236115311531
 6 -1.46046421952195 -1.20724929692969 -0.09374807990799
 6  1.02875724792479 -0.93323827102710 -0.00242776247625
 6 -0.09026848724872 -1.65034127392739 -0.16461021702170
 1  14.16464657045705 -0.01769934043404  0.46720476337634
 1  14.24418143194320  0.06953857815782 -1.29757329572957
 1 -12.42822918791879  2.06731912211221  2.06493005780578
 1 -13.91599245684569  0.80590008230823  1.72842928102810
 1  14.31922254425443 -2.22291310901090 -0.45880932673267
 1  12.83507938963896 -2.13950785078508 -1.48572469576958
 1 -13.94521790999100  3.12655601560156  0.61172220982098
 1 -13.97871265506551  1.45059473367337 -0.49478350045004
 1  13.04688665246525 -1.82023453005300  1.50928281028103
 1  12.15031248574858 -3.14809850195019  0.60964782038204
 1 -11.60865065716572  3.48925664636464  0.08659517651765
 1 -12.39416563046305  3.16661016881688 -1.42887678887889
 1  11.45848921942194 -0.59658273557356 -2.52005013771377
 1  12.48420530123012  1.32222688398840 -2.68349492349235
 1  10.63188075937594  0.95869898159816 -2.31336205570557
 1  12.58076903100310  2.18840574247425  0.74889222972297
 1  11.54874328122812  2.81474138503850 -0.63991814881488
 1  13.38098995529553  2.65968623852385 -0.72360463156316
 1 -13.57242647334733 -0.71012502150215 -0.74158025872587
 1 -13.73243541614161 -1.23471927612761  1.06667388808881
 1 -12.20209781298130 -1.88776718161816 -0.17200308280828
 1 -10.77336982788279  0.19303366396640  2.63223288238824
 1 -10.77785431083108 -1.42491349204920  2.06957097329733
 1 -12.40255431943194 -0.75478994689469  2.83573210131013
 1  9.98576198279828  1.99323418351835  0.10387629552955
 1 -10.38331277597760 -1.65359046904690 -0.39875625362536
 1  9.55955003250325 -0.65872346704670  1.94160791839184
 1  10.72924373847385 -1.97638383628363  2.68093952395240
 1  9.43950601780178 -2.32810266026603  1.36271589318932
 1 -9.35725276057606  1.19841215381538 -1.96833933083308
 1 -9.37384218911891  2.99364288628863 -1.48391843804381
 1 -10.66805707070707  2.35812081748175 -2.74746471977198
 1  8.38254384518452 -0.45282606280628 -0.07551450185018
 1 -8.11557495269527  0.77682187628763 -0.31916556905691
 1  8.37451068316832  3.02440747664766  1.52722210471047
 1  6.62912479317932  3.26770447464746  1.05608818851885
 1  7.96820105780578  3.38520718271827 -0.05959918281828
 1 -8.52114306650665 -2.83026008510851 -1.58316501010101
 1 -8.47585857415742 -3.23015620292029  0.10208634793479
 1 -6.89182373497350 -3.41790444174418 -0.77456634183418
 1  6.33820468496850 -0.27603283008301  0.18985696899690
 1 -6.08258024262426  0.34745668416842 -0.09920019681968
 1  4.80893425072507  2.35755419951995  0.25056796359636
 1 -5.13435353565357 -2.75592910931093 -0.57917005810581
 1  3.92541280798080 -0.49361393129313 -0.09261962356236
 1 -3.60051768296830 -0.08266193629363 -0.47781964866487
 1  2.69118981838184  3.00984138023802  1.57157581288129
 1  1.24320152095210  2.69920065186519  0.67800752825283
 1  2.51599865866587  3.12883335683568 -0.45815978557856
 1 -3.01308317791779 -3.61759011491149 -1.84361937273727
 1 -3.59402100790079 -3.80706269916992  0.04504915631563
 1 -1.72124309560956 -3.86165650005000 -0.62692491889189
 1  0.26423882468247  1.02548846404641  0.00069071427143
 1 -1.54082517111711 -0.10687270007001 -0.03411113721372
 1  1.94373291779178 -1.46308535823582 -0.01632119631963
 1  0.15693620442044 -2.79664470677068 -0.12412327322732

