%nproc=4
%Mem=2GB
# td=(NStates=1) B3LYP/6-31G(d,p) 

TD

0 1
 6  12.10119446204620  0.52134273477348 -0.73150926982698
 6 -12.03128544264426 -0.07847288888889  0.79077825672567
 6  13.28001741444145 -0.40635029502950 -0.68674467346735
 6 -13.05682218211821  1.10478486998700  1.27466818121812
 6  13.05973828802880 -1.84403007540754 -0.43680543934393
 6 -13.26324092019202  2.21665017711771  0.20720108720872
 6  10.99139093299330  0.16992125662566  0.26338387618762
 6 -10.89015668346835  0.47652753505351 -0.01518915371537
 6  12.36277071447145 -1.90921321532153  0.88378235453545
 6 -11.97653753635363  2.70473078127813 -0.22214054995500
 6  11.17011671967197 -0.95244729922992  1.07875444384438
 6 -10.86573136733673  1.73173879567957 -0.55582445614561
 6  11.36978756645665  0.29269039413941 -2.15091356995700
 6  12.58216162956296  1.91972602770277 -0.60245176417642
 6 -12.99401699249925 -1.06113323202320 -0.05607177727773
 6 -11.56660552855285 -0.79464263786379  2.01414956315632
 6  9.83496155875588  1.06870298389839  0.43660566106611
 6 -9.87531733863386 -0.41270381248125 -0.30270435823582
 6  10.25278945524552 -1.32563237493749  2.19156179107911
 6 -9.93075604580458  2.27384912401240 -1.48265973087309
 6  8.59435567526753  0.58051800800080  0.38916712291229
 6 -8.54866782518252 -0.35489535483548 -0.17501382428243
 6  7.37646621482148  1.35736453675368  0.31007361996200
 6 -7.51902079597960 -1.29410788588859 -0.43980437733773
 6  7.62658570827083  2.90510314751475  0.41693413041304
 6 -7.81891908010801 -2.68475848694869 -0.88992627022702
 6  6.16917081858186  0.71108549754975  0.18251041004100
 6 -6.21046965686569 -0.90352117471747 -0.18648075977598
 6  4.87578822952295  1.29329166106611  0.21800145914591
 6 -4.99231884368437 -1.73003898169817 -0.58134951655166
 6  3.69795850745075  0.60327789298930  0.31179312861286
 6 -3.79031441664166 -1.24360499319932 -0.32062450015001
 6  2.26459976137614  1.19635034273427  0.30407489538954
 6 -2.50448944834483 -1.93815887458746 -0.51687496759676
 6  2.18997336893689  2.58206757325733  0.63632800610061
 6 -2.72052259765977 -3.43226675317532 -0.76082743284328
 6  1.19743129162916  0.36026736833683  0.10030494749475
 6 -1.34350252335234 -1.27392596459646 -0.30199890499050
 6  1.21042541474147 -1.06349129632963 -0.11902942264226
 6  0.02802334193419 -1.77227346714671 -0.43696745274527
 1  13.96382648844884 -0.02266983748375  0.14590263316332
 1  13.87011402520252 -0.27822619831983 -1.68807234563456
 1 -12.46499286428643  1.58762115231523  2.16784034883488
 1 -14.05432629022902  0.67993748604860  1.76170260836084
 1  14.14857547954795 -2.39701051875188 -0.40368381418142
 1  12.65783166486649 -2.44868876887689 -1.22194831813181
 1 -13.93150653885388  2.99083244324432  0.55232627022702
 1 -13.68419320312031  1.67316699089909 -0.74638866096610
 1  12.96508847264727 -1.53817632423242  1.75055693769377
 1  11.98755621012101 -3.00839453155315  1.13561041664166
 1 -11.68687847994799  3.51098881958196  0.53867038403840
 1 -12.20668688258826  3.34493800160016 -1.27890179137914
 1  10.99061243174318 -0.77081015831583 -2.14509264196420
 1  12.14751163186319  0.41388604990499 -2.82816939093909
 1  10.40989856115612  0.97305041674167 -2.25475619511951
 1  13.13647460156016  2.01342824472447  0.34918225872587
 1  11.85214362126213  2.78050796169617 -0.67253141014101
 1  13.48957081338134  2.18241851175117 -1.31587385848585
 1 -13.51771100180018 -0.47712172117212 -0.94644074477448
 1 -13.82174434703470 -1.66518232243224  0.38113533423342
 1 -12.60551815501550 -1.91448985388539 -0.64467034953495
 1 -10.95439793069307 -0.00651629102910  2.59943960306031
 1 -10.80138666406641 -1.62524352505251  1.59876389258926
 1 -12.32630669466947 -1.28777324522452  2.70010853895390
 1  10.06702010861086  2.29062392249225  0.44920082798280
 1 -10.20374481918192 -1.48852396239624 -0.62274865286529
 1  9.67410148764877 -0.39526712141214  2.61852561016102
 1  10.79399021312131 -1.51418761666167  2.93191462146215
 1  9.50342240944094 -1.99888973897390  1.85801542314231
 1 -9.35576261156116  1.64413672627263 -2.24457695459546
 1 -9.26254105900590  3.06362988498850 -0.92295234143414
 1 -10.55729599459946  3.03854886028603 -2.20058003130313
 1  8.61484707550755 -0.53470425062506  0.30200324992499
 1 -8.20559395459546  0.61096529062906  0.13057940544054
 1  8.27650088218822  2.99900493639364  1.36399578207821
 1  6.43368524922492  3.40557826202620  0.46270885058506
 1  8.29654389208921  3.28649731173117 -0.36975019791979
 1 -8.39381033323332 -2.75185224432443 -1.76163285688569
 1 -8.72878386668667 -3.23889707700770 -0.20773463416342
 1 -7.04308886148615 -3.26973962526253 -0.89949883508351
 1  6.05863672817282 -0.34499972677268 -0.01194321102110
 1 -5.97020900550055  0.10980291879188  0.15280500370037
 1  4.94884824212421  2.29861830593059  0.24539744654465
 1 -5.15629572987299 -2.86737025342534 -0.64401654275428
 1  3.82701296799680 -0.53911848174817 -0.00115047664767
 1 -3.73317094829483 -0.19724339443944  0.03305143844384
 1  2.79057975737574  2.75723611971197  1.58568722402240
 1  1.23045024582458  3.03670440224022  0.91264099159916
 1  2.52348940774077  3.39118959245925 -0.00114408400840
 1 -3.24983685328533 -3.53450180608061 -1.66406141694169
 1 -3.24673627942794 -3.89137113001300  0.20649530093009
 1 -1.77469844114412 -3.93232356675668 -0.78732095849585
 1  0.22134453525353  0.98772468766877  0.23218386358636
 1 -1.46529761836184 -0.22276428922892 -0.15251297739774
 1  2.17143568806881 -1.56712576227623 -0.19300886508651
 1 -0.04726421562156 -2.88410345264526 -0.38123898479848

