%nproc=4
%Mem=2GB
# td=(NStates=1) B3LYP/6-31G(d,p) 

TD

0 1
 6  12.10027437003700  0.58485908640864 -0.82280839973997
 6 -12.11413372747275 -0.09559460106011  0.82011119001900
 6  13.40048946164617 -0.23714337433743 -0.70038603760376
 6 -13.10917741764176  1.15296968846885  1.15841655605561
 6  13.21357367156716 -1.78228390079008 -0.71466322512251
 6 -13.44926952305230  2.06089460156016 -0.04410404330433
 6  11.04853664756476  0.00468473297330  0.18135567336734
 6 -11.00597826562656  0.34271415371537 -0.19151678647865
 6  12.33232767016702 -2.15028732273227  0.63251722802280
 6 -12.15277516011601  2.64793510171017 -0.66440477637764
 6  11.16039574757476 -1.18350040454045  0.86588315671567
 6 -11.01321611581158  1.60855647744774 -0.80205907960796
 6  11.51347193489349  0.63579470457046 -2.22219069766977
 6  12.46840025342534  2.01038509360936 -0.39706122512251
 6 -12.91014860566057 -1.11325844454445  0.12197602750275
 6 -11.46458532653265 -0.53696687028703  2.23040118831883
 6  9.89491755435544  0.84898101170117  0.40528252875288
 6 -9.89533934083408 -0.50908345044504 -0.34958904670467
 6  10.25768994529453 -1.72585239693969  1.81541417631763
 6 -9.93141611181118  2.18377011611161 -1.68250971587159
 6  8.55360159985999  0.44490444664466  0.43240144634463
 6 -8.55517847624762 -0.30478034333433 -0.25286160906091
 6  7.43072164036404  1.24448324862486  0.45950856345635
 6 -7.48545743964397 -1.30084855995600 -0.34407480438044
 6  7.59799284898490  2.78756139333933  0.66433887088709
 6 -7.86973416161616 -2.74818482958296 -0.45206248384838
 6  6.14296819831983  0.70409479847985  0.44219637863786
 6 -6.20229883978398 -0.88099892249225 -0.27732984468447
 6  4.85547619831983  1.35627795969597  0.45438509750975
 6 -4.98601821362136 -1.54110008780878 -0.54304568616862
 6  3.67817652925293  0.75017258245825  0.46980893019302
 6 -3.77122250745075 -1.07299793249325 -0.28404084178418
 6  2.39742304370437  1.26534724242424  0.40169465736574
 6 -2.60475947534753 -1.89471453015302 -0.38903218331833
 6  2.12158653025303  2.70781014751475  0.65497987128713
 6 -2.58579912531253 -3.37684121062106 -0.51070242034203
 6  1.20177172567257  0.47307864946495  0.16063098009801
 6 -1.35506367946795 -1.15756432843284 -0.36471517661766
 6  1.12489686188619 -0.93653860106011 -0.01136865656566
 6  0.04433497309731 -1.58728496829683 -0.20163391939194
 1  13.87309741554155 -0.04169173967397  0.30227827072707
 1  14.16565357915792  0.07519914421442 -1.37973151155115
 1 -12.55212157715772  1.58972136233623  1.85840940574057
 1 -13.90532138973897  0.70597008930893  1.62768920702070
 1  14.04742536453645 -2.38722954065407 -0.93307675347535
 1  12.45266114781478 -2.09530343034303 -1.60541666496650
 1 -14.26676006420642  2.70963432343234  0.33167420502050
 1 -13.79314409820982  1.27598727292729 -0.95560958305831
 1  13.05064702850285 -2.40523302990299  1.54325620762076
 1  11.80723817831783 -3.14229792189219  0.49246610221022
 1 -11.85265505760576  3.43399111981198  0.06682319931993
 1 -12.20801701560156  3.02913642144214 -1.70569447064706
 1  11.35044841534153 -0.39160223752375 -2.72628076077608
 1  12.17068394909491  0.96490115141514 -2.79500607460746
 1  10.57791536283628  1.23404651635163 -2.20402112161216
 1  12.91831278537854  2.14752165406541  0.51989933043304
 1  11.70618902580258  2.80442035293529 -0.55629978697870
 1  13.26792864916492  2.38925919581958 -0.91687395849585
 1 -13.58979821052105 -0.79854386338634 -0.78941504220422
 1 -13.49948212081208 -1.54429023322332  0.92638985968597
 1 -12.06051365456546 -1.98715712061206 -0.12169805230523
 1 -10.86347883878388  0.31250561116112  2.65709536863686
 1 -10.97840436583658 -1.58141914261426  2.10937495369537
 1 -12.34911897589759 -0.67648211611161  2.97665619371937
 1  10.03797720432043  2.02534739483948  0.55609151705170
 1 -10.11221566626663 -1.66338144814481 -0.42738911691169
 1  9.41162524002400 -1.03000059475948  2.34357811541154
 1  10.93939475357536 -2.27596379427943  2.45719714971497
 1  9.51134320152015 -2.51462131213121  1.39765938753875
 1 -9.34201123642364  1.32410472307231 -2.22741523842384
 1 -9.38035284018402  2.94821834383438 -1.21370141634163
 1 -10.34472473747375  2.52443744914491 -2.51961193449345
 1  8.36392198299830 -0.68325910611061  0.09060210981098
 1 -8.14766816201620  0.67773196729673 -0.16316996949695
 1  8.22275550765077  2.89759479537954  1.56347573007301
 1  6.74356623732373  3.25840354455446  0.83271585128513
 1  8.14058829652965  3.41386004800480 -0.16630985388539
 1 -8.50154110631063 -2.72655971507151 -1.48742543614361
 1 -8.60976196449645 -2.97858104540454  0.35252139143914
 1 -7.04263881648165 -3.23823647494749 -0.43665255045505
 1  6.07450831533153 -0.48326355315532  0.02946092939294
 1 -6.08278026262626  0.14086602510251  0.10202992619262
 1  4.77716107340734  2.44195263936394  0.69242214901490
 1 -5.22653275357536 -2.68459197559756 -0.69744188528853
 1  3.98677894459446 -0.32802737263726  0.26618625702570
 1 -3.62226985818582 -0.04924859495950  0.00531866516652
 1  2.63459415881588  2.88921931803180  1.55462411771177
 1  1.14369156995700  3.12646337813781  0.63328305580558
 1  2.69842690149015  3.33848432193219 -0.09909387898790
 1 -2.91029289888989 -3.51643999989999 -1.66982199299930
 1 -3.20078168396840 -3.83460545344535  0.23991864326433
 1 -1.52405337663766 -3.81217155155516 -0.55043727012701
 1  0.27455985678568  1.05126104130413 -0.21701105590559
 1 -1.44439552815282 -0.06774878767877 -0.53120084618462
 1  2.19310785528553 -1.32594164386439 -0.06901646584658
 1  0.02990350115012 -2.54025906820682 -0.30060092099210

