%nproc=4
%Mem=2GB
# td=(NStates=1) B3LYP/6-31G(d,p) 

TD

0 1
 6  12.15523986658666  0.53235383588359 -0.76268238713871
 6 -12.17315963006301 -0.06278131973197  0.78565774467447
 6  13.52705211791179 -0.28416807680768 -0.64508050705071
 6 -13.01995849574958  1.19284367586759  1.23674438883888
 6  13.14617693189319 -1.77209288168817 -0.71431319011901
 6 -13.30114471057106  2.06232474457446  0.05860622772277
 6  11.04256605050505 -0.03546928242824  0.13978151595159
 6 -10.99573724152415  0.40095997829783 -0.13750138493849
 6  12.41010544794479 -2.08274056805681  0.65173915021502
 6 -11.92920280288029  2.78472878107811 -0.33913224912491
 6  11.26382609060906 -1.19491154565457  0.88234480288029
 6 -10.93281807600760  1.58129375117512 -0.74524339803980
 6  11.65135572327233  0.49445057015702 -2.30387886648665
 6  12.50503391679168  1.95615967106711 -0.35747726672667
 6 -13.03904149494950 -1.05223234193419  0.13200703060306
 6 -11.56069493749375 -0.66711988558856  2.05030317851785
 6  9.81959002160216  0.84157027062706  0.33441544204420
 6 -9.96751655855586 -0.58502104420442 -0.32404649244924
 6  10.22082625892589 -1.60892070377038  1.88327096199620
 6 -9.95259823002300  1.99661140024002 -1.82358382328233
 6  8.51380762046205  0.39775973217322  0.30762896909691
 6 -8.61408436683668 -0.38811867716772 -0.28915523842384
 6  7.39337790599060  1.26552535283528  0.48383099569957
 6 -7.56850574447445 -1.40592906800680 -0.42398279517952
 6  7.50378342804280  2.76755939313931  0.56782921992199
 6 -7.84900208840884 -2.88288829992999 -0.77243452105211
 6  6.16228012951295  0.72369675867587  0.40494265326533
 6 -6.29825843574357 -0.97984880748075 -0.34997710941094
 6  4.83490414111411  1.38954128602860  0.49248890789079
 6 -5.01678128992899 -1.60388636643664 -0.31462284388439
 6  3.58549726132613  0.71728929412941  0.43504545384538
 6 -3.72816820202020 -0.97297793049305 -0.24661709940994
 6  2.32876617801780  1.35919662736274  0.30465495339534
 6 -2.54674367376738 -1.77146220492049 -0.37950123022302
 6  2.20527489908991  2.85292465896590  0.64153852715272
 6 -2.64096464186419 -3.23979750625063 -0.49925127522752
 6  1.22623417191719  0.56709805140514  0.06533145014501
 6 -1.33416158925893 -1.12719129112911 -0.12777148224822
 6  1.10087445964596 -0.80929587678768 -0.08678619831983
 6 -0.04207366776678 -1.61351759155916 -0.19769352535254
 1  14.13637374317432  0.19079150865086  0.22860090299030
 1  14.04949196299630 -0.04052242794279 -1.43084662306231
 1 -12.40770713571357  1.58615100530053  2.12185575037504
 1 -14.01560241784179  0.61430092239224  1.54946138423842
 1  14.01513213521352 -2.40560137783778 -0.85027847364736
 1  12.61465734743474 -2.16792069206921 -1.63606973027303
 1 -14.05737912611261  2.81979533953395  0.32493353095310
 1 -13.89238402220222  1.56154582878288 -0.70768479057906
 1  13.00017198099810 -2.02940544714471  1.46471835383538
 1  12.07761521602160 -3.22732642474247  0.70552740834083
 1 -11.42585237733773  3.55189290999100  0.54995151215121
 1 -12.06541275517552  3.43661716951695 -1.20694459565957
 1  11.49208257875788 -0.56028910621062 -2.57258539123912
 1  12.35972285298530  0.99869453075307 -2.84388096209621
 1  10.67214478577858  1.01273438513851 -2.51783250275028
 1  13.06708766286629  1.78003490539054  0.79681702220222
 1  11.59970837773777  2.59307921882188 -0.37096125312531
 1  13.20833268956896  2.55575584548455 -1.00628289938994
 1 -13.68120735143514 -0.67454146314631 -0.65186128682868
 1 -13.79516168876888 -1.66432223642364  0.80336755745575
 1 -12.46805440864086 -1.66915532043204 -0.35249113161316
 1 -11.12837532843284  0.08125248584858  2.69768942804280
 1 -11.00512703810381 -1.57288828952895  1.70599461566157
 1 -12.29280334433443 -1.15473994189419  2.66792532063206
 1  10.08905231183118  1.86637149724972  0.31401730963096
 1 -10.37143158785879 -1.67309241924192 -0.51476785478548
 1  9.72094617211721 -0.87365496019602  2.64991874947495
 1  10.67407822192219 -2.02689888778878  2.75924735473547
 1  9.64892695989599 -2.56561641164116  1.43410303190319
 1 -9.37171420672067  0.87876018861886 -2.39409190609061
 1 -9.38916372127213  2.72289581158116 -1.30633067926793
 1 -10.46295656065607  2.61399640504050 -2.65888586188619
 1  8.28130372117212 -0.64244502470247  0.27522057165717
 1 -8.17241063626363  0.57448164226423 -0.17743139563956
 1  8.57861109320932  3.13941897779778  1.24809419191919
 1  6.34540642134214  3.09921762596260  0.99798237793779
 1  7.95037927562756  3.32489115111511 -0.38851207410741
 1 -8.48675962816282 -3.12249930903090 -1.62137883148315
 1 -8.33221420972097 -3.35607879517952 -0.07022088278828
 1 -7.06736128872887 -3.65397804910491 -1.10148903410341
 1  6.05200606510651 -0.37163239003900  0.16957494079408
 1 -6.08941092569257  0.07835977447745 -0.04666494329433
 1  4.75911926922692  2.39653809790979  0.77214012081208
 1 -5.10684078437844 -2.66277979437944 -0.50622276337634
 1  3.46006627332733 -0.37887245714571  0.32466210461046
 1 -3.76772440364036  0.07346367626763 -0.28018988568857
 1  2.35107580698070  3.07865826192619  1.70147880318032
 1  1.27965516631663  3.21100183198320  0.18350807830783
 1  3.06034309310931  3.24486495999600 -0.04041801140114
 1 -2.83128499809981 -3.53546190209021 -1.52558756955696
 1 -3.26411801760176 -3.78600059295930  0.24219887128713
 1 -1.66666763806381 -3.85452578697870 -0.35431765816582
 1  0.35181758255826  1.12573848904890  0.15053569876988
 1 -1.28101919051905  0.04920290749075  0.12368464236424
 1  2.01078962346235 -1.40700975067507  0.04576501230123
 1  0.23618412921292 -2.67753279557956 -0.32625348624862

