%nproc=4
%Mem=2GB
# td=(NStates=1) B3LYP/6-31G(d,p) 

TD

0 1
 6  12.06728107070707  0.62194279477948 -0.71641776067607
 6 -12.05607792189219  0.11984694309431  0.90509968886889
 6  13.49327874057406 -0.20954061406141 -0.56207220622062
 6 -13.00181668156816  1.35598999049905  1.22284299869987
 6  13.06117843204320 -1.69302497489749 -0.70204196299630
 6 -13.37977257335734  2.03280179227923 -0.09682931583158
 6  11.00303209710971  0.07716198069807  0.15704324212421
 6 -10.98634630243024  0.46298618091809 -0.18502613741374
 6  12.15413985138514 -2.19979227322732  0.50835481178118
 6 -12.11240112271227  2.53828413661366 -0.84042237813781
 6  11.01174088208821 -1.19101115561556  0.79060562896290
 6 -11.00746554075407  1.59157477927793 -0.91113998769877
 6  11.68685927362736  0.70432155725573 -2.18221670027003
 6  12.54690810421042  2.05301935703570 -0.23428494749475
 6 -12.94366195699570 -1.15048216691669  0.38353218311831
 6 -11.34177304530453 -0.39073224682468  2.18630677887789
 6  9.84953301590159  0.98567468106811  0.33168516901690
 6 -9.89523933083308 -0.50808335043504 -0.26653074087409
 6  10.01345552185219 -1.74641445314531  1.84222685758576
 6 -9.82213518371837  1.93229496859686 -1.87189865476548
 6  8.51213745344534  0.44420437663766  0.14739294549455
 6 -8.53598655705571 -0.30928079337934 -0.15744206710671
 6  7.34967353555356  1.24406320662066  0.50521313391339
 6 -7.58377727162716 -1.33894236933693 -0.29793018991899
 6  7.58145119481948  2.82992562976298  0.69614205120512
 6 -7.85833302150215 -2.80042005310531 -0.49668694629463
 6  6.08196209770977  0.62776716571657  0.33010516951695
 6 -6.29975858575858 -0.90818164076408 -0.19808191989199
 6  4.87477812851285  1.33305563746375  0.57232689168917
 6 -5.02450206200620 -1.68237421522152 -0.47119850145015
 6  3.68045675727573  0.69729729492949  0.34225617491749
 6 -3.76081146634663 -1.13881451415141 -0.24043648134813
 6  2.37560086148615  1.22202290999100  0.50081456935694
 6 -2.47999699909991 -1.89108416711671 -0.41836511661166
 6  2.24423879547955  2.69439880638064  0.79374374767477
 6 -2.52206275167517 -3.37329085558556 -0.80143149324932
 6  1.19779132763276  0.48285962756276  0.28971388838884
 6 -1.32095026812681 -1.19672824482448 -0.24505321042104
 6  1.09074344654465 -0.86325127232723 -0.10874839453945
 6 -0.04986444684468 -1.73298953875388 -0.35357911391139
 1  13.82413251905191 -0.05075264576458  0.42749079197920
 1  14.16844385818582  0.04161578587859 -1.39481301970197
 1 -12.34226059105911  1.93665605580558  1.96516008080808
 1 -13.99048990659066  1.01996148844885  1.66239267736774
 1  13.90535115711571 -2.28957977567757 -0.92912635843584
 1  12.47788367006701 -1.92840674067407 -1.70437656095610
 1 -13.92406579477948  2.84477783778378  0.26363740134013
 1 -13.83935871967197  1.25998567276728 -0.76525054715472
 1  12.71000296409641 -2.51853436003600  1.30405228722872
 1  11.61071852635263 -3.15258895099510 -0.19042218661866
 1 -11.75788558065807  3.54578229892989 -0.45179866286629
 1 -12.23470968486849  2.95235874367437 -1.72037593879388
 1  11.50795416591659 -0.23633671097110 -2.60938907160716
 1  12.52656953765377  1.28638329962996 -2.84137071107111
 1  10.79911748304830  1.20124323602360 -2.67046776627663
 1  12.90412136623662  1.97212411431143  0.69803714421442
 1  11.87318572547255  2.84400431133113 -0.50777493449345
 1  13.33154501080108  2.24582485238524 -1.09144141524152
 1 -13.71995122582258 -1.04809881888189 -0.41773787448745
 1 -13.49142131473147 -1.53535934013401  1.19558677937794
 1 -12.16995459865987 -2.07507591249125  0.02555667316732
 1 -10.47605009590959  0.26267062766277  2.35877553665367
 1 -11.05809233463346 -1.48380938163816  2.01277529372937
 1 -12.24434849884988 -0.14416888478848  3.12198072617262
 1  10.11784519111911  2.05275013511351  0.73066897479748
 1 -10.25952039673967 -1.65845095509551 -0.46875325332533
 1  9.53208728622862 -0.92692028672867  2.24756851445145
 1  10.67580839493949 -2.13950014791479  2.36589801980198
 1  9.11158322552255 -2.41779162916292  1.39235885748575
 1 -9.12807984328433  1.11217352995300 -1.96922941984198
 1 -9.15005981088109  2.69043256525653 -1.35829587578758
 1 -10.24888515351535  2.48900390579058 -2.95672564586459
 1  8.28285387618762 -0.46884766496650 -0.08129507990799
 1 -8.02745614081408  0.49098329242924  0.22215856335634
 1  8.00935416751675  2.81080611651165  1.66542592509251
 1  6.61995387608761  3.29539724392439  0.70807338703870
 1  8.08715295299530  3.32374103610361 -0.10138336123612
 1 -8.40718167036704 -3.01761882098210 -1.46906359996000
 1 -8.57930891919192 -3.15129831713171  0.28710484978498
 1 -6.79411396399640 -3.41360401170117 -0.67555644084408
 1  6.27966883138314 -0.49569479627963  0.04896287958796
 1 -6.09678166276628  0.05276721522152  0.11804152735273
 1  4.76158951625162  2.39149759385939  0.90590349714971
 1 -5.10378047834783 -2.58390190659066 -0.72191433253325
 1  3.68638890559056 -0.34581915181518  0.01606124452445
 1 -3.92598022922292 -0.19664333443344  0.28803693699370
 1  2.65188588798880  2.67480787688769  1.86870552585259
 1  1.28706590739074  3.19505023682368  1.04737446494649
 1  2.80440749954996  3.20570104360436 -0.06991096069607
 1 -2.74650652025203 -3.41915027092709 -1.75787079787979
 1 -3.04270587638764 -3.88633062596260 -0.07583293189319
 1 -1.42162313361336 -3.95335566996700 -0.97357958435844
 1  0.17222962376238  1.00157607280728  0.40084072927293
 1 -1.40887197579758 -0.26203821662166  0.17391966586659
 1  2.16935548004800 -1.36350540024002 -0.32461202540254
 1  0.10317082788279 -2.60716575887589 -0.56772763366337

