%nproc=4
%Mem=2GB
# td=(NStates=1) B3LYP/6-31G(d,p) 

TD

0 1
 6  12.11943628622862  0.62654325482548 -0.73157927682768
 6 -12.13881619571957 -0.03981902350235  0.86277545644564
 6  13.44565397809781 -0.23518317831783 -0.75495149414941
 6 -12.96835333523352  1.17077146864686  1.23262397679768
 6  13.16355867006701 -1.78155382778278 -0.65060681948195
 6 -13.44563916001600  2.13083159525953  0.09346971407141
 6  10.99864165806581 -0.07870360586059  0.16430396819682
 6 -10.98407607540754  0.54637451975198 -0.06144377917792
 6  12.49870430783078 -2.02282457645765  0.73175715201520
 6 -12.14661454405440  2.81309161736174 -0.52347068296830
 6  11.09957966596660 -1.18912096659666  0.89670623902390
 6 -11.08188298249825  1.74565018681868 -0.65193406710671
 6  11.49727031473147  0.76728785388539 -2.11106958555856
 6  12.40760417381738  2.10494454955496 -0.33938545754575
 6 -12.86748433923392 -1.14701181988199  0.11105493539354
 6 -11.60054892289229 -0.67083025662566  2.12660080828083
 6  9.84772283488349  0.85390150375038  0.39138113861386
 6 -9.92859266616662 -0.45541808390839 -0.21145523332333
 6  10.30473464976498 -1.76886669836984  1.96168880378038
 6 -9.98939190939094  2.05743748284828 -1.70203166806681
 6  8.59539577927793  0.37353730993099  0.50497870407041
 6 -8.56062902130213 -0.34871473677368 -0.28438476137614
 6  7.36062463066307  1.29427822812281  0.54821743434343
 6 -7.54220311421142 -1.32209068416842 -0.53871426832683
 6  7.53346639633963  2.80226286348635  0.58974141114111
 6 -7.99602679087909 -2.73301331243124 -0.62330960856086
 6  6.19937383888389  0.72015640464046  0.40695285428543
 6 -6.26808541844184 -0.81971279387939 -0.47863997569757
 6  4.93266391709171  1.39949228112811  0.29096875587559
 6 -4.98275788758876 -1.58048402620262 -0.47569895149515
 6  3.76598531013101  0.73292085728573  0.10286223552355
 6 -3.76147153235324 -1.11957258995900 -0.28696113381338
 6  2.37170047144714  1.23251395909591  0.22425691359136
 6 -2.51303030243024 -1.85531058975898 -0.37029030913091
 6  2.22091646324632  2.62397176367637  0.48657303060306
 6 -2.56412695809581 -3.37008053455346 -0.47496884698470
 6  1.28584013251325  0.36941828342834  0.08096301330133
 6 -1.31179935303530 -1.21807037903790 -0.14887359245925
 6  1.28507287948795 -1.11339628682868 -0.08643616331633
 6 -0.00414987538754 -1.74765100490049 -0.37711146714671
 1  13.98228833463346 -0.03358092859286  0.10209825272527
 1  13.83991100490049  0.03730535483548 -1.64466800520052
 1 -12.44781114611461  1.73520591079108  1.82990655545555
 1 -14.01757261486149  0.99544903720372  1.59802624072407
 1  14.23140376237624 -2.06590740844084 -0.68663210901090
 1  12.63825970767077 -2.31635553555355 -1.50990711401140
 1 -14.29098248644864  2.87305066506651  0.44276531413141
 1 -14.00167495129513  1.49630930513051 -0.62067608970897
 1  13.07873983778378 -1.87893039963996  1.69521140314031
 1  12.08164561906191 -3.06070976307631  0.58773562916292
 1 -11.84918471057106  3.87576529722972 -0.06212969596960
 1 -12.34512072597260  3.07565107290729 -1.61699560076008
 1  11.28645201570157 -0.30038311561156 -2.51846997969797
 1  12.17703458415841  1.30885554685469 -2.76544311831183
 1  10.60096766806681  1.43334644634463 -2.19171989148915
 1  13.09966092019202  2.09708661056106  0.67730507100710
 1  11.32469087598760  2.80357026792679 -0.21196535353535
 1  13.06430828712871  2.59870013991399 -1.26398866996700
 1 -13.58900813151315 -0.83567757675768 -0.91437753845385
 1 -13.84640681328133 -1.67422322652265  0.72534975567557
 1 -12.52993059625963 -2.03437184208421 -0.02774865736574
 1 -10.85529802070207 -0.03232887228723  2.78836849594960
 1 -11.21835836123612 -1.62000300100010  1.72894691089109
 1 -12.51092515651565 -1.10225469336934  2.83180170827083
 1  10.29451285788579  1.93621848194819  0.36829273717372
 1 -10.33931837653765 -1.46743185318532 -0.20126650465047
 1  9.60995507300730 -1.06143373807381  2.27602135973597
 1  11.00769158325833 -1.97462366026603  2.90560199019902
 1  9.72702476967697 -2.69337918791879  1.79486910851085
 1 -9.37266430173017  1.20099241184118 -1.91099359625963
 1 -9.22877768266827  3.01571509350935 -1.52492253845385
 1 -10.36176644164416  2.53454846024602 -2.40803077637764
 1  8.35142073287329 -0.62789356955696  0.39049209880988
 1 -8.16995039023902  0.67658185228523 -0.04918857135714
 1  8.16856008810881  3.14621965786579  1.39521890439044
 1  6.53722560326033  3.30096780098010  0.82060464016402
 1  8.01486572427243  3.21321998399840 -0.27985120802080
 1 -8.64042499469947 -2.90912797189719 -1.49793648724872
 1 -8.61256224452445 -2.99589277657766  0.33471961126113
 1 -7.13004755735574 -3.32000465176518 -0.51336022122212
 1  6.13654451895190 -0.39941516831683  0.54086206950695
 1 -6.24746673127313  0.23549548804880 -0.28203848064807
 1  4.93269662696270  2.44080252435244  0.54536744354435
 1 -5.11933203350335 -2.78308182458246 -0.54162630373037
 1  3.76689695639564 -0.38105267516752 -0.06736709830983
 1 -3.68496612781278 -0.14540821092109 -0.04628649534954
 1  2.86102680208021  2.88517891399140  1.43249190449045
 1  1.17130433123312  2.98042877467747  0.30100982848285
 1  2.94678173697370  3.19978045154515 -0.01208517811781
 1 -3.08311018061806 -3.67109546544654 -1.34108911971197
 1 -3.17586919271927 -3.74109610251025  0.33912856425643
 1 -1.62630360166017 -3.95225555995600 -0.61510373677368
 1  0.23684608540854  0.69959587478748  0.31234187938794
 1 -1.50311139973997 -0.19879189198920  0.02649492339234
 1  2.21753029752975 -1.68748779847985 -0.13381294549455
 1 -0.10902039123912 -2.80866590889089 -0.43268412931293

