%nproc=4
%Mem=2GB
# td=(NStates=1) B3LYP/6-31G(d,p) 

TD

0 1
 6  12.29309365196520  0.51176177667767 -0.72497861676168
 6 -12.23792610671067 -0.09726476807681  0.80919009790979
 6  13.52180159285929 -0.40752041204120 -0.69923592259226
 6 -13.20594709460946  1.07663205470547  1.15183589798980
 6  13.08724103830383 -1.87260293269327 -0.51869362816282
 6 -13.45576017211721  2.17802631473147  0.05071543864386
 6  11.15982777667767  0.12028629312931  0.27055459325933
 6 -11.05929359715972  0.37972785508551 -0.08763639843984
 6  12.32607704510451 -2.09680197419742  0.73791776807681
 6 -12.16728661126113  2.66964727292729 -0.48776711261126
 6  11.23529323732373 -1.11174322882288  0.94420098849885
 6 -11.08177297149715  1.61026664846485 -0.82854172787279
 6  11.79437002470247  0.50926205130513 -2.17667614621462
 6  12.70223363676368  1.89551360646065 -0.37515903490349
 6 -13.09946753755376 -1.11387850655066  0.08370220012001
 6 -11.72070093809381 -0.67621079467947  2.18526667486749
 6  9.89110717331733  0.94744085768577  0.41020302080208
 6 -9.98538834573457 -0.63452599469947 -0.17460154795480
 6  10.23218739503950 -1.56054586628663  1.86275891079108
 6 -9.96424939513951  2.05407714681468 -1.73585505040504
 6  8.63698993869387  0.50192014821482  0.25918412461246
 6 -8.62676563496350 -0.31560142544254 -0.25176149904991
 6  7.43290185838584  1.30813961426143  0.24735734833483
 6 -7.57740663456346 -1.29666814191419 -0.40223061996200
 6  7.58159120882088  2.91295393259326  0.42245468246825
 6 -7.98122531073107 -2.71018102920292 -0.77901517911791
 6  6.18699260076008  0.75739012801280  0.20230238923892
 6 -6.25828443834383 -0.91386220882088 -0.19553166486649
 6  4.87459811051105  1.37828015991599  0.38790844984498
 6 -5.08756836863686 -1.73089906770677 -0.32183356495650
 6  3.78628734033403  0.71465903110311  0.21704365366537
 6 -3.82014739993999 -1.16830746344634 -0.20733317101710
 6  2.41713501490149  1.25463617131713  0.46735122302230
 6 -2.47930693009301 -1.83110816951695 -0.35483876397640
 6  2.33465783738374  2.68985835233523  0.83503787708771
 6 -2.52182272767277 -3.34746827332733 -0.70529187928793
 6  1.29932148064806  0.48635997759776  0.26571148814882
 6 -1.42950112321232 -1.06612518451845 -0.15823452855286
 6  1.15092946514651 -0.87465241244124 -0.17689520922092
 6 -0.06343580398040 -1.51448768856886 -0.33407716371637
 1  14.13840394619462  0.00394282378238  0.18266630953095
 1  14.08737575137514  0.03338496279628 -1.58695223362336
 1 -12.71796816181618  1.61608399859986  2.12133569836984
 1 -14.05117597519752  0.56495598789879  1.45551198929893
 1  14.02246286828683 -2.54375519321932 -0.57014045984598
 1  12.52898878057806 -2.28189208920892 -1.46974309760976
 1 -13.98807219541954  3.11042440244024  0.57488852645265
 1 -14.01999678347835  1.59614928912891 -0.66409043114311
 1  13.03655561936194 -2.19761226782678  1.55354723672367
 1  12.08338579307931 -3.30512420452045  0.47649450505050
 1 -11.84907469956996  3.46090381108111  0.36570308730873
 1 -12.21224743864386  3.49285279307931 -1.26568046924692
 1  11.61314468496850 -0.57537061436144 -2.41156928962896
 1  12.56863374407441  0.91865652695270 -2.76287286128613
 1  10.91748932023202  1.29505261696170 -2.36615733523352
 1  12.85348630273027  2.14184108600860  0.73409074957496
 1  12.13871227812781  2.72952286318632 -0.52841699869987
 1  13.78467032333233  2.17960823072307 -0.82754502560256
 1 -13.43941317201720 -0.75810981998200 -1.03951005170517
 1 -13.86663883648365 -1.59475527972797  0.79151637233723
 1 -12.43310091329133 -1.98335674057406 -0.21669755225523
 1 -11.27182967386739  0.08182254285429  2.44885454455446
 1 -11.07138366376638 -1.49317031773177  2.15824984118412
 1 -12.49862392639264 -0.79492396029603  2.93222175027503
 1  10.22650605720572  2.03140800090009  0.34661056895690
 1 -10.46593103780378 -1.57210232023202 -0.25768214621462
 1  9.64384846234623 -0.82429002370237  2.40168392599260
 1  10.66775758985899 -2.22033823172317  2.76946837683768
 1  9.57215928312831 -2.25707555755576  1.04488411001100
 1 -9.25042207750775  1.17138945154515 -1.78830132703270
 1 -9.35544034893489  2.98582210421042 -1.26049609580958
 1 -10.75605587058706  2.38795380078008 -2.52247222052205
 1  8.40175576637664 -0.57747852805281  0.43837688728873
 1 -8.39823321852185  0.71794598869887  0.02430877837784
 1  8.34621785388539  3.38671370727073  1.22040142264226
 1  6.44156603730373  3.34437214141414  0.63377595729573
 1  7.89977421512151  3.40260892289229 -0.53168639153915
 1 -8.54568552075208 -2.62409946904691 -1.73283997759776
 1 -8.69377036533653 -3.12390557785779 -0.05786964766477
 1 -7.16361091369137 -3.40669332063206 -0.86744562976298
 1  6.13370423492349 -0.30893612041204 -0.08714073077308
 1 -6.05294727932793  0.19979191769177 -0.17124740154015
 1  4.78478183548355  2.31698014211421  0.86935984278428
 1 -5.29563966426643 -2.73493701010101 -0.88187032813281
 1  4.02166243294329 -0.32812738263826 -0.10893125472547
 1 -3.65200283148315 -0.12674634473447  0.07263539683968
 1  2.97530823022302  2.97302769886989  1.72602125742574
 1  1.44890209100910  3.10685141694169  1.12137186468647
 1  2.83176023482348  3.28568904240424 -0.06167013661366
 1 -2.91850371997200 -3.39668802470247 -1.70666567736774
 1 -3.30228183398340 -3.77859985288529 -0.05938128672867
 1 -1.56475744704470 -3.74809514391439 -0.73502572897290
 1  0.50616301710171  0.97066298149815  0.42946359155916
 1 -1.38965005360536  0.07792577977798  0.14553682758276
 1  2.03127167166717 -1.37436648634863 -0.51025058925893
 1  0.05459597039704 -2.60667570987099 -0.90677153805381

