%nproc=4
%Mem=2GB
# td=(NStates=1) B3LYP/6-31G(d,p) 

TD

0 1
 6  12.17962230483048  0.54162476297630 -0.66873299219922
 6 -12.08518083218322 -0.08565360696070  0.92536171507151
 6  13.37288670137014 -0.32314197419742 -0.68783478247825
 6 -12.94213071297130  1.14678907040704  1.43215392979298
 6  13.18420073427343 -1.83943961636164 -0.65387714651465
 6 -13.38390298639864  1.97578609070907  0.15081544864486
 6  11.00454224812481 -0.05350108560856  0.21565910371037
 6 -11.02171983978398  0.42014189648965 -0.18928656345635
 6  12.36521095849585 -2.11894418841884  0.56944092039204
 6 -12.23742362496250  2.60940124832483 -0.66946528242824
 6  11.12069177717772 -1.29628168266827  0.86185275367537
 6 -11.19932472667267  1.59183480528053 -0.94994386808681
 6  11.57909849754976  0.61976310141014 -2.12966144474447
 6  12.55252866626663  1.86693074817482 -0.29355087408741
 6 -12.92455004580458 -1.16001312001200  0.23993782368237
 6 -11.33608247624762 -0.56723989758976  2.23980212841284
 6  9.90226828942894  0.85233134673467  0.42909490999100
 6 -9.93594340124012 -0.52698524062406 -0.31886597439744
 6  10.22498667496750 -1.88520833253325  1.94309694459446
 6 -10.24237720792079  2.05214695379538 -1.88895035993599
 6  8.64113035273527  0.45107506370637  0.40169837603760
 6 -8.56314927332733 -0.30971083638364 -0.28054437733773
 6  7.44230279847985  1.38563736403640  0.42160477307731
 6 -7.52144103800380 -1.35339381448145 -0.44542493939394
 6  7.66261931163116  2.82012464966497  0.68198063506351
 6 -7.95487267546755 -2.81173118421842 -0.59354663226323
 6  6.16581048254826  0.76359074807481  0.33956611561156
 6 -6.18629723962396 -0.91399222182218 -0.34857696939694
 6  4.92116276697670  1.42410474237424  0.33782344134413
 6 -4.97655726752675 -1.64964094189419 -0.57317869946995
 6  3.66519523112311  0.84666223142314  0.24897684698470
 6 -3.76981236643664 -1.11729236193619 -0.38138057575758
 6  2.41023432483248  1.31764247194719  0.40286477437744
 6 -2.50599959935994 -1.76535159385939 -0.33037631773177
 6  2.22350672227223  2.85219458595860  0.47913228652865
 6 -2.59027957335734 -3.24154768126813 -0.74757610771077
 6  1.18483003150315  0.61313265486549  0.14676959395940
 6 -1.38308648174817 -1.10196876887689 -0.17137584268427
 6  1.13521789398940 -0.82338728592859  0.04025650595059
 6  0.00822136173617 -1.56117235703570 -0.11168492449245
 1  14.02436254205421 -0.02461003150315  0.11770981388139
 1  13.73588060186019  0.12527415171517 -1.71296483488349
 1 -12.32739910491049  1.86318870907091  2.05568913371337
 1 -13.86453731133113  0.82772226452645  1.92689912801280
 1  14.06690731273127 -2.31264208190819 -0.63684713051305
 1  12.61717759945995 -2.02451635163516 -1.49403552685269
 1 -14.02249563776378  2.83576693669367  0.56695773337334
 1 -14.14957974177418  1.25632530673067 -0.50736475857586
 1  13.04436640044004 -2.15773828042804  1.61527340934093
 1  11.84866232073207 -3.08831252335233  0.36351320692069
 1 -11.82724251635164  3.49232695339534 -0.12065554855486
 1 -12.68671488538854  3.10695420322032 -1.66557045824582
 1  11.56603997449745 -0.44956803410341 -2.55557369006901
 1  12.16450333103310  1.32845750705071 -3.00922749674967
 1  10.41575914721472  0.82871598329833 -2.14678539803980
 1  12.43178413251325  1.98570547244725  0.68866620712071
 1  11.74051245814581  2.71450136103610 -0.70708486548655
 1  13.58580043634363  2.11784205410541 -0.75381765286529
 1 -13.50195942664267 -0.83627763676368 -0.58968506920692
 1 -13.66050822342234 -1.50756656085609  0.94750197089709
 1 -12.37689529272927 -2.14098250315031  0.07036115361536
 1 -10.62530502140214  0.16180054065407  2.46055571467147
 1 -10.69177570297030 -1.47304830553055  2.00048406460646
 1 -12.02312637663766 -0.68637310521052  3.03568209630963
 1  10.05332873947395  1.92263712381238  0.40359626752675
 1 -10.11944638933893 -1.49167427742774 -0.32061843984398
 1  9.56063014051405 -1.06198379307931  2.39632338993899
 1  10.96431724582458 -2.28864506240624  2.76863829382938
 1  9.29901196839684 -2.69475932593259  1.48267788938894
 1 -9.65194222952295  0.97971028362836 -2.11960445734573
 1 -9.67279208410841  2.80115363736374 -1.53534358055806
 1 -10.63346361136114  2.47588259365937 -2.71316128942894
 1  8.38785437623762 -0.63111389158916  0.34085713531353
 1 -8.26958035323532  0.71448564266427  0.05684203170317
 1  7.97855108720872  3.01036607250725  1.63729311181118
 1  6.81610349104910  3.35261296549655  0.71652423212321
 1  8.43154739243924  3.23571223322332  0.02852963006301
 1 -8.58712966516652 -3.00160721982198 -1.56214290789079
 1 -8.38066905520552 -2.99524271157116  0.27488362766277
 1 -7.00139469206921 -3.38528117941794 -0.84810369556956
 1  6.16354721922192 -0.29714494129413  0.34297228052805
 1 -6.02101408600860  0.19169110761076 -0.42688296509651
 1  4.96895025232523  2.51416986108611  0.66373928072807
 1 -4.99441954225423 -2.78305182158216 -0.86565870697070
 1  3.62092235893589 -0.31578614851485  0.42182182058206
 1 -3.74496212741274 -0.03388705880588 -0.18023989068907
 1  2.74376507590759  3.23646404250425  1.40055871117112
 1  1.10496769756976  3.06062679447945  0.70932065956596
 1  2.43799085788579  3.50734120762076 -0.44370834043404
 1 -2.95268713831383 -3.61782013791379 -1.84772978377838
 1 -3.34655626142614 -3.79701169406941 -0.19269461806181
 1 -1.65962693399340 -3.69973030743074 -0.75472769916992
 1  0.31092349314932  1.11461737693769  0.02567321252125
 1 -1.52806389498950  0.00777876507651 -0.16735446154615
 1  2.12939148364836 -1.40795984568457 -0.07086665086509
 1  0.08888939973997 -2.61249629192919 -0.47262812371237

