%nproc=4
%Mem=2GB
# td=(NStates=1) B3LYP/6-31G(d,p) 

TD

0 1
 6  12.12465680828083  0.63615421592159 -0.58502462136214
 6 -11.99433174727473 -0.02969801140114  0.93106228512851
 6  13.45930534323433 -0.24160382038204 -0.44262026102610
 6 -12.93724022392239  1.20307469896990  1.41076179057906
 6  13.25406772097210 -1.77169284168417 -0.47661942074207
 6 -13.50035463156316  2.10998951105111  0.21675204230423
 6  10.99720151405141  0.03426769126913  0.15711324912491
 6 -10.97329499729973  0.44670455275528 -0.08509614441444
 6  12.27885232263226 -2.15549784378438  0.61337531383138
 6 -12.20204008660866  2.68587889608961 -0.45494383028303
 6  11.14865457345735 -1.12403445794579  0.86423299169917
 6 -11.00617541174117  1.69653527532753 -0.79738861256126
 6  11.81287187488749  0.63409453455346 -2.05813429202920
 6  12.49431284468447  2.00858491359136 -0.24759627862786
 6 -12.95361295209521 -1.12793991269127  0.27036086598660
 6 -11.30222909090909 -0.56516969056906  2.10877902610261
 6  9.93345140774077  0.88458457205721  0.47129913041304
 6 -9.92755256215622 -0.58570111221122 -0.38464255205521
 6  10.11690586688669 -1.67322713441344  1.84553718861886
 6 -10.05059803000300  2.15237697679768 -1.77162862776278
 6  8.62884912461246  0.49315927212721  0.36148435463546
 6 -8.55653861226123 -0.31533139843984 -0.37293361626163
 6  7.34824339253925  1.28566736703670  0.31888450105011
 6 -7.53703259715972 -1.37046552165217 -0.47518791569157
 6  7.48478152785279  2.81595423262326  0.58933137013701
 6 -7.87924511271127 -2.79832984408441 -0.79555683328333
 6  6.10658455995600  0.71724611361136  0.33671583058306
 6 -6.18614722462246 -0.95067589018902 -0.24392650435044
 6  4.84142479317932  1.29310164206421  0.21566122512251
 6 -5.01312092389239 -1.79034501230123 -0.33603498509851
 6  3.67900661226123  0.63840140534053  0.12159410871087
 6 -3.83685907110711 -1.16850748344834 -0.24657709540954
 6  2.37063036443644  1.25095580328033  0.22843733163316
 6 -2.55321432083208 -1.90046510521052 -0.38226150625062
 6  2.23975834743474  2.77687705420542  0.39844421772177
 6 -2.65092563796380 -3.35084861136114 -0.55777712781278
 6  1.20130167866787  0.44393573517352  0.11535645264526
 6 -1.32244041714171 -1.21216978897890 -0.34391309640964
 6  1.04040841304130 -0.91044599179918 -0.20025754545455
 6 -0.05550501090109 -1.69206544634463 -0.36789054505451
 1  13.96173627942794  0.00736316581658  0.51732977587759
 1  14.10567758155816  0.22545416971697 -1.11976551495149
 1 -12.47318368336834  1.81943433363336  2.22112567736774
 1 -13.82328318591859  0.76556604890489  1.83499993809381
 1  14.17846846884689 -2.20093091079108 -0.22487593339334
 1  12.81229711141114 -2.14285818581858 -1.51111723502350
 1 -14.20660404860486  2.98951231123112  0.61039207680768
 1 -14.18628341214121  1.59216889108911 -0.53807782988299
 1  12.96240820462046 -2.38934144074407  1.38516039803980
 1  12.10093754825482 -3.18802249434943  0.42598945454545
 1 -11.76500629272927  3.57997571827183  0.23780029702970
 1 -12.12874908880888  3.22956646444645 -1.56203010421042
 1  11.29919328982898 -0.31992506980698 -2.38603673637364
 1  12.59340622132213  0.85322998429843 -2.69633620762076
 1  11.05952352365236  1.31184429612961 -2.07010773027303
 1  12.72064301840184  2.19786668856886  0.74864220472047
 1  11.78860726762676  2.90006991789179 -0.64853901090109
 1  13.34343619991999  2.40066033593359 -0.75911818291829
 1 -13.78931816251625 -0.46159016801680 -0.31875797649765
 1 -13.48462063466347 -1.57205300950095  0.90816803750375
 1 -12.16880448364837 -1.64299270417042 -0.50180606310631
 1 -10.66174866576658  0.31311567216722  2.46417607670767
 1 -11.02722924832483 -1.50866186688669  2.06185020122012
 1 -12.13589765376538 -0.65698016591659  3.01227975607561
 1  10.11905531213121  2.01361622172217  0.53202911081108
 1 -10.21689613431343 -1.63623873387339 -0.31077745574557
 1  9.56185026252625 -0.96392398709871  2.33921767936794
 1  10.71793260736074 -2.26662286018602  2.61947337733773
 1  9.61801386858686 -2.51115096509651  1.31313093469347
 1 -9.48026506180618  1.16062837543754 -2.07329982688269
 1 -9.27957276217622  2.76513003500350 -1.17764781098110
 1 -10.52392265726573  2.92223722912291 -2.51145111841184
 1  8.35136072687269 -0.59060984118412  0.24436748634863
 1 -8.21297469266927  0.84297849194919 -0.14733838633863
 1  8.17016024812481  3.10040507640764  1.36431581408141
 1  6.77854973567357  3.29625732993299  0.92862544224422
 1  7.92504674237424  3.25990465246525 -0.41690491339134
 1 -8.59245019721972 -2.83179023812381 -1.71378807240724
 1 -8.47019800810081 -3.18090127742774 -0.00248410911091
 1 -7.21806635923592 -3.51096374767477 -0.99096798199820
 1  6.11606247074707 -0.37511273807381  0.26656463976398
 1 -6.13806579117912  0.10867280578058 -0.02086236303630
 1  4.92973633093309  2.45723416751675  0.25459836663666
 1 -5.10444054435443 -2.81581509790979 -0.46836897799780
 1  3.60257052375238 -0.40272484238424  0.13846348474847
 1 -3.50855848704871 -0.16540021012101 -0.02357422412241
 1  2.71937263666367  2.93342373847385  1.19322797809781
 1  1.24883208400840  3.09301003280328  0.51475120262026
 1  2.49517657645765  3.40982145564556 -0.48816278587859
 1 -3.31417328692869 -3.54307266316632 -1.32071708250825
 1 -3.07793939973997 -3.80228222112211  0.14271892329233
 1 -1.72248321962196 -3.91669200360036 -0.85441766816682
 1  0.47644004480448  1.00902681788179  0.10515116031603
 1 -1.50444153275327 -0.05884789758976 -0.21385911201120
 1  2.01680022452245 -1.45059410911091 -0.38926849104910
 1  0.21191170197020 -2.63717876017602 -0.37744860576058

