%nproc=4
%Mem=2GB
# td=(NStates=1) B3LYP/6-31G(d,p) 

TD

0 1
 6  12.07409175177518  0.49062966346635 -0.88709482838284
 6 -12.19245155925593 -0.09214425602560  0.77361654055406
 6  13.33888330103010 -0.38275793579358 -0.87566356535654
 6 -13.03118961886189  1.08856324782478  1.17675839023902
 6  13.05480779497950 -1.92123779617962 -0.63456521532153
 6 -13.39182377847785  2.05583409550955  0.05335570267027
 6  11.07561935583558 -0.02378811431143  0.18704624242424
 6 -10.93060072787279  0.41553143544354 -0.13643127792779
 6  12.39254369176918 -2.14189648364836  0.72386636293629
 6 -12.08219810241024  2.63999430763076 -0.53298163406341
 6  11.24056376437644 -1.11005305980598  0.91784835323532
 6 -11.01655644984498  1.65461108290829 -0.76987586128613
 6  11.38929951765177  0.35232635773577 -2.32763124172417
 6  12.53509692309231  1.95851990709071 -0.60824234323432
 6 -13.09981757255726 -1.11679879857986  0.01149497939794
 6 -11.66990585858586 -0.79687286088609  2.07390553875388
 6  9.82550061266127  0.83554966856686  0.36928892939294
 6 -9.95108491539154 -0.57195973807381 -0.26916100390039
 6  10.30490466676668 -1.57770758245825  2.04602723762376
 6 -10.02244521472147  2.16682842194219 -1.73591505640564
 6  8.57900414011401  0.41896185238524  0.29371757795780
 6 -8.63573653205320 -0.38813867916792 -0.27205352825283
 6  7.41914048224822  1.24895369566957  0.55191780438044
 6 -7.59215810971097 -1.36059453455346 -0.35055545244524
 6  7.63876692639264  2.73214585178518  0.81959439643964
 6 -7.88503569176918 -2.86030604170417 -0.76527380498050
 6  6.16308020952095  0.77907229622962  0.47846000500050
 6 -6.23230184008401 -0.92460328292829 -0.22749486118612
 6  4.86869752045205  1.48088041994199  0.57888754775478
 6 -5.01823143494349 -1.72007798559856 -0.34833621522152
 6  3.73177188878888  0.87180474567457  0.27678962826283
 6 -3.74013939913991 -1.06203683638364 -0.26674911261126
 6  2.34566786818682  1.36073678137814  0.33919840774077
 6 -2.40750975037504 -1.80390544924492 -0.37708098819882
 6  2.28963333493349  2.81149051555155  0.73912828612861
 6 -2.49020956635664 -3.20166369286929 -0.58707005710571
 6  1.16789833833383  0.68542988458846  0.16622153915392
 6 -1.31342951605161 -1.07829640164016 -0.32097080218022
 6  1.22318669086909 -0.72133708090809 -0.01483900360036
 6  0.05719625922592 -1.49472571237124 -0.28888264426443
 1  14.29947005280528  0.03288571807181 -0.22650460756076
 1  13.90511752555255 -0.15501387708771 -2.02596613501350
 1 -12.14935130013001  1.59387177737774  1.87251081588159
 1 -13.90760161776178  0.72354184648465  1.83325976407641
 1  13.87234785678568 -2.49516033373337 -0.55364881068107
 1  12.51249713141314 -2.32574647464746 -1.36741286458646
 1 -13.94975836403640  2.93847720772077  0.40793183078308
 1 -13.91497628142814  1.61405107930793 -0.68791281338134
 1  13.09794175797580 -1.93843635023502  1.51161304330433
 1  11.95684313881388 -3.11168486058606  0.80845770137014
 1 -11.74338413051305  3.39479720042004  0.22060857785779
 1 -12.21160737463746  2.96786029382938 -1.37116101730173
 1  11.25000837133713 -0.76771984928493 -2.53424155685569
 1  12.08665554625463  0.69479414071407 -3.15947252125213
 1  10.45141271257126  0.72523563526353 -2.34386510601060
 1  13.01771272537254  2.25557245914591  0.32738007850785
 1  11.65153356025603  2.65557546844684 -0.66935109210921
 1  13.40095195149515  2.14568483838384 -1.38309058015802
 1 -13.70046927762776 -0.48227223622362 -0.82685878657866
 1 -13.98307047964797 -1.44679048324833  0.64900212091209
 1 -12.56459406260626 -2.05386379127913 -0.51755763826383
 1 -11.00112260316032 -0.20663630303030  2.53194285338534
 1 -11.18004452985299 -1.68486948764877  1.94333835003500
 1 -12.45658972297230 -1.06637110501050  2.80878940704070
 1  10.24783819041904  1.90648550865086  0.40129603750375
 1 -10.66577102180218 -1.51215632563256 -0.36336271427143
 1  9.68258233573357 -0.69426702140214  2.27952170977098
 1  10.99579039313931 -1.61866806470647  2.99163059305931
 1  9.56996906410641 -2.58694854485449  2.09329895149515
 1 -9.15874290959096  1.46539885248525 -1.80804330123012
 1 -9.71552635753575  3.11728525052505 -1.39187923412341
 1 -10.46819708470847  2.28483348874888 -2.72420239353935
 1  8.49295488628863 -0.60623140334033  0.26156920652065
 1 -8.40034342954295  0.57128132223222  0.23371971947195
 1  8.24494772687269  2.81113614951495  1.66347573007301
 1  6.60679255995600  3.31187889208921  0.89100167986799
 1  8.45906014371437  3.24619328132813  0.17106388348835
 1 -8.27522847504751 -2.87905496459646 -1.70439713331333
 1 -8.44486547484748 -3.36720990829083  0.00500663996400
 1 -6.95370992359236 -3.51999465076508 -1.13729261446145
 1  5.88582944744474 -0.43706893369337  0.41463944724472
 1 -6.01294327892789  0.05937787628763 -0.01188146494649
 1  4.96349970727073  2.43338178227823  0.95795870267027
 1 -5.20703080338034 -2.85474899129913 -0.67190933203320
 1  3.71080134683468 -0.11448601850185  0.03802344074407
 1 -3.73236086728673 -0.18105177527753  0.20739887318732
 1  2.48320902030203  3.14047444354435  1.76367502280228
 1  1.25893309410941  3.53587431923192  0.40826055355536
 1  3.05760281908191  3.31943241674167 -0.03029699929993
 1 -2.82060392999300 -3.54207256315632 -1.56899190999100
 1 -3.31983358915892 -3.72332432533253  0.16862151355135
 1 -1.38070904220422 -3.62756309070907 -0.44685691209121
 1  0.36269867066707  1.30789670487049  0.39624026922692
 1 -1.52589367796780 -0.00121213401340 -0.26103382948295
 1  2.25436398089809 -1.11828087778778 -0.02365192939294
 1  0.37732824362436 -2.64046908920892 -0.28342920382038

