%nproc=4
%Mem=2GB
# td=(NStates=1) B3LYP/6-31G(d,p) 

TD

0 1
 6  12.15538988158816  0.56956755725573 -0.70440655955596
 6 -12.19830214431443  0.00013497189719  0.79506868576858
 6  13.41368078077808 -0.21857151715172 -0.54005000400040
 6 -13.08625512541254  1.23429782128213  1.19741045544554
 6  13.30181249544954 -1.78984465686569 -0.58674043284328
 6 -13.43439803590359  2.05659417151715 -0.06081571447145
 6  11.07403919781978  0.00543480798080  0.11439897769777
 6 -10.98846651445144  0.40594047634763 -0.14681231603160
 6  12.33695813321332 -2.06370866486649  0.58102207850785
 6 -12.10438032063206  2.62196250445044 -0.61426976287629
 6  11.19588929692969 -1.17068912341234  0.74249081748175
 6 -11.02533732793279  1.61808743054305 -0.76022489618962
 6  11.65465605330533  0.77198832393239 -2.22510098869887
 6  12.45937935133513  2.08632268736874 -0.21251277027703
 6 -12.97593518431843 -1.20579769846985  0.05404923482348
 6 -11.54218308630863 -0.55540871447145  2.10389853805381
 6  9.85643370597060  0.81711782538254  0.30911291179118
 6 -9.91476128302830 -0.48113065516552 -0.30213430123012
 6  10.16201037733773 -1.73204301600160  1.73862649754975
 6 -9.92415538573857  2.04719645874587 -1.74512597749775
 6  8.49594583428343  0.37708766496650  0.27722592879288
 6 -8.60812377077708 -0.31503136843684 -0.22828915181518
 6  7.39439800800080  1.25353415371537  0.36081869446945
 6 -7.55359425332533 -1.25791426652665 -0.26512690959096
 6  7.55893894359436  2.76199883708371  0.63440587758776
 6 -7.90390757895790 -2.68133814491449 -0.56307358495850
 6  6.08009191069107  0.66966135513551  0.24893705270527
 6 -6.25686429632963 -0.85367619021902 -0.21081319301930
 6  4.89976062676268  1.34458679057906  0.46315597459746
 6 -5.03581319311931 -1.63839981778178 -0.17268865046505
 6  3.76730544214421  0.58961652685269  0.34957690699070
 6 -3.79239462466247 -1.14466509920992 -0.19695213291329
 6  2.37548084948495  1.18817952565257  0.38404289218922
 6 -2.59377837723772 -1.81394645334533 -0.40260354045405
 6  2.33369774137414  2.63051241774177  0.65669004230423
 6 -2.51229177457746 -3.35040856735674 -0.55662701280128
 6  1.27818936743674  0.46470781238124  0.24969988698870
 6 -1.39926809990999 -1.09763833583358 -0.34477318241824
 6  1.11309568176818 -0.95163011021102 -0.07075459515952
 6 -0.04243370377038 -1.67542378217822 -0.29305306130613
 1  14.18372847864786  0.24186661616162  0.27024506740674
 1  13.96623363716372  0.39106073037304 -1.40529406780678
 1 -12.49039540454045  1.93426581678168  1.65050861566157
 1 -13.80110096769677  0.85385487778778  1.85325176327633
 1  14.31374199619962 -2.18347916561656 -0.26390983678368
 1  13.04841072277228 -1.90610451045105 -1.56377250055005
 1 -14.07668105630563  2.83321668166817  0.13433447104710
 1 -13.89715449924993  1.45981565576558 -0.76835085718572
 1  12.89226118991899 -2.11968447504750  1.52431431343134
 1  11.97678513301330 -3.00355404750475  0.53702055765577
 1 -11.62503229532953  3.56246396709671 -0.25800928392839
 1 -12.15231144504451  2.95160866866687 -1.48443234443444
 1  11.08769213971397 -0.07642071937194 -2.75832396509651
 1  12.43750063076308  1.01981664296430 -3.06464303830383
 1  10.87101467276728  1.49689280098010 -2.30475119461946
 1  12.60928188228823  1.97709461136114  0.86882422292229
 1  11.75325373227323  2.79259917081708 -0.35219937693769
 1  13.36484834113411  2.51523179307931 -0.87127939903990
 1 -13.36274550525053 -0.58358236723672 -0.81778787948795
 1 -13.83491566416642 -1.48274407860786  0.71687890859086
 1 -12.22222982618262 -1.94593299819982 -0.33049893239324
 1 -10.77482997389739  0.32265662626263  2.44939459855986
 1 -11.11709823522352 -1.43120412111211  2.04486850305030
 1 -12.26647071107111 -0.99319378727873  2.93495202330233
 1  10.03673708030803  1.75496035613561  0.41326723462346
 1 -10.17494193889389 -1.60066517651765 -0.45003138113811
 1  9.41047512501250 -1.01683927862786  1.95770952855285
 1  10.66977779187919 -2.12169836773677  2.79756118611861
 1  9.78428049524953 -2.62698254825483  1.15519514111411
 1 -9.46945398069807  1.08416072867287 -1.91124362126213
 1 -9.11807661256126  2.62433595559556 -1.21674172037204
 1 -10.51257152215222  2.35212021742174 -2.66425639893989
 1  8.42506809760976 -0.75281606180618  0.09603265286529
 1 -8.28885228042804  0.65721991609161  0.04359070657066
 1  8.50640387248725  2.87220225612561  1.36480586308631
 1  6.52641452215221  3.33936164036404  1.10153273297330
 1  7.94409864756476  3.34915357735774 -0.08439166206621
 1 -8.64963591579158 -2.64697175627563 -1.51299799339934
 1 -8.68770975927593 -3.04760794809481  0.19350548984898
 1 -7.18840339293930 -3.44606725802580 -0.74830371557156
 1  6.17394825932593 -0.32403763056306  0.14627261056106
 1 -6.13030501510151  0.32073401190119 -0.05037531433143
 1  4.82340569786979  2.36429487358736  0.59396230303030
 1 -5.24779487978798 -2.69464298069807 -0.29069121022102
 1  3.81541180788079 -0.50422499239924  0.02210184858486
 1 -3.80342797399740 -0.03528719881988 -0.13738560526053
 1  2.62286298569857  3.02722311841184  1.71057971327133
 1  1.36397359815982  3.12420315211521  0.58479820732073
 1  2.76369342814281  3.02642311581158 -0.19506347594759
 1 -2.98956082568257 -3.56797515341534 -1.52160717151715
 1 -2.95342694849485 -3.75581757465747  0.35075972737274
 1 -1.57443841514151 -3.77627796219622 -0.64429665606561
 1  0.31937433823382  1.11040695589559 -0.04508386318632
 1 -1.54239532813281 -0.11738375117512 -0.02641036713671
 1  2.06271481598160 -1.51915096479648 -0.24715427962796
 1  0.07833834463446 -2.61358640094009 -0.11575243614361

