%nproc=4
%Mem=2GB
# td=(NStates=1) B3LYP/6-31G(d,p) 

TD

0 1
 6  12.08424276687669  0.50959155965597 -0.76684280318032
 6 -12.01172348644864 -0.02109715131513  0.90064924382438
 6  13.38526793949395 -0.43220288028803 -0.69547554655466
 6 -12.89056555645565  1.19419381088109  1.34854556895690
 6  12.99378169236924 -1.93929960236024 -0.70657241604160
 6 -13.29171376747675  2.03362187428743  0.15431579867987
 6  10.94217601150115  0.07898216271627  0.11314885268527
 6 -11.00577824562456  0.42242212451245 -0.15969360416042
 6  12.19563400080008 -2.09846214021402  0.54759873617362
 6 -12.05812569516952  2.66407671587159 -0.59419775567557
 6  11.02533224122412 -1.16471852635264  0.82320888928893
 6 -11.00017481168117  1.62535815761576 -0.76551542524252
 6  11.59700028772877  0.61155228032803 -2.13657213581358
 6  12.68781219461946  1.84946900200020 -0.32873439243924
 6 -12.99916750755076 -1.00803792249225  0.17885171507151
 6 -11.37222609060906 -0.56623979757976  2.16030417861786
 6  9.81837990059006  0.91664777837784  0.34836683718372
 6 -9.93105291219122 -0.60498304040404 -0.33215730353035
 6  10.14317849414941 -1.62573238493849  1.89572220712071
 6 -10.07389035923593  2.00377211631163 -1.89210067496750
 6  8.56224246394640  0.59601955815582  0.31037924412441
 6 -8.67130008840884 -0.37868773407341 -0.37149347224722
 6  7.41294986318632  1.38556735703570  0.45058767136714
 6 -7.54563345724573 -1.43419189428943 -0.48635903280328
 6  7.63804685438544  2.87737037423742  0.89949238623862
 6 -8.00861805000500 -2.85280529162916 -0.93261053865387
 6  6.19363326482648  0.86144053305331  0.34575673467347
 6 -6.25635424532453 -1.01233205580558 -0.43647575927593
 6  4.89996064676468  1.41020335223522  0.41071073007301
 6 -5.09480909270927 -1.80603658145815 -0.44249563116312
 6  3.79402811441144  0.78574613981398  0.26874882418242
 6 -3.87794317951795 -1.24883551625163 -0.22968540624062
 6  2.40748404980498  1.30435114281428  0.43127761566157
 6 -2.46388538793879 -1.88352341104110 -0.20675395549555
 6  2.26882125372537  2.81754112061206  0.55097947124712
 6 -2.51407195259526 -3.36747027352735 -0.43490484058406
 6  1.30725227372737  0.65655699729973  0.23964888188819
 6 -1.36813498659866 -1.07701627362736 -0.05404410951095
 6  1.11481585378538 -0.81878682588259 -0.11764928462846
 6 -0.02205166556656 -1.58280452025203 -0.25298905490549
 1  14.00409051485148 -0.21990956145615  0.16487453035303
 1  14.15414242804280 -0.15042341804180 -1.49030256865687
 1 -12.47768413341334  1.94043643384338  2.11880544534453
 1 -13.86799765736574  0.92643213551355  1.68639507760776
 1  13.78608923092309 -2.66584740244024 -0.84370781658166
 1  12.47282316401640 -2.15226912691269 -1.49219534283428
 1 -13.70821420962096  2.81801516151615  0.39150018761876
 1 -13.89326411021102  1.64721439563956 -0.43760778287829
 1  12.77466943074307 -1.96146865346535  1.35809769176918
 1  11.69785724022402 -3.22152584468447  0.65242209780978
 1 -11.65271506360636  3.21652937363736  0.27346386338634
 1 -12.32295850975098  3.41481498929893 -1.48179208040804
 1  11.35303867436744 -0.18187126442644 -2.70426855955596
 1  12.26125300600060  1.25667032833283 -2.83094966896690
 1  10.71313888518852  1.09362247394739 -2.23282400190019
 1  13.10427138123812  1.76306320822082  0.73130047054705
 1  11.88547695459546  2.69944985588559 -0.30542469946995
 1  13.48358021432143  2.28740901080108 -1.10372264336434
 1 -13.60949017971797 -0.53217722672267 -0.70737683838384
 1 -13.87505967856786 -1.28303410761076  0.99476669736974
 1 -12.72932053525353 -1.97292569746975 -0.28111399389939
 1 -10.51089358025803  0.01258561916192  2.52098175727573
 1 -10.93432995839584 -1.69108010871087  1.87895191139114
 1 -12.25048911291129 -0.76457092499250  3.00996952505250
 1  9.88511191779178  1.99086394649465  0.56125203310331
 1 -10.27295173987399 -1.95597070707071 -0.39447582558256
 1  9.53348742624262 -0.85969356405641  2.36690044764476
 1  10.73735454955496 -1.81217741564156  2.74120555055506
 1  9.77230929812981 -2.59237908790879  1.65641526312631
 1 -9.30782781808181  1.23237555015502 -2.05675817271727
 1 -9.53999880478048  3.20664418641864 -1.79522956915692
 1 -10.58911917691769  2.12713771917192 -2.85797577087709
 1  8.47912350315031 -0.48296907710771  0.23869691929193
 1 -8.25833922912291  0.57081127522752 -0.33384703720372
 1  8.20418365046505  2.97182221812181  1.86582596509651
 1  6.73049493019302  3.41586929112911  0.96961954165417
 1  8.18092232993299  3.45566422842284 -0.01017424032403
 1 -8.78948990119012 -2.64545160426043 -1.60275696929693
 1 -8.39302029032903 -3.32057524482448 -0.17565142584258
 1 -6.99532408500850 -3.46960961226123 -1.16492537773777
 1  6.15212607710771 -0.15707093389339  0.04762274557456
 1 -5.95217720232023  0.01172311081108 -0.11552182898290
 1  4.97271062836284  2.53736218031803  0.75308821562156
 1 -5.05320542084208 -2.99114263066307 -0.73100524162416
 1  3.88435870257026 -0.17766233613361  0.11923156155616
 1 -3.78272590379038 -0.21639530963096 -0.28543040974097
 1  2.72328302770277  3.02926332243224  1.62652130743074
 1  1.30604780558056  3.25112584438444  0.29498922642264
 1  2.77086414521452  3.27449792329233 -0.31876584618462
 1 -3.34690656025603 -3.60880923682368 -1.35396040684068
 1 -3.02358396419642 -3.79668166106611  0.47448209960996
 1 -1.44049502080208 -3.74290462486249 -0.76227845424542
 1  0.36509891069107  0.92322823802380  0.45878652385239
 1 -1.42766385498550 -0.09515152795280  0.16805907980798
 1  1.96922546704670 -1.51783083278328 -0.31763132733273
 1  0.17109762056206 -2.76882192449245 -0.48583944484448

