%nproc=4
%Mem=2GB
# td=(NStates=1) B3LYP/6-31G(d,p) 

TD

0 1
 6  12.15750009260926  0.53040364086409 -0.92019813871387
 6 -12.12934524862486 -0.06064110571057  0.72896207510751
 6  13.46067548024803 -0.33675333533353 -0.72088808780878
 6 -13.11197769766977  1.08931332283228  1.23666438083808
 6  13.11749406360636 -1.77444311671167 -0.58260001880188
 6 -13.42582717881788  2.04996350845085 -0.00919055195520
 6  11.07916971087109  0.08411267576758  0.23630116791679
 6 -11.07011467926793  0.45599548184818 -0.17273490829083
 6  12.42639707710771 -1.94023631763176  0.80439441574157
 6 -12.02059194179418  2.71584189238924 -0.34477281318132
 6  11.21889159715972 -1.15609766426643  0.99643621202120
 6 -10.90999579377938  1.68581420322032 -0.66785565926593
 6  11.52913350105011  0.32719384448445 -2.26866534513451
 6  12.50918433183318  2.04996905200520 -0.64375589458946
 6 -13.10343793459346 -1.09794691339134 -0.10048621872187
 6 -11.64552342034203 -0.84072724632463  1.95741388958896
 6  9.85313337593759  0.93582969656966  0.33427542804280
 6 -9.92186199309931 -0.48655119721972 -0.41196528432843
 6  10.21579575587559 -1.51226103780378  2.07016965186519
 6 -9.87228019821982  2.32627436653665 -1.58228969386939
 6  8.61344758445845  0.50172012821282  0.28926713291329
 6 -8.64747770617062 -0.34605447074707 -0.18341466436644
 6  7.31727029522952  1.28932773307331  0.35221783438344
 6 -7.44390328422842 -1.31085956105611 -0.45583598049805
 6  7.58968201790179  2.78712134933493  0.59220165716572
 6 -7.87538472667267 -2.77301731283128 -0.74515179277928
 6  6.24409831133113  0.80461485048505  0.18489064806481
 6 -6.24595320522052 -0.85455627822782 -0.20176228792879
 6  4.89219987068707  1.37278961086109  0.41064072307231
 6 -5.02918253005301 -1.65117109490949 -0.41702308390839
 6  3.69184789638964  0.68308587378738  0.41806375567557
 6 -3.84205959115912 -1.12517315001500 -0.23015545324532
 6  2.35296859825983  1.11359206690669  0.48963345124512
 6 -2.51033003240324 -1.82245730443044 -0.28999227932793
 6  2.34758913051305  2.69455882238224  0.64943931723172
 6 -2.56306685208521 -3.29645317181718 -0.70387173727373
 6  1.28777032553255  0.46516785838584  0.23269818681868
 6 -1.42937111021102 -1.15321389338934 -0.03220192529253
 6  1.18972334453445 -0.95566051325132 -0.03557107680768
 6 -0.09965942634263 -1.64230046984698 -0.11157491349135
 1  14.03782388818882 -0.15473304380438  0.07549559245925
 1  14.09083609740974 -0.25713408910891 -1.67478101650165
 1 -12.74372073707371  1.60819320952095  2.12080564536454
 1 -13.92057291489149  0.60880037233723  1.66627306540654
 1  14.21578220022002 -2.24080489818982 -0.63938738453845
 1  12.53166904860486 -2.20676457645765 -1.28448457175718
 1 -14.22431581978198  2.68263162316232  0.31561259885989
 1 -13.93733851765177  1.40853052725273 -0.76714073617362
 1  13.27004896869687 -1.75933844044404  1.59723160516052
 1  11.99477693219322 -2.99825351745175  0.97912476807681
 1 -11.72117190929093  3.35557327802780  0.53829034603460
 1 -12.28583479737974  3.24515802360236 -1.35505940714071
 1  11.78548191869187 -0.80508358565857 -2.61841997469747
 1  12.12765964666467  1.15151981328133 -3.14271084508451
 1  10.40685825712571  0.56332944464446 -2.26429714921492
 1  12.50891184528453  2.39407630953095  0.31433877437744
 1  11.86653506040604  2.77379729062906 -1.33000715771577
 1  13.44598645494549  1.98899916981698 -1.03707597869787
 1 -13.68002723342334 -0.40856486548655 -0.68234433513351
 1 -13.97338951155115 -1.34884068826883  0.53468068876888
 1 -12.41267887108711 -1.83925233013301 -0.48786466896690
 1 -11.17863035393539 -0.24989062846285  2.72219187828783
 1 -11.04739126452645 -1.82465346604660  1.46210022622262
 1 -12.42348641264126 -1.12388685658566  2.52634116221622
 1  10.00407381398140  1.90034489458946  0.32134804270427
 1 -10.41201564626463 -1.69248435843584 -0.71268764676468
 1  9.63582766026603 -0.59168676337634  2.26227998559856
 1  10.70850166426643 -1.93896009390939  2.94273570357036
 1  9.70490255745575 -2.28651850185019  1.74412403400340
 1 -9.16992402770277  1.44884719731973 -1.65354785168517
 1 -9.48286309120912  3.15355887788779 -0.97982802900290
 1 -9.99960022502250  2.80595560096010 -2.60763073637364
 1  8.38238382918292 -0.59247002720272  0.24168721832183
 1 -8.31442483768377  0.58927312141214  0.23841018851885
 1  7.97473070517052  2.91164620052005  1.51719110161016
 1  6.84606648734874  3.30958866306631  0.25858843854385
 1  8.43731796949695  3.10935959795980 -0.32841606450645
 1 -8.79102005420542 -2.66397345644564 -1.55279197279728
 1 -8.36234722302230 -3.18797198449845 -0.00134399509951
 1 -7.14409896249625 -3.45024767606761 -1.39538842404240
 1  6.31727259175918 -0.25052027882788  0.22255023832383
 1 -6.18244022862286  0.15125706420642  0.34248397159716
 1  4.91123448074808  2.46565500960096  0.53181608840884
 1 -5.17493759405941 -2.66118963536354 -0.70482262336234
 1  3.72819308600860 -0.49055362526253  0.22276191459146
 1 -3.74132176337634 -0.25859953005301  0.31019915321532
 1  2.78565926532653  3.12771316741674  1.54808346364636
 1  1.18673587438744  3.12443317511751  0.80455018251825
 1  2.76018307710771  3.12090256375637 -0.32725669526953
 1 -2.69313118271827 -3.39172752865286 -1.78079309010901
 1 -3.40532213801380 -4.15471746464647 -0.35715106370637
 1 -1.43053402470247 -3.72676301070107 -0.42423464986499
 1  0.32964536533653  1.15319123432343  0.23858450365036
 1 -1.50664175277528 -0.16569858265827  0.09535180908091
 1  1.99380792529253 -1.70774982468247  0.02913334913491
 1  0.00212072287229 -2.69565460776078 -0.36515737663766

