%nproc=4
%Mem=2GB
# td=(NStates=1) B3LYP/6-31G(d,p) 

TD

0 1
 6  12.15928027062706  0.52029262976298 -0.63293941284128
 6 -12.07534984908491 -0.02648769036904  0.90230940984098
 6  13.39643905660566 -0.33785344534453 -0.56882288128813
 6 -12.89549604950495  1.24637902940294  1.29760047444744
 6  13.06723903810381 -1.97445311771177 -0.85816757555756
 6 -13.41049564566457  2.00033854595460  0.10889125622562
 6  11.01386318021802 -0.01025676117612  0.30989852765277
 6 -10.94307197499750  0.44423430573057 -0.08562619741974
 6  12.09030346774678 -2.29910220422042  0.40247422372237
 6 -12.17102698529853  2.55303561176118 -0.68983731963196
 6  11.09246895489549 -1.25254730923092  0.83732030043004
 6 -11.03554834903490  1.52519814161416 -0.86516539023902
 6  11.59185977367737  0.63910503560356 -2.10118859745975
 6  12.64019743314332  1.93800785588559 -0.00656217521752
 6 -12.95763335413541 -1.16097321602160  0.31153498339834
 6 -11.44515338333833 -0.72956613021302  2.16796494469447
 6  9.83216127872787  0.87706381998200  0.51512351285129
 6 -9.86144595149515 -0.60358290039004 -0.30694478227823
 6  10.08796297259726 -1.88510832253225  1.81516415131513
 6 -10.00792376257626  1.98269000810081 -1.76984844974497
 6  8.58779501920192  0.59523948014801  0.27170537673767
 6 -8.55613857225723 -0.26041590689069 -0.29633595649565
 6  7.39134770297030  1.43523232353235  0.37752036463646
 6 -7.55019391329133 -1.28099657475748 -0.45307570447045
 6  7.69566261596160  2.83431606880688  0.75813825082508
 6 -7.95010219841984 -2.78698870997100 -0.62368964656466
 6  6.13953785528553  0.89738412741274  0.28369052805281
 6 -6.25311392129213 -0.91773259585959 -0.37665977767777
 6  4.82442309300930  1.54487681958196  0.31695135413541
 6 -5.02321193299330 -1.69657563536354 -0.45336671827183
 6  3.66673538513851  0.89501706690669  0.21174312361236
 6 -3.79086447164716 -1.09834046674667 -0.36298873657366
 6  2.31114441584158  1.40788149584959  0.31208569646965
 6 -2.49166816621662 -1.77667272597260 -0.32446572667267
 6  2.11655602720272  2.92389175567557  0.40573494679468
 6 -2.52626317171717 -3.36818034453445 -0.35245659575958
 6  1.25416696519652  0.52369371097110  0.15659057605761
 6 -1.28973714681468 -1.09352792479248 -0.31912061716172
 6  1.19610398259826 -0.86016096329633 -0.07428494819482
 6  0.07874841444144 -1.55876211601160 -0.21175493149315
 1  13.94415452125213 -0.09460703120312  0.28743678657866
 1  14.37843485728573  0.10219184348435 -1.24247778617862
 1 -12.27867423242324  1.96568895909591  2.00377394219422
 1 -13.72808366596660  0.98348784108411  1.93266970507051
 1  13.98273889588959 -2.55412623032303 -0.90072351815181
 1  12.30634651635163 -1.94668856885689 -1.75566168946895
 1 -13.95495888408841  2.69569292929293  0.43035407300730
 1 -13.94427921172117  1.30526020022002 -0.59189321142114
 1  12.73360532433243 -2.57009951655165  1.39891177317732
 1  11.38926638113811 -3.11438513061306  0.22084894049405
 1 -11.69074886698670  3.61149887058706 -0.29492297529753
 1 -12.32659887378738  3.01059456725673 -1.73846774797480
 1  11.37891126162616 -0.43336641394139 -2.48338647134713
 1  12.51979886058606  0.76414107540754 -2.74469104310431
 1  10.63991156245624  1.14896800850085 -2.13582430193019
 1  12.78788974307431  1.84649155105511  0.88827616811681
 1  11.78771717861786  2.61820173107311 -0.08985314231423
 1  13.66018787508751  2.25715598549855 -0.59004127522752
 1 -13.61646087678768 -0.70791480048005 -0.44966106680668
 1 -13.56009818241824 -1.48436424062406  1.30758797949795
 1 -12.53604120732073 -2.06287469236924  0.04116823432343
 1 -10.74820731163116 -0.05694133353335  2.69166882598260
 1 -11.00792731813181 -1.72177317801780  1.95445946214622
 1 -12.47123118711871 -1.18800326822682  2.76642517061706
 1  10.01871527812781  1.85344020412041  0.63557946584658
 1 -10.22140658535853 -1.71323643364336 -0.32943932193219
 1  9.70063414091409 -0.90861845654565  2.43948770637064
 1  10.80875168926893 -2.41563776167617  2.54477590759076
 1  9.44160622782278 -2.56646649664967  1.32579220082008
 1 -9.15886292159216  1.24770708330833 -1.99504200110011
 1 -9.36380118501850  2.91659518151815 -1.55386543274327
 1 -10.29137940294030  2.16690169556956 -2.70519049234924
 1  8.33814940574057 -0.49723050325033 -0.06389333973397
 1 -8.05600899609961  0.67552174627463 -0.33009666216622
 1  8.15132836493649  3.12594763066307  1.80391977447745
 1  6.71724360506051  3.30160786498650  0.85179775947595
 1  8.37002123982398  3.06910557255726 -0.18565178807881
 1 -8.78332928512851 -2.91107816691669 -1.35196188978898
 1 -8.43663465176517 -3.00976416371637  0.27955409470947
 1 -7.04985953855386 -3.42853550485048 -0.78620750595060
 1  6.32958382288229 -0.09708493529353  0.00173815711571
 1 -6.03243522812281  0.12908484698470 -0.09637991479148
 1  4.90587394469447  2.44671311541154  0.59266217301730
 1 -5.24698479877988 -2.76020953735374 -0.60613275437544
 1  3.88359862656266 -0.07143171307131  0.00100973937394
 1 -3.50104773597360 -0.05824949504950 -0.46101796849685
 1  2.33980467986799  3.29860025612561  1.56963561886189
 1  1.05500270107011  3.16145687748775  0.15159488698870
 1  2.83360041884188  3.35806628012801 -0.10756472607261
 1 -2.78475034463446 -3.76420477637764 -1.52172718351835
 1 -3.25661726752675 -3.75792778567857  0.38908355975598
 1 -1.49740071137114 -3.80966130053005 -0.17254948134813
 1  0.40366276707671  1.16644255945595  0.31284192939294
 1 -1.49938102670267 -0.07268928172817 -0.63128085418542
 1  2.16636518101810 -1.34687373707371 -0.28442800700070
 1  0.31529204000400 -2.57757279957996 -0.44994585548555

