%nproc=4
%Mem=2GB
# td=(NStates=1) B3LYP/6-31G(d,p) 

TD

0 1
 6  12.14721906450645  0.53276387688769 -0.90935705460546
 6 -12.12301461556156 -0.08734377597760  0.73854303320332
 6  13.39852926562656 -0.29629928992899 -0.87021302030203
 6 -13.01272777267727  1.20050444194419  1.19879059345935
 6  13.06497881208121 -1.84082975537554 -0.81837359615962
 6 -13.36202079817982  2.06369488158816 -0.03610324322432
 6  11.08507030093009  0.04590885538554  0.15810334813481
 6 -10.92729039683968  0.42068195049505 -0.19130676547655
 6  12.16909134653465 -2.06501879587959  0.59109308560856
 6 -12.21019090169017  2.62655296349635 -0.68092642854285
 6  11.11833154115411 -1.10501255575558  0.77564413281328
 6 -11.08163295749575  1.60544616641664 -0.81192006570657
 6  11.50749133683368  0.39183030813081 -2.39824830343034
 6  12.57612102550255  1.89093314841484 -0.57104862386239
 6 -13.04369195999600 -1.12359947864786 -0.03451962206221
 6 -11.71986085408541 -0.62356553015302  2.07836598479848
 6  9.82755081768177  0.94353046664666  0.45035703620362
 6 -9.93182298919892 -0.62468501060106 -0.40386447424742
 6  10.20044422072207 -1.65016482818282  1.86599923482348
 6 -10.03155612581258  1.98998073717372 -1.81516298119812
 6  8.54456069576958  0.52779273547355  0.40181838803880
 6 -8.57678063646365 -0.33722358765877 -0.22569889278928
 6  7.33298186638664  1.36560536083608  0.43661627422742
 6 -7.46731562546255 -1.33571204630463 -0.35235563246325
 6  7.47349039873987  2.83319595679568  0.67633007000700
 6 -7.92526971517152 -2.70796080718072 -0.61767904550455
 6  6.20783468496850  0.71484587358736  0.41784394339434
 6 -6.16480509040904 -0.82018284088409 -0.29084119581958
 6  4.93695434613461  1.34219655155516  0.61790144914491
 6 -4.99438905070507 -1.62842882068207 -0.39416079767977
 6  3.80113882548255  0.64036160136014  0.41337328662866
 6 -3.72005739093909 -1.13149378207821 -0.16708914661466
 6  2.48095139653965  1.31972267996800  0.54547903580358
 6 -2.48580758015802 -1.82101716041604 -0.32528580868087
 6  2.36395076667667  2.79187855435544  0.92178655195520
 6 -2.55427597299730 -3.24449797629763 -0.68979032913291
 6  1.31401294979498  0.50013135473547  0.45724064106411
 6 -1.28251642474247 -1.06712528452845 -0.10097880298030
 6  1.15072944514451 -0.84259920712071  0.12660514081408
 6 -0.02037149754976 -1.57005324512451  0.00044628862886
 1  14.01131123692369 -0.07390496099610 -0.08657061416142
 1  14.04095110891089 -0.18325670137014 -1.69357289568957
 1 -12.44671103610361  1.81939432963296  1.82322588738874
 1 -13.79315017261726  0.86347583988399  1.70134657275728
 1  13.94800542254225 -2.42747356505651 -0.83851729752975
 1  12.59177505920592 -2.00273417341734 -1.75699182248225
 1 -14.08285167336734  2.90194355435544  0.26546758435844
 1 -13.82857764156416  1.50779045324532 -0.78773279537954
 1  13.00967293109311 -2.01197370397040  1.20685256725673
 1  11.95962341684168 -3.20597428952895  0.67398425402540
 1 -11.92979277137714  3.46964468516852  0.02425894289429
 1 -12.42318853275328  3.15980948874887 -1.49688358955896
 1  11.52858622912291 -0.70144322162216 -2.48011614431443
 1  12.09842672337234  0.77928258955896 -3.07844441844184
 1  10.36279385068507  0.75398851055106 -2.29173989348935
 1  12.73402435653565  1.79625652755276  0.39534687518752
 1  11.76062446934693  2.74701461236124 -0.86698085508551
 1  13.55459731603160  2.26802707260726 -1.00581285238524
 1 -13.13574280498050 -0.71517552655266 -1.20982708340834
 1 -13.99437160976098 -1.13870967516752  0.45837305800580
 1 -12.51691929512951 -2.15833423832383 -0.08193407590759
 1 -11.10885337623762  0.01435579617962  2.74718437753775
 1 -11.09305583098310 -1.63402440314031  1.83283729992999
 1 -12.51400546454646 -1.15157962586259  2.69380790889089
 1  10.13656706330633  2.01535639573957  0.76039194709471
 1 -10.22696714141414 -1.65708081808181 -0.42604898289829
 1  9.26397047454746 -0.98735633033303  2.17921167876788
 1  10.99422023612361 -1.70876707460746  2.86808823882388
 1  9.94191625882588 -2.86029587958796  1.63634325592559
 1 -9.41306834213421  1.17719003160316 -2.10506300320032
 1 -9.54704950985098  2.80168369036904 -1.48167821402140
 1 -10.45628589358936  2.30084508990899 -2.71833180648065
 1  8.51220681148115 -0.47704848504850  0.06305935553555
 1 -8.42699609480948  0.72804699879988 -0.17856150865087
 1  7.96546977907791  2.92883791969197  1.74134351685168
 1  6.59037091779178  3.61448915311531  0.83531611131113
 1  8.32071630933093  3.16277493949395  0.11987876497650
 1 -8.80110106230623 -2.91554861396140 -1.40398709230923
 1 -8.31457244554455 -3.27785097239724  0.29487562686269
 1 -7.12062661526153 -3.46161881318132 -0.87834671987199
 1  6.08104896939694 -0.29178440524052  0.31647963126313
 1 -5.98005999059906  0.21134307280728 -0.04800507730773
 1  4.93980733803380  2.33925236933693  0.64124703150315
 1 -4.89376947724773 -2.69490300670067 -0.82076421752175
 1  3.73862412911291 -0.42834740464046  0.10236987538754
 1 -3.81526915811581 -0.09460313041304  0.12386051935194
 1  3.05540624002400  2.82860325642564  1.63175183048305
 1  1.21794899569957  2.97497822962296  1.24816454395440
 1  2.57517457625763  3.51708218171817 -0.01427539713971
 1 -2.95545741534153 -3.30142849874987 -1.79814482528253
 1 -3.07180878667867 -3.83976596949695 -0.03881923052305
 1 -1.56483745504550 -3.73075340974097 -0.68567079347935
 1  0.33946634743474  0.93520943614361  0.60253089828983
 1 -1.67228831743174 -0.13769578237824  0.01789406330633
 1  2.03537208170817 -1.51329037873787  0.08375881168117
 1  0.15418592939294 -2.67700274257426 -0.18484934583458

