%nproc=4
%Mem=2GB
# td=(NStates=1) B3LYP/6-31G(d,p) 

TD

0 1
 6  12.18838318091809  0.65212581308131 -0.69371549044904
 6 -12.13850616471647  0.08772373077308  0.88144732363236
 6  13.48136754945495 -0.16495615561556 -0.58665466446645
 6 -12.96721322122212  1.25116950845085  1.17519823422342
 6  13.22770508470847 -1.67747341974197 -0.66661842064206
 6 -13.37096169226923  2.18057656975698 -0.01439107200720
 6  10.95700749464947  0.04498876337634  0.16895443324332
 6 -10.93331099889989  0.55772565486549 -0.02072970777078
 6  12.35087952535254 -2.06771906590659  0.44463844014401
 6 -12.01478136073607  2.65922623082308 -0.62724106000600
 6  11.05025473347335 -1.17147920242024  0.69868643704370
 6 -10.97787258145815  1.58822444424442 -0.84778365206521
 6  11.72681326902690  0.70496162126213 -2.12504098269827
 6  12.55131854525453  2.03471752685269 -0.14534605360536
 6 -12.99590718151815 -0.98418553725373  0.14707853775378
 6 -11.51729059705971 -0.49006217981798  2.19475762396240
 6  9.78511657425743  0.84698081168117  0.39033103360336
 6 -9.87514732163216 -0.55505804790479 -0.29386347414741
 6  10.09789396569657 -1.73448326002600  1.75996863176318
 6 -9.77968093829383  2.00647238633863 -1.72000346524652
 6  8.54645088478848  0.41068102430243  0.18583678987899
 6 -8.53093605200520 -0.32751261656166 -0.35116143904390
 6  7.35618418661866  1.28801760206021  0.38049066166617
 6 -7.55402429632963 -1.41027950305031 -0.51398179507951
 6  7.58330137983798  2.73509614681468  0.61380381738174
 6 -7.96868405660566 -2.73599361046105 -0.69751702930293
 6  6.03826772827283  0.74480886988699  0.26941910091009
 6 -6.15106371627163 -1.06870769336934 -0.40516262796280
 6  4.80161081178118  1.30097242914291  0.49827948694869
 6 -5.03324293609361 -1.84909088688869 -0.34725610721072
 6  3.67471618321832  0.63398096329633  0.23684563386339
 6 -3.80270565576558 -1.25067570027003 -0.22007444514451
 6  2.38793209460946  1.24435514321432  0.39871435933593
 6 -2.52802180158016 -1.96093115181518 -0.31705498559856
 6  2.26153052465247  2.66643601010101  0.63330770407041
 6 -2.55196574197420 -3.48010153665367 -0.46593794389439
 6  1.22593414191419  0.55677701930193  0.20759567656766
 6 -1.41488966206621 -1.22972154415442 -0.16408511361136
 6  1.02117648984898 -0.87383233043304 -0.04366188588859
 6 -0.09951941234123 -1.69498573837384 -0.16796055205521
 1  13.88885899169917  0.16148857835784  0.38709675257526
 1  14.18898591239124  0.31046267056706 -1.42677621602160
 1 -12.35943230823082  1.90115250545054  1.84297786258626
 1 -13.80586144374438  1.01620111241124  1.90128656675668
 1  14.13250387238724 -2.12216303400340 -0.67564100990099
 1  12.70987686938694 -1.79041294129413 -1.66214233753375
 1 -13.98295168336834  2.96109946994699  0.45528656625663
 1 -14.02101688548855  1.74280395459546 -0.61600562266227
 1  12.89839180298030 -2.23404591119112  1.38346022802280
 1  11.93956141064106 -3.04642833493349  0.44096095169517
 1 -11.73800359245925  3.42355007570757 -0.15946942994299
 1 -12.14106031993199  3.18410191799180 -1.69473337453745
 1  11.43922729322932 -0.18582165946595 -2.63849198189819
 1  12.31265814651465  1.35516017731773 -2.79445601960196
 1  10.90069764106411  1.38385149684969 -2.17661838133813
 1  12.65843679777978  2.00505740764076  1.06748408890889
 1  11.78204661156115  2.76588649954996 -0.48304246124612
 1  13.38795065136514  2.58138840874087 -0.69280155125513
 1 -13.51933116381638 -0.56048005700570 -0.83068916961696
 1 -13.55614778737874 -1.35103090729073  0.97781500220022
 1 -12.46718432163216 -1.95109351425143 -0.07099298179818
 1 -10.80461295219522  0.32315667626763  2.53228288738874
 1 -11.14811133653365 -1.55300630133013  2.03261727792779
 1 -12.32570663466347 -0.60125459335934  2.97840636873687
 1  10.06455986258626  2.04186904700470  0.68019392729273
 1 -10.20092453715371 -1.57443255325533 -0.00431680968097
 1  9.32899697719772 -1.00425802050205  2.35149890749075
 1  10.65646646074607 -2.20202640054005  2.39294072407241
 1  9.45784785198520 -2.37698754875488  1.33318293989399
 1 -9.18509554485448  1.18700101270127 -1.78158065496550
 1 -9.13350815571557  2.68152167416742 -1.25058510471047
 1 -10.10283054805481  2.46781178657866 -2.53775374867487
 1  8.33145873667367 -0.58715949614961 -0.06525347574758
 1 -8.10246364156416  0.60441463556356 -0.32639629212921
 1  7.96773000510051  2.98567360326033  1.72930231273127
 1  6.51639352005200  3.25542324652465  0.56595917561756
 1  8.29224346204620  3.35368403040304  0.02338911601160
 1 -8.59282023422342 -2.93360041914191 -1.51798849244925
 1 -8.52525351365136 -3.30249343664366  0.07052319161916
 1 -7.03260781338134 -3.40864351565157 -0.86254513971397
 1  5.87088795329533 -0.19855508230823 -0.02689470617062
 1 -6.12225421002100 -0.11467952945295 -0.06236651345135
 1  4.59132248954896  2.30584902900290  0.95177808460846
 1 -5.23196329662966 -2.75989950635064 -0.41575371647165
 1  3.87449771647165 -0.29128369826983  0.07801744014401
 1 -3.60575820702070 -0.14787845794579 -0.05960782748275
 1  2.28145884528453  3.15968636473647  1.68692734803480
 1  1.10447764856486  2.94807553935394  0.36312604010401
 1  2.90065712451245  3.26070654415442 -0.04022799239924
 1 -3.21031290089009 -3.63087144304431 -1.44045905670567
 1 -3.20059166496650 -3.77648964186419  0.43766841824182
 1 -1.46821779307931 -4.06603693809381 -0.51714394079408
 1  0.31314371517152  1.06366228142814  0.36159680488049
 1 -1.49820090869087 -0.01454346714672  0.18581085498550
 1  1.93051159565957 -1.51763081278128 -0.09568913311331
 1 -0.01285077427743 -2.89699474177418  0.06439557865787

