%nproc=4
%Mem=2GB
# td=(NStates=1) B3LYP/6-31G(d,p) 

TD

0 1
 6  12.12242658525853  0.51539213971397 -0.73093921282128
 6 -12.04239655375538 -0.02425746734673  0.90037921682168
 6  13.36330574327433 -0.34357401740174 -0.74859085808581
 6 -12.97227372727273  1.17026141764176  1.20504121852185
 6  13.12908522272227 -1.82299797219722 -0.68496025482548
 6 -13.42732732883288  2.00746925902590  0.05846621372137
 6  11.07061885578558  0.06889115361536  0.18883642144214
 6 -10.96795446324632  0.39812969526953 -0.12170980578058
 6  12.31793623102310 -2.06966926092609  0.59441341764176
 6 -12.26888677127713  2.59271958015802 -0.76055439133913
 6  11.12567227522752 -1.16997905240524  0.88037460586059
 6 -11.13513830803080  1.60524614641464 -0.90419929362936
 6  11.54889547724773  0.60002112721272 -2.16433491209121
 6  12.43061647504751  1.91252530763076 -0.32813433243324
 6 -12.98531612241224 -1.18531565026503  0.31022485238524
 6 -11.41372024002400 -0.59601277487749  2.16009415761576
 6  9.86819488208821  0.87010312391239  0.36119812031203
 6 -9.87651745864586 -0.54088663076308 -0.31128521632163
 6  10.24513869016902 -1.69352916461646  1.89097173207321
 6 -9.97171014121412  2.05193693279328 -1.81509297419742
 6  8.59377561726173  0.45532548874887  0.31601980818082
 6 -8.55480843924392 -0.25215508080808 -0.27434375727573
 6  7.41944051225123  1.38040684098410  0.33367598019802
 6 -7.47346624052405 -1.20796927202720 -0.45907630453045
 6  7.63468651835184  2.80617325452545  0.76167860486049
 6 -7.87665485368537 -2.74586459755976 -0.68216549414941
 6  6.16877077857786  0.71009539853985  0.22336449544954
 6 -6.18268687858786 -0.83140396299630 -0.34276638833883
 6  4.89358000870087  1.32260459235924  0.43827348634863
 6 -5.00550016181618 -1.59061503930393 -0.37122850445045
 6  3.69350806240624  0.66360392559256  0.43875582488249
 6 -3.74487987318732 -1.14463509620962 -0.29699213691369
 6  2.42304560596060  1.17455816351635  0.49298378627863
 6 -2.61478047744774 -1.79908496719672 -0.40563384348435
 6  2.24538891049105  2.67386675317532  0.81874624792479
 6 -2.49108965436544 -3.31576510301030 -0.52411376147615
 6  1.22020356885689  0.51017235883588  0.16292120912091
 6 -1.36742491559156 -1.09104767676768 -0.20650935603560
 6  1.06699107130713 -0.80040498769877 -0.12229974967497
 6 -0.06455591599160 -1.55511175097510 -0.26701045704570
 1  14.20430053585359 -0.02563013351335 -0.05462741984198
 1  13.99416643044304  0.07736936123612 -1.55256879527953
 1 -12.40840720572057  1.86607899809981  1.97987155195520
 1 -13.77548840644065  0.65248474077408  1.84076051415142
 1  13.97080770277028 -2.37958877657766 -1.00140358615862
 1  12.45559144084408 -2.17329122912291 -1.48594471777178
 1 -14.22056544474447  2.87660102010201  0.47438847644764
 1 -14.05551033483349  1.37273694789479 -0.55164918701870
 1  13.02974493829383 -1.87601010761076  1.48234011601160
 1  12.10226768126813 -3.15116880898090  0.54358121372137
 1 -11.88462825492549  3.52145986668667 -0.28740222322232
 1 -12.75643185708571  3.02210571837184 -1.77415131633163
 1  11.35187855835584 -0.33509658695870 -2.60263839653965
 1  12.30247712841284  1.22223688498850 -2.88791536553655
 1  10.50501807310731  1.19841295299530 -2.03915463496350
 1  12.37993894799480  2.09382628452845  0.73102044254425
 1  11.94189259615962  2.94326423732373 -0.69423358035804
 1  13.41659351565156  2.26668693859386 -0.74628689978998
 1 -13.57263649434944 -0.82606661566157 -0.61134723542354
 1 -13.85897807040704 -1.20831663586359  1.01758897959796
 1 -12.51405900910091 -2.15611401630163  0.13679779727973
 1 -10.97605009590959  0.27040140074007  2.73645330443044
 1 -10.88485501090109 -1.38369937063706  1.88128214441444
 1 -12.32790685468547 -0.98104257215722  2.65420394849485
 1  9.88506191279128  1.94364922502250 -0.00839493159316
 1 -10.23637808250825 -1.55786089608961 -0.57202358035804
 1  9.79354343184318 -0.81111870657066  2.20616437403740
 1  10.81970278437844 -2.04188038593859  2.83159458945895
 1  9.51614368156816 -2.75906575657566  1.76832645424542
 1 -9.39702673797380  1.13433574617462 -2.09078157505751
 1 -9.34692949784978  2.94877839983998 -1.33804385058506
 1 -10.19805007000700  2.33328833423342 -2.73512348564857
 1  8.41527711851185 -0.65588636883688  0.14349739933993
 1 -8.09741313651365  0.85509970407041 -0.17069072157216
 1  8.19570280238024  2.91602663856386  1.85855523802380
 1  6.70139201990199  3.37600530473047  0.78057063676368
 1  8.09869410711071  3.32395105710571 -0.11186440934093
 1 -8.63309426162616 -3.03183024212421 -1.42579927352735
 1 -8.41511249954995 -3.12184537183718  0.26265240454045
 1 -7.19478403100310 -3.44163681498150 -0.84577346254625
 1  6.40104096859686 -0.39748497529753  0.15754373767377
 1 -5.98033001760176  0.20715265376538 -0.25666594339434
 1  4.74538789608961  2.35901434553455  0.69480238703870
 1 -5.03744384468447 -2.68214173057306 -0.60394253535354
 1  3.83916418311831 -0.44357892779278  0.21040067846785
 1 -3.54449208040804 -0.14203787388739 -0.16935880258026
 1  2.45718641804180  2.70312070817082  2.09128778407841
 1  1.04848204900490  2.95389612141214  0.62635236273627
 1  2.88450550935094  3.16399687318732  0.23303933433343
 1 -3.07343921352135 -3.96909526542654 -1.33333834463446
 1 -2.72114372017202 -3.75516750965096  0.55510016141614
 1 -1.44111508280828 -3.71167150155016 -0.60804303070307
 1  0.21075347614762  0.98654456965697  0.28497914311431
 1 -1.54179526812681 -0.00338235103510 -0.13526125222522
 1  1.97149569406941 -1.46476552625262 -0.47351691589159
 1  0.12792330313031 -2.58095313761376 -0.62357321822182

