%nproc=4
%Mem=2GB
# td=(NStates=1) B3LYP/6-31G(d,p) 

TD

0 1
 6  12.19569391199120  0.55673627412741 -0.53232935183518
 6 -12.12873518761876 -0.01699674127413  0.94968414731473
 6  13.44548396109611 -0.30332999299930 -0.35278127712771
 6 -12.86174267416742  1.19696408790879  1.48225894029403
 6  13.13597591179118 -1.87467313971397 -0.34375613441344
 6 -13.21536613271327  2.16597510961096  0.24389475657566
 6  11.01397319121912  0.02985725022502  0.37958549634964
 6 -10.95629329712971  0.41657153945395 -0.02604023882388
 6  12.12422686008601 -2.09148144214421  0.87361133743374
 6 -11.94847473007301  2.62004231243124 -0.31585992189219
 6  10.97263697169717 -1.18193024752475  0.98365493389339
 6 -10.89776457065707  1.61341696349635 -0.60890976467647
 6  11.69552013971397  0.56888801390139 -2.07929640824082
 6  12.69668308170817  1.89846390149015 -0.12285380438044
 6 -13.04968255905591 -0.93469058775878  0.10456428632863
 6 -11.68274714271427 -0.82998617221722  2.25475362356236
 6  9.84661272387239  0.94743085668567  0.40005200570057
 6 -9.90051985888589 -0.65637817991799 -0.20605469326933
 6  9.87126130243024 -1.53379319101910  2.01641427632763
 6 -9.76356932713271  2.10451219031903 -1.43929539443944
 6  8.50050629032903  0.55477543374337  0.28079628582858
 6 -8.57944090249025 -0.35943580888089 -0.18465478837884
 6  7.38567713591359  1.34176297659766  0.34365697829783
 6 -7.47286618051805 -1.41170964606461 -0.38923932083208
 6  7.69531258095810  2.89040167736774  0.46148858585859
 6 -7.89783697189719 -2.87292730383038 -0.74023130073007
 6  6.16104000550055  0.78804319331933  0.13634579357936
 6 -6.18666727662766 -0.92601342394239 -0.37590970267027
 6  4.87681833253325  1.47610994289429  0.14113377237724
 6 -4.99819943174317 -1.77367334513451 -0.50126150775078
 6  3.69059777137714  0.75207277247725 -0.02489053975398
 6 -3.76068145334533 -1.13974460716072 -0.30779321702170
 6  2.28222152355236  1.28367907560756 -0.02024753685369
 6 -2.42712171157116 -1.81185624432443 -0.43193647374737
 6  2.12250662226223  2.68658802530253  0.25527990129013
 6 -2.53949449484948 -3.26499002550255 -0.64533588368837
 6  1.16832838133813  0.42783412501250 -0.10077516051605
 6 -1.28805697879788 -1.07859643164316 -0.46097480258026
 6  1.18205257745775 -0.95607055425543 -0.58614613431343
 6 -0.01513097349735 -1.58228446824682 -0.57838159415942
 1  13.94412451825183 -0.03539110961096  0.67265530843084
 1  14.10867788158816 -0.26830520622062 -1.22461600000000
 1 -12.43403976897690  1.75833822402240  2.38401196599660
 1 -13.82624348194819  0.99096858915892  2.01302774087409
 1  14.06972759475948 -2.58368918661866 -0.02227567336734
 1  12.65353123482348 -2.29241314131413 -1.31182730603060
 1 -14.05275866406641  2.91819517951795  0.43735477307731
 1 -13.89178396219622  1.50729040324032 -0.45368939103910
 1  12.58762072587259 -2.17355986258626  1.88376025802580
 1  11.66376383088309 -3.03244693679368  0.72396925252525
 1 -11.77961775387539  3.49590731143114  0.46070258725873
 1 -12.34150036393639  3.08886239403940 -1.11882578377838
 1  11.47130050055005 -0.43577665496550 -2.61164929762976
 1  12.42595947664766  1.20149481078108 -2.69356593059306
 1  10.64013158445844  1.20568368006801 -2.15220594009401
 1  12.70156111021102  2.01433833573357  0.94592193269327
 1  11.85088349524952  2.61993190409041 -0.57008116511651
 1  13.85099695599560  2.14471474137414 -0.49154142524252
 1 -13.59595882658266 -0.38393240224022 -0.74183028372837
 1 -13.90151232383238 -1.11331713591359  0.65049226992699
 1 -12.71168877207721 -2.04871327622762 -0.24352023452345
 1 -10.99808229912991 -0.23219885928593  3.13901356045605
 1 -11.39041556695670 -1.95765676637664  2.10144416061606
 1 -12.56086015001500 -1.28433290119012  2.81032956105611
 1  9.86392979957996  1.94772963306331  0.71164707260726
 1 -10.43653809850985 -1.52086719671967 -0.49785616361636
 1  9.10566464396440 -0.69914750945094  2.24995875347535
 1  10.63326414051405 -1.99533573147315  2.78884031403140
 1  9.32471453865387 -2.36807665766577  1.60730035163516
 1 -9.21310834613461  1.25686799939994 -1.75286778367837
 1 -9.26070087498750  2.94962848484849 -0.79836988318832
 1 -10.10549081408141  2.42322732813281 -2.42920289358936
 1  8.33582917371737 -0.64895567576758  0.04688773837384
 1 -8.12148554375438  0.67206140024002 -0.03019667216722
 1  7.99386261836184  3.08112314821482  1.28575795829583
 1  6.61467334803480  3.39056676087609  0.46642922262226
 1  8.32421665936594  3.15901456345635 -0.38172139503950
 1 -8.73848480068007 -2.53344040314031 -1.44438113171317
 1 -8.32327331563156 -3.20885407270727  0.10988712801280
 1 -6.99853440604060 -3.47030968226823 -1.12420130533053
 1  6.11424228872887 -0.22085731253125  0.00210819411941
 1 -5.86159814441444  0.02724466296630 -0.65239551635163
 1  4.75096845414541  2.54458290239024  0.51604451125112
 1 -5.07069717001700 -2.73952746914691 -0.81517365846585
 1  3.94787505420542 -0.22836740664066 -0.35021538313831
 1 -4.01082871407141 -0.13069673977398 -0.04008587528753
 1  2.47364806420642  2.97725812191219  1.34315297059706
 1  1.05502270307031  3.08095882768277  0.25588531603160
 1  2.96851391019102  3.33515398889889 -0.55941991159116
 1 -2.78292016161616 -3.63911226712671 -1.61932694349435
 1 -3.13770537633763 -3.63773576647665  0.13733838523852
 1 -1.65956692799280 -3.78794912931293 -0.28247047344735
 1  0.17646004680468  0.93330924612461 -0.25371472627263
 1 -1.41769285788579  0.16401438863886 -0.12483020912091
 1  2.04100264476448 -1.48573762346235 -0.96842640684068
 1 -0.03593308250825 -2.66320136243624 -0.95003586448645

