%nproc=4
%Mem=2GB
# td=(NStates=1) B3LYP/6-31G(d,p) 

TD

0 1
 6  12.12428677127713  0.50991159165917 -0.73241936083608
 6 -12.08165047914791 -0.10736577817782  0.98713789268927
 6  13.42552196489649 -0.39171883188319 -0.55965196419642
 6 -12.93293979387939  1.09664405590559  1.44293500790079
 6  13.12328464266427 -1.95545121752175 -0.46180793959396
 6 -13.39821441754175  2.01189970207021  0.29146951405141
 6  11.02274406830683  0.07786205070507  0.37612515031503
 6 -11.07181484928493  0.38510839313931 -0.11703933873387
 6  12.27090152755276 -2.12335462946295  0.88244222052205
 6 -12.16664654725473  2.57592790099010 -0.41637997389739
 6  11.15470517851785 -1.07368942344234  1.10070663906391
 6 -11.04936973117312  1.61393701550155 -0.68241711541154
 6  11.57354794249425  0.32174329942994 -2.14914339293929
 6  12.76985039843984  1.96595065016502 -0.54290580958096
 6 -13.06785437623762 -1.16215333403340  0.47328115801580
 6 -11.33732260026003 -0.63877705130513  2.26351449964996
 6  9.80309837243724  1.00481659525953  0.38065006550655
 6 -9.93603341024102 -0.65299784188419 -0.31004509230923
 6  10.11255543184318 -1.47236704840484  2.05682831773177
 6 -10.10453342354235  2.18093983308331 -1.70747221212121
 6  8.57922416211621  0.51531148734873  0.27235544174417
 6 -8.63858681708171 -0.32788265356536 -0.46872319521952
 6  7.44550311851185  1.33388218851885  0.40075268786879
 6 -7.55495438933893 -1.34745322042204 -0.60190058695870
 6  7.61282433213321  2.74932756995700  0.81231366836684
 6 -7.80208739693969 -2.75142515361536 -0.89341661926193
 6  6.17074097559756  0.81069545854585  0.23688584758476
 6 -6.23728233813381 -0.88027885048505 -0.55146725842584
 6  4.91150180088009  1.43774610651065  0.30523018201820
 6 -4.97756736853685 -1.70107608540854 -0.57230861246125
 6  3.67015572717272  0.68580614581458  0.22045399469947
 6 -3.78839422462246 -1.02224285698570 -0.41769420712071
 6  2.39010231163116  1.32552326002600  0.16248073597360
 6 -2.56027502690269 -1.74179923862386 -0.47475075517552
 6  2.34610898249825  2.77225659215922  0.44216859015902
 6 -2.55363590899090 -3.29999352585259 -0.75009635973597
 6  1.25507705620562  0.55515685728573  0.08743366036604
 6 -1.47328550165017 -1.11223979597960 -0.41452015711571
 6  1.12766713891389 -0.86098104530453 -0.21678919861986
 6 -0.12662212261226 -1.55477171697170 -0.35083883988399
 1  14.05181528732873 -0.17898546904690  0.30358840174017
 1  14.03709072287229 -0.28147652335233 -1.50274381278128
 1 -12.43509987498750  1.69310170037004  2.10780434523452
 1 -13.67102796039604  0.51989148144814  1.91048748684868
 1  14.19740036203621 -2.42274309200920 -0.28883232903290
 1  12.78899478117812 -2.52183608360836 -1.33238936223622
 1 -13.89953334153415  2.98288164816482  0.78825986358636
 1 -14.05831061486149  1.40981065526553 -0.39135315741574
 1  13.11740370417042 -2.13971647824782  1.56935881788179
 1  11.82883033753375 -2.94685837793779  0.99987684328433
 1 -11.80296008810881  3.25861358205821  0.27336385338534
 1 -12.42695890979098  3.22826633443344 -1.36348024922492
 1  11.35701907240724 -1.03893697099710 -1.97346547924792
 1  12.47368424912491  0.39243390469047 -2.83272984698470
 1  10.64172174347435  0.91732484418442 -2.37646836633663
 1  13.23596455055506  2.08045494739474  0.36897423792379
 1  11.86718512541254  2.67187709860986 -0.58816297329733
 1  13.61238309460946  1.94492476237624 -1.33606587768777
 1 -13.60582981368137 -0.87546155515552 -0.52999910061006
 1 -13.77763993659366 -1.40867667186719  1.31567878857886
 1 -12.58089569276928 -2.11469987488749  0.18764288178818
 1 -10.71983447434743  0.19974433503350  2.48731839093909
 1 -10.91378790419042 -1.61274227492749  1.88912292849285
 1 -12.02286635063506 -0.94589905780578  2.95302383048305
 1  10.12642604920492  1.99097395749575  0.52660856875688
 1 -10.28957340204020 -1.53172828282828  0.00622424442444
 1  9.56623070057006 -0.45634322902290  2.43327708530853
 1  10.68501931603160 -1.70750694859486  3.05604703470347
 1  9.34940700790079 -2.31345119511951  1.69223884548455
 1 -9.68697573287329  1.43858617121712 -2.40943344024402
 1 -9.32047685258526  2.64834835683568 -1.10881092729273
 1 -10.48479874487449  3.06820182558256 -2.36444641794179
 1  8.40112570337034 -0.54610539073907 -0.14178112851285
 1 -8.32405580078008  0.73034722882288 -0.57302095459546
 1  8.11233446554655  2.90114515041504  1.79128851135114
 1  6.75395727642764  3.33028073227323  0.92993557325733
 1  8.25047928562856  3.38928759075908  0.07726450355036
 1 -8.87135808800880 -2.67235429452945 -1.52711940554055
 1 -8.11176216451645 -3.50302348964896  0.02273841314131
 1 -6.85841039363936 -3.38238088938894 -1.56175506070607
 1  6.27424828932893 -0.43089831663166  0.02070005330533
 1 -6.00764274887489  0.10830276877688 -0.38104838163816
 1  4.73905726302630  2.46962540664066  0.72117502430243
 1 -4.93676377667767 -2.69019253565357 -0.51109325042504
 1  3.85180544724472 -0.36978154805481  0.29271891029103
 1 -3.83906153735374  0.22524885478548 -0.36889875657566
 1  2.86864756415642  3.18215861196120  1.36896555185519
 1  1.44139133993399  3.30609134093409  0.36669639713971
 1  2.97326438523852  3.47341781528153 -0.09863383298330
 1 -3.22081395099510 -3.46101445734573 -1.68028303910391
 1 -2.91255286108611 -3.65344733763376  0.14197884928493
 1 -1.35149612091209 -3.57967830223022 -1.22268449484949
 1  0.29281168196820  1.20841675687569  0.26809745494549
 1 -1.37433852245225  0.01081906910691 -0.15056278237824
 1  1.86287483198320 -1.58234728442844 -0.43001256545655
 1  0.01428193899390 -2.59306434873487 -0.49981084198420

