%nproc=4
%Mem=2GB
# td=(NStates=1) B3LYP/6-31G(d,p) 

TD

0 1
 6  12.18868321092109  0.65474607510751 -0.62891901080108
 6 -12.12755506960696 -0.03784882648265  0.88566774567457
 6  13.45507492019202 -0.24065372537254 -0.44651065006501
 6 -12.96003250315031  1.16962135363536  1.34654536893689
 6  13.11972428662866 -1.79638531093109 -0.50669242804280
 6 -13.36198079417942  2.11644015611561  0.18011837893789
 6  11.01840363426343  0.03663792829283  0.24074161196120
 6 -11.06563423122312  0.43768365066507 -0.05461309610961
 6  12.26433087048705 -2.14893718771877  0.76745072137214
 6 -12.03484336693669  2.71823213141314 -0.39384772067207
 6  11.14579428742874 -1.14737679217922  0.94608117651765
 6 -10.98077287148715  1.62827844964496 -0.65414428812881
 6  11.84555514321432  0.49736086118612 -2.08792727132713
 6  12.60788420182018  1.99672372747275 -0.15454697369737
 6 -13.10764835563556 -1.05771288998900  0.13075690559056
 6 -11.60462933093309 -0.67954112771277  2.12777092529253
 6  9.83037109970997  0.90607672127213  0.34073607410741
 6 -9.94638444534453 -0.57723026512651 -0.16073016081608
 6  10.05531970827083 -1.58601841354135  1.89854248914891
 6 -9.89859282948295  2.03662540164016 -1.57197866276628
 6  8.54063030273027  0.51018097429743  0.24450265646565
 6 -8.57907086548655 -0.41241110641064 -0.25062138503850
 6  7.37271583978398  1.36432523282328  0.22296490909091
 6 -7.47979687358736 -1.37699617471747 -0.36482687958796
 6  7.56438948864887  2.78436107330733  0.60971340834083
 6 -7.94313150135013 -2.84887489858986 -0.65764304190419
 6  6.14464836633663  0.76707109610961  0.24363652265227
 6 -6.26952556245624 -0.90467128972897 -0.41695380708071
 6  4.90304095479548  1.40749308120812  0.31569122812281
 6 -5.00211982378238 -1.64730070787079 -0.38583996559656
 6  3.75185389698970  0.68743630883088  0.10916286558656
 6 -3.78982436763676 -1.11769240194019 -0.40996343404340
 6  2.35729903130313  1.21985269296930  0.14960944884488
 6 -2.56139513891389 -1.84303936263626 -0.47230051015102
 6  2.34835920752075  2.68791815831583  0.31918629192919
 6 -2.55560610601060 -3.31990551705171 -0.64420577067707
 6  1.20429197769777  0.48786012761276  0.00239515651565
 6 -1.43137131023102 -1.10630920292029 -0.35130383548355
 6  1.17189156135614 -0.93462841004100 -0.23436095579558
 6 -0.00637009740974 -1.58362460226023 -0.37601135713571
 1  13.96950705650565 -0.05939350985099  0.51887993089309
 1  14.33204021782178  0.04446607090709 -1.20163370177018
 1 -12.50700706570657  1.77029942014201  2.11497506230623
 1 -13.99485034263426  0.65896538883888  1.54952139023902
 1  14.07555817781778 -2.30046086378638 -0.49965341114111
 1  12.47754363606361 -2.24132803280328 -1.29828595189519
 1 -13.95868925712571  2.94716807680768  0.61969300690069
 1 -13.77009179297930  1.68866854105410 -0.60945496759676
 1  12.84480644444444 -2.30361286788679  1.79927180918092
 1  11.82918037253725 -3.27933162526253  0.63083993959396
 1 -11.68051784388439  3.49220694139414  0.38861537853785
 1 -12.14215042894289  3.28021152895290 -1.28918281948195
 1  11.57645101560156 -0.70156323362336 -2.37278541124112
 1  12.80035691639164  0.70725538683868 -2.65954252825283
 1  10.89785735703570  1.29071218291829 -2.47259797929793
 1  12.94684563866387  1.99748665056506  0.92966030653065
 1  11.71058946584659  2.71644155505551 -0.14244840184018
 1  13.52776463276328  2.45876614651465 -0.55609788088809
 1 -13.90958018871887 -0.60868487748775 -0.54785088578858
 1 -13.63720589318932 -1.64449025322532  0.89113633433343
 1 -12.55656325952595 -1.72809121402140 -0.63924980748075
 1 -10.86367885878588 -0.04159979937994  2.58043770287029
 1 -11.08818534393439 -1.56868786948695  1.81001501770177
 1 -12.25268933293329 -0.89605407330733  2.92307083518352
 1  10.10417382398240  1.95291015111511  0.51456736463646
 1 -10.29385383008301 -1.68187329732973 -0.28945532353235
 1  9.07691176867687 -0.99614720942094  2.12367612521252
 1  10.44308512261226 -1.93604980288029  2.85215664566457
 1  9.67846991419142 -2.57399724972497  1.70061968356836
 1 -9.31659869516952  1.30849316191619 -1.95788828572857
 1 -9.26184098899890  2.61854537653765 -0.94983502970297
 1 -10.07336760176018  2.84800980638064 -2.36098607190719
 1  8.47600319111911 -0.59689046924692  0.22270532013201
 1 -8.13996739193919  0.55269946404640 -0.00361401390139
 1  7.86302953505351  3.13366840274027  1.74335371787179
 1  6.57332921362136  3.31199890409041  0.47888046774677
 1  8.33827806550655  3.25951461346135 -0.11615483838384
 1 -8.63867481968197 -2.99420647974797 -1.40071676527653
 1 -8.44342533083308 -3.29572275957596  0.24383052235224
 1 -7.24728928152815 -3.62837548884889 -1.04572345754575
 1  6.16656752125213 -0.36672189898990 -0.02189420612061
 1 -6.19313129772977  0.12168410691069 -0.07244752155215
 1  5.06080943824382  2.44800324442444  0.18896180298030
 1 -4.96695679597960 -2.78392190859086 -0.70874301540154
 1  3.85315558225823 -0.42603717361736 -0.17620798239824
 1 -3.75060269146915  0.02090842074207 -0.28399026572657
 1  2.40455115451545  3.12109250535054  1.36446510181018
 1  1.28249545034503  3.02710344214421  0.22873260076008
 1  3.04322138093809  3.11657213071307 -0.42088605820582
 1 -3.19699156875688 -3.48196655255526 -1.60131514231423
 1 -3.03657526332633 -4.01946393929393  0.07958260966097
 1 -1.66990796209621 -3.89297963236324 -0.81701392779278
 1  0.32267466826683  1.22091800700070 -0.11037039183918
 1 -1.48544963356336 -0.09446145894589 -0.06860458655866
 1  2.09609815431543 -1.43694274397440 -0.27819738393839
 1  0.03745425622562 -2.61632667496750 -0.36831769266927

