%nproc=4
%Mem=2GB
# td=(NStates=1) B3LYP/6-31G(d,p) 

TD

0 1
 6  12.15262960556056  0.67278787928793 -0.62193831273127
 6 -12.10551286538654  0.03980893929393  0.82749192809281
 6  13.50030944364437 -0.23823348334833 -0.69462546154615
 6 -12.89494599449945  1.25990038153815  1.26680739513951
 6  13.11212352655265 -1.75366103850385 -0.74145590439044
 6 -13.35410000610061  2.20386889898990  0.06653702080208
 6  11.05105689958996  0.04485875037504  0.28414595239524
 6 -10.96138380618062  0.40522040434043 -0.12689032383238
 6  12.17647208460846 -2.17487978197820  0.44972894919492
 6 -12.07994787738774  2.67037734593459 -0.70300863676368
 6  11.10391009900990 -1.22037409190919  0.73669023742374
 6 -11.02737753195319  1.57708333013301 -0.88525739943994
 6  11.50230081778178  0.89964108920892 -2.06079455805581
 6  12.55301871527153  2.03764781988199 -0.11299281828183
 6 -12.93695128592859 -1.08782590129013  0.21906573647365
 6 -11.54829369736974 -0.63871704530453  2.11334948314832
 6  9.84930299289929  0.90455656925693  0.33518551905191
 6 -9.90717052395240 -0.52068461056106 -0.23271735953595
 6  10.15041921822182 -1.85772558425843  1.69113174807481
 6 -9.99386235643564  1.92053379247925 -1.98347981288129
 6  8.52466870657066  0.49110906710671  0.29855806200620
 6 -8.55151811021102 -0.26659652495250 -0.19911623452345
 6  7.31462003020302  1.34839363966397  0.54404701730173
 6 -7.47035592949295 -1.21758023312331 -0.28677907480748
 6  7.63210626032603  2.78194083128313  0.94333677067707
 6 -7.85440262846285 -2.70088009910991 -0.48403568116812
 6  6.13220712221222  0.65372976197620  0.29528168716872
 6 -6.24288289818982 -0.83600442304230 -0.27659977167717
 6  4.79266991769177  1.34449678157816  0.29510916991699
 6 -4.90382999479948 -1.58956493429343 -0.37726910851085
 6  3.66713542514251  0.69476704190419  0.11219316861686
 6 -3.76541192639264 -1.14648528122812 -0.21396383408341
 6  2.30977427882788  1.21866257395740  0.23376786468647
 6 -2.47745674507451 -1.87914297299730 -0.29151243134313
 6  2.14520889248925  2.68104747124712  0.45179955325533
 6 -2.56547709310931 -3.36538006450645 -0.39939128922892
 6  1.26430797929793  0.43591493309331  0.04629954695470
 6 -1.33640181328133 -1.24314288628863 -0.27159586468647
 6  1.16002037423742 -1.03905885308531 -0.00173769346935
 6  0.01524206380638 -1.76709294909491 -0.18329208520852
 1  14.15979608540854 -0.20134770527053  0.40558860176018
 1  14.19977699149915  0.04256588088809 -1.45678921732173
 1 -11.98336470147015  1.83179556975698  1.78955252005201
 1 -13.59746060366037  0.83271276357636  1.97012345044504
 1  13.80027064906491 -2.67139795749575 -1.04187763356336
 1  12.41168705040504 -1.80163406340634 -1.68557468076808
 1 -13.75279866806681  3.08111147114711  0.49441047864786
 1 -14.08370315411541  1.53118279247925 -0.51069509160916
 1  12.75489745354536 -2.20144265086509  1.39038092009201
 1  11.69363681818182 -3.23773746584658  0.41413826942694
 1 -11.85977576967697  3.38494621532153 -0.25542902590259
 1 -12.26643285718572  3.00504401220122 -1.62694659585959
 1  11.39721309180918  0.05664258695870 -2.30337847054706
 1  12.21135801650165  1.59476413771377 -2.63593016701670
 1  10.56959453075307  1.45010812251225 -2.00458117761776
 1  12.66306726082608  1.93132003390339  1.08483582408241
 1  11.84994340124012  2.83720363126313 -0.19817397439744
 1  13.45094695099510  2.51121139103910 -0.77839011011101
 1 -13.23520275097510 -0.87931194019402 -0.80076617731773
 1 -13.80346251885188 -1.33970977517752  0.66428364906491
 1 -12.53136073927393 -2.14403280818082  0.22041615911591
 1 -10.83387587848785 -0.11926756615661  2.64624428352835
 1 -11.09591611701170 -1.56669767046705  1.79497351355136
 1 -12.51122518651865 -0.68266273417342  2.84234276237624
 1  10.03585699229923  1.76655151525152  0.39854576247625
 1 -10.12311675637564 -1.58139324932493 -0.31956833483348
 1  9.44229830733073 -1.07333492819282  2.28037179477948
 1  10.83907472157216 -2.44191038893889  2.45078650865086
 1  9.66458852605261 -2.50167001700170  1.14144376597660
 1 -9.45259229452945  0.99087139973997 -2.15589808670867
 1 -9.48341314621462  2.72180570257026 -1.66159620582058
 1 -10.32530279527953  2.33084809020902 -3.03676364966497
 1  8.35259084988499 -0.56904768496850  0.10731378097810
 1 -8.29515291049105  0.78167236133613 -0.01787544004400
 1  8.13768700080008  2.49800483638364  2.03642302480248
 1  6.68695057575758  3.23040074427443  0.85276785648565
 1  8.41674591229123  3.19606826882688  0.19010578767877
 1 -8.33528448064807 -2.98400545964596 -1.52112880648065
 1 -8.47138812711271 -3.18765195249525  0.20528666796680
 1 -6.99898445104510 -3.59558220952095 -0.11574045924592
 1  6.18041890639064 -0.38386361316132  0.30282826612661
 1 -6.05946793139314  0.16302824132413  0.02756247944794
 1  4.81674503180318  2.51853029712971  0.54723763056306
 1 -5.18006810711071 -2.47892140854085 -0.86009815091509
 1  3.62569283598360 -0.28814338423842 -0.35413577517752
 1 -3.64295192639264  0.06525285518552 -0.19236110281028
 1  2.45767646704670  2.87981837793779  1.32912156745675
 1  1.11351855265527  2.84925565736574  0.53324305180518
 1  2.56301336013601  3.27552802630263 -0.21612558215822
 1 -3.01002287188719 -3.44659301520152 -1.36386139693969
 1 -3.16156776257626 -3.67768976187619  0.41241589298930
 1 -1.61216218751875 -3.73502383678368 -0.50291251765177
 1  0.26215861666167  1.00974688988899  0.11549219441944
 1 -1.31220230883088 -0.16536854965497 -0.23917164326433
 1  2.07426597109711 -1.70576962666267  0.00345078087809
 1  0.09396990779078 -2.73893893619362 -0.60635149604961

