%nproc=4
%Mem=2GB
# td=(NStates=1) B3LYP/6-31G(d,p) 

TD

0 1
 6  12.11263560616062  0.58882948344834 -0.70359647854785
 6 -12.18918123222322  0.06373133153315  0.79776895579558
 6  13.37707712041204 -0.18428808880888 -0.78423442244224
 6 -13.12367886778678  1.25362975447545  1.20600131453145
 6  13.08556087028703 -1.77097276967697 -0.76724848364836
 6 -13.28113270937094  2.07299581168117  0.02124249134913
 6  11.12134392829283  0.04979924442444  0.29406694449445
 6 -11.01403907170717  0.45234511681168 -0.16809444424442
 6  12.47241167856786 -2.06412870687069  0.64462843914391
 6 -12.06846672927293  2.78022833103310 -0.60903923982398
 6  11.29913962196220 -1.21067312181218  0.91330789918992
 6 -10.95724051825182  1.67514313611361 -0.75120399409941
 6  11.40949153685369  0.60918204330433 -2.18667714631463
 6  12.38131154455446  2.06729078417842 -0.37410892989299
 6 -12.95083267406741 -1.11597871657166  0.21839566946695
 6 -11.50598946694669 -0.53646682028203  2.07669581778178
 6  9.87062512511251  0.92887900150015  0.44709671017102
 6 -9.98864867176718 -0.58498104020402 -0.24609869766977
 6  10.38292246854685 -1.66751656335634  1.96913954885489
 6 -9.88548151835184  2.08388012711271 -1.74606607150715
 6  8.61880812051205  0.50588054425443  0.27272547874787
 6 -8.58263122152215 -0.37869773507351 -0.21921824472447
 6  7.40732930113011  1.24026282658266  0.49701231383138
 6 -7.60624951885189 -1.32107058215822 -0.24950534743474
 6  7.56077912761276  2.77586022322232  0.70718315531553
 6 -7.94914210241024 -2.79593960506051 -0.52361963956396
 6  6.14689859135914  0.65899028802880  0.40786294529453
 6 -6.28821743164316 -0.96349717231723 -0.28702081378138
 6  4.90125077577758  1.34699703160316  0.48264792379238
 6 -5.05581519331933 -1.70450642844284 -0.42579396099610
 6  3.77863657525753  0.65150271547155  0.21941389068907
 6 -3.85143052825283 -1.18333896659666 -0.30799323702370
 6  2.38850215161516  1.22370307800780  0.30390487838784
 6 -2.61027002640264 -1.92806786548655 -0.40516379647965
 6  2.27281165276528  2.71638100460046  0.59984435773577
 6 -2.51998254365437 -3.36897042354235 -0.66740809090909
 6  1.25160670917092  0.42681402300230  0.24966988398840
 6 -1.41034920802080 -1.12961153315332 -0.31781048614861
 6  1.13888826102610 -0.93981892909291 -0.18344586428643
 6 -0.00290975137514 -1.61897813761376 -0.42028578457846
 1  14.02516262206221 -0.14619218971897  0.24810285318532
 1  14.05373238703870 -0.02842121782178 -1.73008654705471
 1 -12.67805417041704  1.73301569176918  2.07953151795180
 1 -14.07708856645665  1.04104359665967  1.63015945404540
 1  14.13110373237324 -2.38440925862586 -0.93029647544754
 1  12.49631551325133 -2.06964086408641 -1.51202732603260
 1 -14.17175056325633  2.82175553555355  0.20950198779878
 1 -13.78626341014101  1.47225689988999 -0.58471249334933
 1  13.21724368816882 -1.99730223682368  1.52275415741574
 1  12.03296075057506 -3.04427811991199  0.80884774037404
 1 -11.78449824192419  3.81063878457846 -0.09526300930093
 1 -12.09066528042804  3.07778128592859 -1.68654255545555
 1  11.50154352485248 -0.50137321462146 -2.58604673737374
 1  11.92998987968797  1.18738339963996 -2.95274184818482
 1  10.44850242154215  0.97028013971397 -2.18737945744574
 1  12.71800275437544  2.23944084598460  0.71790913141314
 1  11.46046445334533  2.87999791069107 -0.57147130413041
 1  13.23057491379138  2.29015928582858 -0.91129340044004
 1 -13.69613884458446 -0.76539054805481 -0.60021612231223
 1 -13.63418559115911 -1.58724452865286  0.92732995369537
 1 -12.53626122932293 -2.14037244214421 -0.07338322082208
 1 -10.67070956185619  0.09657401800180  2.43522318141814
 1 -11.30073659905991 -1.60507150785078  1.87530154635464
 1 -12.35540960496050 -0.39588405630563  2.94654318241824
 1  10.14548795539554  1.93861872197220  0.82758866676668
 1 -10.47084152885289 -1.50077518751875 -0.23753013101310
 1  9.61304538203821 -0.96133372807281  2.62293605120512
 1  10.98021883598360 -2.03203940184018  2.99573100310031
 1  9.53509557675768 -2.44755460546055  1.55424504610461
 1 -9.49423645894589  1.02285459805981 -1.92908540544054
 1 -8.96210101500150  2.64689821182118 -1.24330437663766
 1 -10.27850811581158  2.62503750915091 -2.49733970727073
 1  8.35562115291529 -0.51362214241424  0.15743879347935
 1 -8.42671606680668  0.66507070117012 -0.17610126262626
 1  8.38065129722972  2.95928096399640  1.41021040354035
 1  6.33435531623162  3.18396610081008  1.17963054275428
 1  7.91389562726273  3.46411507350735 -0.28836205910591
 1 -8.49697064926493 -2.91855891499150 -1.52339903350335
 1 -8.60044103240324 -3.14792798009801  0.17187332663266
 1 -6.94340889348935 -3.20849350065006 -0.88292717791779
 1  6.22019288378838 -0.41228645544554  0.00841882518252
 1 -6.10314229882988  0.11597353585359 -0.13220349714972
 1  4.97336069336934  2.29342778687869  0.69148205500550
 1 -5.20021012131213 -2.64906842324232 -0.73273541464146
 1  3.82774304100410 -0.47158172807281  0.10065970437044
 1 -3.74121175237524 -0.01471514161416 -0.11319318601860
 1  2.89076977637764  2.97303769986999  1.56464511981198
 1  1.32215941674167  2.90207093889389  0.81929165666567
 1  2.76961402020202  3.28990946444644 -0.16593056265627
 1 -2.97174904450445 -3.50828918481848 -1.73498850965096
 1 -3.24041564736474 -3.89876186908691  0.09438408980898
 1 -1.51014198549855 -3.77867820222022 -0.51861408780878
 1  0.29472187298730  1.04988090329033  0.34731537673767
 1 -1.46758784738474  0.00501848904891 -0.00319804590459
 1  2.03854239873987 -1.44369341904190 -0.47689725392539
 1  0.24536504730473 -2.72741778407841 -0.71174203510351

