%nproc=4
%Mem=2GB
# td=(NStates=1) B3LYP/6-31G(d,p) 

TD

0 1
 6  12.05886022862286  0.45136573707371 -0.75108122702270
 6 -11.96024833893389 -0.08732377397740  0.93235241414141
 6  13.35900531323132 -0.41416107610761 -0.77577357635764
 6 -12.94002050195020  1.08631302280228  1.30615132953295
 6  12.97833014721472 -1.86370204260426 -0.68364012281228
 6 -13.31489608570857  2.00278879097910  0.12874324142414
 6  11.01733352725273 -0.03828956445645  0.25122266006601
 6 -10.91074874267427  0.31822170447045 -0.05833346814681
 6  12.32249668706871 -2.28450074407441  0.64040801710171
 6 -12.08736861946195  2.64839514771477 -0.45703403930393
 6  11.13763347134713 -1.16388844334433  1.02183875227523
 6 -11.01124591879188  1.50176579837984 -0.81674054775478
 6  11.44553514121412  0.67183830893089 -2.16529500810081
 6  12.48064147754775  1.96272032713271 -0.33568508750875
 6 -12.91401899269927 -1.12388950765077  0.23581741164116
 6 -11.36559542754275 -0.62994616821682  2.17056520472047
 6  9.91677974057406  0.85694180778078  0.51400340084008
 6 -9.95712551945194 -0.67090963306331 -0.35515960376038
 6  10.21804598089809 -1.67083689538954  2.08514114901490
 6 -10.10029299949995  1.91968370747075 -1.95479694459446
 6  8.62884912461246  0.47575753195320  0.43386159235924
 6 -8.63276623502350 -0.37680754605461 -0.17704402730273
 6  7.44314288248825  1.39397819811981  0.49255186778678
 6 -7.56873576747675 -1.28462693779378 -0.42022241914191
 6  7.66152920262026  2.83006564376438  0.65698813581358
 6 -7.86303349154915 -2.72633264436444 -0.69797707530753
 6  6.22764666616662  0.70974536353635  0.35255741474147
 6 -6.33287189708971 -0.87518834143414 -0.34180629232923
 6  4.91856250695070  1.31908424032403  0.40439009800980
 6 -5.16130574237424 -1.59426540434043 -0.38845022662266
 6  3.73788249984998  0.71212877807781  0.32027397669767
 6 -3.80409579477948 -1.04157479017902 -0.27824026172617
 6  2.38821212261226  1.34462517021702  0.27821230913091
 6 -2.58585758515852 -1.72829788848885 -0.43945722582258
 6  2.24240861246125  2.91205057155716  0.48992336563656
 6 -2.60440098549855 -3.13354688118812 -0.72155350545054
 6  1.22136368486849  0.63832517411741  0.06206112311231
 6 -1.38800697379738 -1.02466103810381 -0.31623032813281
 6  1.10922529472947 -0.81214616181618 -0.24595211491149
 6 -0.01664112451245 -1.52217845764576 -0.30124388038804
 1  14.04520462626263 -0.13462103260326 -0.06086804390439
 1  14.08347536133613 -0.40489886558656 -1.59091262966297
 1 -12.58535490049005  1.63803619381938  2.11024458925893
 1 -13.88439929752975  0.82073156545655  1.86508294639464
 1  14.08041866386639 -2.50081089878988 -0.70288373417342
 1  12.15792167386739 -2.17769166916692 -1.41690781408141
 1 -13.92753614181418  2.73546690669067  0.31314235183518
 1 -13.97549233303330  1.56714638883888 -0.68842286438644
 1  12.87334929872987 -2.38748125472547  1.41199308130813
 1  11.69880733523352 -3.18820251235124  0.32102895849585
 1 -11.70599039113911  3.43933165386539  0.06961347834783
 1 -12.01839805370537  3.20997450525053 -1.44524842604260
 1  11.08555192569257 -0.24188726602660 -2.62513064576458
 1  12.25202208290829  1.17337199849985 -2.92758933293329
 1  10.49772734403440  1.44255736743674 -2.30072079157916
 1  12.78228918301830  1.82270917281728  0.65364270477048
 1  11.63685209210921  2.56977688858886 -0.52584674167417
 1  13.22109396569657  2.42483275317532 -1.01167343844384
 1 -13.50365959665967 -0.61798580758076 -0.53939003970397
 1 -13.69334150675068 -1.58935473967397  0.86973419411941
 1 -12.34409201240124 -1.92413081798180 -0.04451033353335
 1 -10.84159665056506  0.08901326192619  2.81918157725773
 1 -10.72552907830783 -1.44828582928293  1.78598261446145
 1 -12.13668773277328 -1.13875834373437  2.95585411351135
 1  10.21290469706971  1.91574643474347  0.77672358025803
 1 -10.22014645934593 -1.62496760676068 -0.62972935093509
 1  9.81803588108811 -0.99482707740774  2.62212597019702
 1  10.93027384148415 -2.14193039093909  2.70147157715772
 1  9.57919998719872 -2.73617346734673  1.67786740834083
 1 -9.22461949724972  1.13367568016802 -2.07312980988099
 1 -9.41784658955896  2.97660118211821 -1.66556660286029
 1 -10.65913617861786  1.99226423182318 -2.98620859415942
 1  8.55694128492849 -0.64910569076908  0.48010105970597
 1 -8.33842723792379  0.74685887998800 -0.04500815331533
 1  8.44685791789179  2.96849188508851  1.40927030953095
 1  6.61902378307831  3.28249595379538  0.83686626632663
 1  7.92031626932693  3.28345700770077 -0.24681790469047
 1 -8.34801575377538 -3.01033809290929 -1.55103179677968
 1 -8.39139012731273 -3.19064225152515  0.07332347164716
 1 -6.89037358995900 -3.53536618791879 -0.73272215741574
 1  6.33213407790779 -0.36102132893289  0.34366234953495
 1 -6.22750473507351  0.24800673917392 -0.22129240604060
 1  4.87507086438644  2.46653509760976  0.45610851765177
 1 -5.17394749504951 -2.50266378277828 -0.54664680578058
 1  3.76672693939394 -0.44594916481648  0.46276591499150
 1 -3.69255688688869  0.08005433533353 -0.15028689538954
 1  2.64556525592559  3.23767416351635  1.29606826212621
 1  1.31544874567457  3.38632936473647  0.43141286878688
 1  2.99525658445845  3.48019849334933 -0.25758972857286
 1 -3.13088495809581 -3.46685504140414 -1.48318332913291
 1 -2.99715132093209 -3.62036402930293  0.19188383978398
 1 -1.47754872617262 -3.72753308770877 -0.74231645804580
 1  0.41783418421842  1.31797771297130  0.03005365056506
 1 -1.57536862546255  0.09177716491649 -0.17054478057806
 1  1.99211775627563 -1.49841889158916 -0.12842240644064
 1  0.01149165996600 -2.63820886318632 -0.50667152805281

