%nproc=4
%Mem=2GB
# td=(NStates=1) B3LYP/6-31G(d,p) 

TD

0 1
 6  12.23330767336734  0.53526412691269 -0.66097221612161
 6 -12.13844615871587 -0.10524556615662  0.78077725662566
 6  13.44010342304231 -0.41818147814781 -0.56185218421842
 6 -13.15668216811681  0.98108249974998  1.16545726012601
 6  13.10185249944995 -1.94983065546555 -0.70368212701270
 6 -13.48322291839184  1.91518003010301 -0.08601823472347
 6  10.99819161306131 -0.01102683818382  0.26950448824882
 6 -10.94986265406541  0.39084896719672 -0.01715935073507
 6  12.12601703910391 -2.26825911991199  0.43070704700470
 6 -12.25830571317132  2.47711802000200 -0.80480881678168
 6  11.09493920192019 -1.27950000450045  0.75747231563156
 6 -11.03163795799580  1.66979260106011 -0.74359323302330
 6  11.75010559825983  0.58014914001400 -2.19400787938794
 6  12.56596000940094  1.93760781588159 -0.12510402940294
 6 -12.97005459625963 -1.20209732843284  0.04929875977598
 6 -11.60871973997400 -0.55127830143014  2.19561770997100
 6  9.87392545514552  0.91597771137114  0.47702970347035
 6 -9.86155596249625 -0.54455699779978 -0.19113320112011
 6  9.97852202850285 -1.77893770547055  1.62493512841284
 6 -9.90399336953695  1.92181392049205 -1.69441090599060
 6  8.44938117781778  0.38985894209421  0.34737294349435
 6 -8.51904486288629 -0.27640750605060 -0.11456777967797
 6  7.41096966516652  1.22993179347935  0.45883849644964
 6 -7.50585947984799 -1.26173464856486 -0.29636003290329
 6  7.70793384308431  2.71557419461946  0.80753319031903
 6 -7.90197738593859 -2.74920493159316 -0.59777705530553
 6  6.13720762226223  0.82099648864886  0.18609076807681
 6 -6.15973458335834 -0.86158698129813 -0.17230934263426
 6  4.82337298799880  1.50732306420642  0.24235389438944
 6 -4.98901851365137 -1.64937091489149 -0.29225060666067
 6  3.66280499209921  0.88808637383738 -0.01372942364236
 6 -3.73912929812981 -1.07197783048305 -0.24363680138014
 6  2.35894919631963  1.49204991269127  0.25016950485048
 6 -2.46503550295030 -1.74898995769577 -0.34763804390439
 6  2.30387475907591  2.83307267376738  0.57704207750775
 6 -2.45725627102710 -3.27940146664666 -0.57855920602060
 6  1.20406195469547  0.68863020462046  0.20024494149415
 6 -1.33674184728473 -1.02659123112311 -0.16749545464546
 6  1.15678005020502 -0.68235318251825 -0.13971149084909
 6  0.09594013361336 -1.47542378217822 -0.18121187718772
 1  14.03419352515252 -0.37720529102910  0.47801584448445
 1  14.26438345214521 -0.12809118481848 -1.06820035843584
 1 -12.71176754175417  1.39252164236424  1.93076664146415
 1 -14.15825668326833  0.61243073537354  1.54467090519052
 1  14.09370999299930 -2.35531634933493 -0.45335878167817
 1  12.73018890059006 -2.12059595959596 -1.85072119541954
 1 -13.85148853705371  2.84016737673767  0.39904094169417
 1 -14.02116690049005  1.37448712291229 -0.72193621572157
 1  12.58909087288729 -2.45041754835484  1.43770565256526
 1  11.65990344484448 -3.34810850295030  0.37864472007201
 1 -11.84501429352935  3.36107382808281 -0.41955543854385
 1 -12.67986420032003  2.61151465926593 -1.89518341954195
 1  11.33662703320332 -0.41378445574557 -2.65773390609061
 1  12.48161504220422  1.10710537183718 -2.94776135013501
 1  10.98991656295630  1.25136824852485 -2.23887460696070
 1  12.74557551165117  2.02235913781378  0.92937027752775
 1  11.79656806370637  2.76972688358836 -0.46549070607061
 1  13.54280613691369  2.39028929882988 -0.43939621072107
 1 -13.29186841754175 -0.67467147614762 -0.95290139083908
 1 -13.80697286988699 -1.47823362756276  0.66148336903690
 1 -12.31089869306931 -2.02340074497450 -0.08593447594759
 1 -11.07904039493949 -0.00976661606161  2.93805346444644
 1 -10.91285781118112 -1.32981398209821  2.06029004520452
 1 -12.24361842584258 -0.77595206310631  3.00493902200220
 1  9.99086249284928  1.92929778987899  0.56999290719072
 1 -9.80426487118712 -1.65764087408741 -0.41801817981798
 1  9.56395047254725 -0.93948154285429  2.09834359195920
 1  10.68063887798780 -2.35119131703170  2.60126155615562
 1  9.21877394459446 -2.50372022202220  1.17856747834784
 1 -9.37279431473147  0.91997431003100 -1.84106660356036
 1 -9.17724252915291  2.63037655965597 -1.27152719891989
 1 -10.22225249024903  2.35363036843684 -2.60504047734773
 1  8.28835442624262 -0.64138491869187 -0.02108905930593
 1 -8.16144954015402  0.76943113721372  0.05250159765977
 1  8.54981821392139  2.83913894979498  1.53921330383038
 1  6.90594247494750  3.32339004320432  1.51534411411141
 1  7.96275051275128  3.43442210421042 -0.06900012291229
 1 -8.18671962416242 -2.53819087818782 -1.63966065966597
 1 -8.82956394469447 -3.08828201550155  0.12540868016802
 1 -7.00514506710671 -3.49441209250925 -0.29973885908591
 1  6.01136200070007 -0.18676390319032 -0.26041805850585
 1 -6.19890187478748  0.13202514101410  0.05186490969097
 1  4.76146950425043  2.53151159525953  0.59890279707971
 1 -5.01576167646765 -2.73475699209921 -0.34625676677668
 1  3.73678394509451 -0.10257482738274 -0.28826918851885
 1 -3.50433806500650  0.01053738363836  0.06564469776978
 1  3.05641634103410  3.22705310141014  1.47416607190719
 1  1.27880508130813  3.16026675847585  0.86769649714972
 1  2.45875293409341  3.41809228272827 -0.35171914151415
 1 -2.92879474907491 -3.65376373227323 -1.52659767056706
 1 -3.03375498129813 -3.87363935683568  0.25336998839884
 1 -1.47310828212821 -3.54895522992299 -0.62617484388439
 1  0.18837123792379  1.28002391759176  0.14413505870587
 1 -1.39895098369837  0.22857084428443  0.02195446934693
 1  2.05173371787179 -1.20517956765677 -0.15461502570257
 1  0.16468697949795 -2.66028107040704 -0.34179504040404

