%nproc=4
%Mem=2GB
# td=(NStates=1) B3LYP/6-31G(d,p) 

TD

0 1
 6  12.24598894149415  0.53876447694769 -0.75281140004000
 6 -12.06914922902290  0.04720967936794  0.85466464536454
 6  13.48235764846485 -0.37124678467847 -0.55563156215622
 6 -12.87153365326533  1.21936632813281  1.38545926032603
 6  13.16469878407841 -1.88443411581158 -0.59529128792879
 6 -13.29909450555055  2.09204771687169  0.27353772087209
 6  11.06687848174817 -0.00619635513551  0.18209574737474
 6 -10.94313198099810  0.42494237653765 -0.09916755155516
 6  12.26888132553255 -2.17223951795180  0.58778275457546
 6 -12.07706758935893  2.68819912811281 -0.63253158905891
 6  11.07241694969497 -1.22580463496350  0.84964153255326
 6 -10.96739153335333  1.64649027082708 -0.84259313301330
 6  11.69648023572357  0.63993511861186 -2.20242872147215
 6  12.60379379277928  1.88391244634463 -0.25339685868587
 6 -13.02055964676468 -1.04136125482548  0.21413524342434
 6 -11.39840870887089 -0.62283545714571  2.13383153135314
 6  9.82168023062306  0.87480359395940  0.19880188068807
 6 -9.94620442734273 -0.61271381348135 -0.34734882268227
 6  10.05393957025703 -1.67266707840784  1.84394702960296
 6 -9.97275024522452  2.09662140124012 -1.91858332323232
 6  8.45812205190519  0.55109506570657  0.24888309450945
 6 -8.54237719611961 -0.40166003130313 -0.29643596649665
 6  7.31626019421942  1.44295309560956  0.33838645124512
 6 -7.59412830673067 -1.44271274637464 -0.50113050995100
 6  7.57175022472247  2.92251488868887  0.55285772277228
 6 -7.91081827002700 -2.82318232933293 -0.72048932653265
 6  6.03789769126913  0.84426881588159  0.35110726972697
 6 -6.22601121102110 -1.04700552315232 -0.38689080078008
 6  4.79237988868887  1.47888021992199  0.58614827382738
 6 -5.07297690949095 -1.75803178097810 -0.45386676827683
 6  3.64083279487949  0.78190575577558  0.36247819711971
 6 -3.72382776797680 -1.25276590929093 -0.30908334603460
 6  2.30703400480048  1.33132384008401  0.45212970087009
 6 -2.44068306770677 -1.96437149584958 -0.36587986808681
 6  2.24997936953695  2.84106347284728  0.79790416371637
 6 -2.58130867626763 -3.47321084758476 -0.52340369046905
 6  1.10737228572857  0.62313365496550  0.18273319031903
 6 -1.37263543664366 -1.15126369836984 -0.27100580568057
 6  1.12321669386939 -0.85777072427243 -0.01252877257726
 6 -0.00801026142614 -1.59024526432643 -0.24573832983298
 1  13.97006711251125 -0.21172874337434  0.37205524842484
 1  14.16225323912391 -0.34260263596360 -1.53788732713271
 1 -12.14792115711571  1.82409479967997  2.12333589838984
 1 -13.69391024862486  0.66405589788979  1.95257169526953
 1  14.10600122212221 -2.61899271697170 -0.53393683948395
 1  12.67999388108811 -2.07325122512251 -1.44128025132513
 1 -13.83897728592859  3.05280864086409  0.55358639623962
 1 -13.95478026182618  1.41078075227523 -0.27888191029103
 1  12.91753371717172 -2.34513702030203  1.58500038203820
 1  11.81624907940794 -3.08559225132513  0.56837369296930
 1 -11.60419021112111  3.40815853655365  0.09760627762776
 1 -12.57485369926993  2.93578708650865 -1.72838673987399
 1  11.11178454895490 -0.23550662796280 -2.52538067076708
 1  12.85809268996900  0.85738039933993 -2.82059863386339
 1  10.96157372867287  1.51675478717872 -2.49792051155116
 1  12.90723167726773  2.04739164106411  0.82086942744274
 1  12.04746315321532  2.61515142604260 -0.45880003700370
 1  13.66350820712071  2.24068433833383 -0.70648291939194
 1 -13.64825405610561 -0.61801581058106 -0.58321442214221
 1 -13.79394156675668 -1.48273407760776  0.85361258195820
 1 -12.41959956315632 -2.06687509240924 -0.19633551605160
 1 -10.75344783568357  0.01672603320332  2.47368702780278
 1 -10.75418194359436 -1.29951095179518  1.94400841704170
 1 -12.18793285728573 -0.82182665056506  2.89355788388839
 1  10.09511291789179  1.92274713481348  0.17885379327933
 1 -10.42589703440344 -1.59749485948595 -0.39860623862386
 1  9.37136121362136 -0.74445203990399  2.06747050465046
 1  10.68845966006601 -2.03363956185619  2.74297572757276
 1  9.37707977517752 -2.61764161416142  1.36003562516252
 1 -9.17408444374437  1.52665497809781 -2.15247774467447
 1 -9.56133093799380  3.09764328632863 -1.47845789198920
 1 -10.50099036403640  2.20974597999800 -2.88910888418842
 1  7.87781337213721 -0.45475625582558  0.02051510111011
 1 -8.06885028022802  0.59411360546055 -0.06109976247625
 1  8.26197943004300  3.27186222212221  1.36046542904290
 1  6.49477135783578  3.46151385558556  0.60398297799780
 1  8.16924116181618  3.22132079407941 -0.48848207110711
 1 -8.57147810001000 -2.60789784888489 -1.65976266986699
 1 -8.71858284658466 -3.41228441574157  0.09619575887589
 1 -6.94154870747075 -3.42041469276928 -1.12853173837384
 1  6.04034489898990 -0.20669589638964  0.21680966426643
 1 -5.99333131773177  0.06618855735574 -0.31115139193919
 1  4.71057441474147  2.75388383248325  0.94004691149115
 1 -5.12751285158516 -2.83747726412641 -0.62103424452445
 1  3.80007027372737 -0.15151972187219  0.27443708210821
 1 -3.65185281648165 -0.21873554365437 -0.17387925462546
 1  2.88519921932193  2.83881427752775  1.78281693699370
 1  1.21133833463346  3.32748348014801  1.09262899039904
 1  2.65021208000800  3.41052152565257 -0.14834880448045
 1 -2.85293716331633 -3.77613596949695 -1.67596260706071
 1 -3.28078968476848 -4.03268526142614 -0.03900924952495
 1 -1.40172114341434 -3.86110644504450 -0.27476970337034
 1  0.16747914871487  1.21717763296330  0.04117476267627
 1 -1.49892098069807 -0.14811682448245 -0.50104783088309
 1  2.03727227172717 -1.57396644634463 -0.04164372857286
 1  0.15604611541154 -2.60647568986899 -0.19297015791579

