%nproc=4
%Mem=2GB
# td=(NStates=1) B3LYP/6-31G(d,p) 

TD

0 1
 6  12.12161650425042  0.57044764526453 -0.65098121702170
 6 -12.14022633673367 -0.00496553815382  0.77233641254125
 6  13.46734614731473 -0.18828848884888 -0.63443944294429
 6 -12.98833533343334  1.23058745024502  1.33199391379138
 6  13.17130944514451 -1.72295796819682 -0.53263502230223
 6 -13.35511010711071  2.07735624772477  0.21983235033503
 6  11.04749654355436  0.03287755225523  0.28523606140614
 6 -10.98797646544654  0.42355223752375 -0.15809344414441
 6  12.29614405180518 -2.15988828282828  0.66756073237324
 6 -12.14987487008701  2.66199650785078 -0.50591892779278
 6  11.12011171917192 -1.17495955045505  0.72344891329133
 6 -11.05895068926893  1.68792441424142 -0.69380825452545
 6  11.58742933063306  0.60302142724272 -2.21340981958196
 6  12.51397481088109  2.01035509060906 -0.28665018401840
 6 -13.02870046084609 -0.99841696039604  0.16501033093309
 6 -11.54083295129513 -0.73807698129813  2.08203635183518
 6  9.84635269786979  0.94337045064506  0.45702770327033
 6 -9.85144495139514 -0.58158070017002 -0.31981606940694
 6  10.13500767706771 -1.69434924662466  1.79873250815081
 6 -10.06542951315132  2.04812655175518 -1.78735019991999
 6  8.60787702740274  0.44235419161916  0.33250145634563
 6 -8.54459741814181 -0.24188405370537 -0.32658898179818
 6  7.35385395359536  1.24361316161616  0.40634324692469
 6 -7.46419531343134 -1.32007048214821 -0.47850824772477
 6  7.58033108280828  2.77758039523952  0.71481391839184
 6 -7.95429261746175 -2.66964697579758 -0.78055533313331
 6  6.12114601610161  0.76062045104510  0.16130828982898
 6 -6.22344095399540 -0.93712453505351 -0.27797990969097
 6  4.87676832753275  1.43047537943794  0.25041470047005
 6 -5.00810042184218 -1.65373135093509 -0.38277965956596
 6  3.71716042764276  0.70434800000000  0.24409635893589
 6 -3.67715310051005 -1.07280791349135 -0.27032947064706
 6  2.32376567796780  1.15111581928193  0.32034652255226
 6 -2.45320431983198 -1.80732579127913 -0.22952623272327
 6  2.19744411601160  2.63043240974097  0.46130050335034
 6 -2.51330187558756 -3.34928845534553 -0.40622197229723
 6  1.26059760826083  0.42479382098210  0.16334125112511
 6 -1.31126930003000 -1.21093966596660 -0.10354906000600
 6  1.15160953315332 -0.92002694989499 -0.18328584828483
 6  0.02967350695070 -1.69635587538754 -0.25103885988599
 1  14.06847695349535  0.33935636513651  0.14425246814681
 1  14.12204921872187 -0.08396677237724 -1.42135567396740
 1 -12.40834719971997  1.76969936013601  2.14742830763076
 1 -13.84387524512451  0.78162765506551  1.85890232833283
 1  14.08035865786579 -2.42442326002600 -0.64711815761576
 1  12.46281216291629 -1.79006290629063 -1.33064918821882
 1 -13.93395678387839  3.08552191219122  0.53277431503150
 1 -13.85265004880488  1.54761443564356 -0.64789881198120
 1  12.86114807860786 -2.11754426102610  1.65467734973497
 1  11.91864931943194 -3.14139783188319  0.35106196179618
 1 -11.51905169726973  3.44844256495650 -0.00119360236024
 1 -12.33392960686069  3.10253376117612 -1.53624752595259
 1  11.28790216071607 -0.33611668896890 -2.79874800750075
 1  12.11120800150015  1.03368803010301 -2.96364293829383
 1  10.82217978927893  1.20316342804280 -2.22978369786979
 1  12.82661361546155  2.06532343424342  0.55952329282928
 1  11.44493290019002  2.55045495639564 -0.41151530853085
 1  13.46219807610761  2.34493476337634 -0.71034330543054
 1 -13.42295152585259 -0.87006101510151 -0.81285738643864
 1 -13.94564673727373 -1.21429723392339  0.78843606430643
 1 -12.60419802300230 -2.14888329322932 -0.16939282178218
 1 -11.07196968786879 -0.11762740214021  2.76807646674667
 1 -11.06331285668567 -1.72918391909191  1.90124414061406
 1 -12.59600366436644 -0.95962042994299  2.67732626072607
 1  10.06202960956096  2.03672853295330  0.78119402730273
 1 -10.02950739543954 -1.52187729772977 -0.36715309330933
 1  9.44879895739574 -0.99253684838484  2.44380813841384
 1  10.45945675977598 -2.07181337923792  2.76027745774577
 1  9.57481954915492 -2.65243509350935  1.51359098069807
 1 -9.41652868816882  1.14941725432543 -2.15044754165417
 1 -9.24023882878288  2.84970849284928 -1.42218226442644
 1 -10.67079734473447  2.35974097949795 -2.77845781908191
 1  8.46638222902290 -0.63152393259326  0.21068411801180
 1 -8.26674006920692  0.75819001310131  0.00299664716472
 1  7.99541277337734  3.10731576747675  1.72349173167317
 1  6.48417029772977  3.33433113731373  0.78210078977898
 1  8.43287752545254  3.17790645264527  0.04088086518652
 1 -8.63070402260226 -2.59519657875788 -1.76700339393939
 1 -8.53392438073807 -3.06287947524752  0.19535567486749
 1 -7.09705425802580 -3.33472612391239 -0.91447033223322
 1  6.02140300480048 -0.21412663946395 -0.26226824352435
 1 -5.98418040264026  0.07186912541254 -0.44721499829983
 1  5.00534389168917  2.39744818891889  0.46217912471247
 1 -4.89459956025603 -2.75269878627863 -0.57055919701970
 1  3.79532979967997 -0.44163873377338  0.19155879427943
 1 -3.64047167836784  0.01605793569357 -0.26302816951695
 1  2.68302900230023  3.27855825192519  1.56616527182718
 1  1.25058225902590  3.14199493129313  0.29598932643264
 1  2.85549260806081  2.95981645514551 -0.42212618221822
 1 -2.82851472107211 -3.57364572047205 -1.35597060786079
 1 -3.16247785358536 -3.84474646754675  0.25064971637164
 1 -1.45514648594859 -3.84709504390439 -0.22474470087009
 1  0.29242164296430  0.98742465766577  0.21972261746175
 1 -1.31758284688469 -0.11735374817482  0.02015428932893
 1  2.08792733723372 -1.53841289098910 -0.41328089228923
 1 -0.10580006920692 -2.68050309260926 -0.52970383128313

