%nproc=4
%Mem=2GB
# td=(NStates=1) B3LYP/6-31G(d,p) 

TD

0 1
 6  12.25262960556056  0.73609420992099 -0.52555867476748
 6 -12.07558987308731  0.10421537993799  0.93643282218222
 6  13.51156056875688 -0.28165782578258 -0.41136713571357
 6 -12.80479697959796  1.34035842734273  1.30040075447545
 6  13.20043235743574 -1.73610928332833 -0.47199895869587
 6 -13.35543013911391  2.12026053815382  0.11575194229423
 6  11.01412320622062  0.08390265476548  0.29060659845985
 6 -11.05694336213621  0.39775965826583 -0.10502813761376
 6  12.26189062646265 -2.15129742374237  0.60565454175418
 6 -11.99280916351635  2.57168747694769 -0.58927726362636
 6  11.14022373037304 -1.14608666316632  0.80419698809881
 6 -11.12335712991299  1.55084070587059 -0.74817369106911
 6  11.83857444514452  0.98628975407541 -2.06024450305030
 6  12.62534594799480  2.14859891499150 -0.00212173117312
 6 -12.93598118891889 -1.06370348904890  0.41100493039304
 6 -11.40349921792179 -0.50137331093109  2.20360850905091
 6  9.85872393499350  0.88928504210421  0.47747974847485
 6 -9.87647745464546 -0.60228277037704 -0.10301438923892
 6  10.16968114441444 -1.83812362406241  1.73160579547955
 6 -10.07594056425643  1.99660139923992 -1.76164762966297
 6  8.53888012771277  0.50836079227923  0.34657286348635
 6 -8.55585854425443 -0.27014687998800 -0.18220454335434
 6  7.32682125032503  1.29902870317032  0.32045465806581
 6 -7.56103499739974 -1.16195467056706 -0.41523192009201
 6  7.48743179287929  2.83468610581058  0.67043948094809
 6 -8.05378256645665 -2.66632664376438 -0.67083436103610
 6  6.10424432593259  0.70521491049105  0.13171533053305
 6 -6.22895150505050 -0.94484530713071 -0.29176128782878
 6  4.82936358705871  1.27626995889589  0.22250190919092
 6 -5.09557916971697 -1.76578255605561 -0.41859324092409
 6  3.60348906050605  0.59131669686969  0.07653960326033
 6 -3.88266365156516 -1.19620025272527 -0.28272070977098
 6  2.35663896529653  1.12209291699170  0.04895938383838
 6 -2.51532053145315 -1.93462852155216 -0.37610089018902
 6  2.24537890949095  2.62643200970097  0.26744111741174
 6 -2.60180072547255 -3.45990951745175 -0.81364271437144
 6  1.22300384888489  0.36926826842684 -0.05087017001700
 6 -1.34440261336134 -1.22242081408141 -0.23138184328433
 6  1.19273364556456 -1.03142809000900 -0.23259077877788
 6 -0.03871333173317 -1.79652589238924 -0.31267502350235
 1  14.02308241404140 -0.25459302980298  0.61026906980698
 1  14.41850886468647 -0.11813018871887 -1.03427696609661
 1 -12.27435380038004  2.16985937613761  1.65640920572057
 1 -13.66704756235624  1.23295278757876  2.01136757485749
 1  14.24224484648465 -2.33955477317732 -0.70233367916792
 1  12.86395227692769 -1.90352425242524 -1.63444956825683
 1 -14.16427981618162  2.92949630963096  0.33655469306931
 1 -14.05271005480548  1.32041171537154 -0.41246526862686
 1  12.81269323312331 -2.08895140174017  1.63536541854185
 1  11.92337979247925 -3.25429912201220  0.71069792539254
 1 -11.70954074617462  3.49098681938194 -0.02725620862086
 1 -12.14817103100310  3.10558406620662 -1.59397329852985
 1  11.52476584708471 -0.05490856815682 -2.65139327202720
 1  12.62460934163416  1.51752641394139 -2.46373294729473
 1  10.77698526982698  1.36114922662266 -2.09693041254125
 1  12.96675762986299  1.99736663856386  1.01136847734773
 1  11.58076648354835  2.76689660056006  0.07684352735274
 1  13.37658951525152  2.39592986288629 -0.75447771887189
 1 -13.50863009370937 -0.79517352635264 -0.48733483418342
 1 -13.86667884048405 -1.32425823002300  0.89437665836584
 1 -12.39105670887089 -2.09544794969497  0.07052116961696
 1 -10.73461595249525  0.38752311291129  2.76316597569757
 1 -10.81497802320232 -1.24312531323132  2.16198021422142
 1 -12.28481254525452 -0.52365683358336  3.08112664076408
 1  10.15943935053505  1.92114697479748  0.65995190309031
 1 -10.12302674737474 -1.63107821782178 -0.20361673967397
 1  9.42600667816782 -1.01907950265027  2.29080283788379
 1  10.57769858395840 -2.40157635553555  2.52789421942194
 1  9.58659072627263 -2.65270512051205  1.24981460306031
 1 -9.37906494179418  1.28980129272927 -2.17309980688069
 1 -9.41439624452445  2.82680620262026 -1.21694174037404
 1 -10.32140240524052  2.55961096649665 -2.56495646894690
 1  8.27596318711871 -0.41316209640964  0.10220326992699
 1 -8.20994438963896  0.63627782188219  0.31116746424642
 1  7.83723695579558  3.00647568346835  1.57688707120712
 1  6.59993187388739  3.41307901210121  0.63211579127913
 1  8.15359959765977  3.29535819781978  0.01202797989799
 1 -8.37818877107711 -2.47601466056606 -1.73097979157916
 1 -8.77322831113111 -3.11480466776678  0.02031817111711
 1 -7.27604215681568 -3.38980163146315 -0.69376826202620
 1  6.15791665616562 -0.36880210701070 -0.14091610831083
 1 -5.85923790839084  0.19521145964596 -0.30561083788379
 1  4.79202255955596  2.48360680478048  0.54574748154816
 1 -5.44467456775678 -2.82439595599560 -0.20883302440244
 1  3.62322258895890 -0.43018758865887 -0.03912427402740
 1 -3.85789342054205 -0.00899456955696  0.05266339963996
 1  2.88449914931493  3.08997939403940  1.11029968526853
 1  1.19735693649365  2.94056478827883  0.36828655615562
 1  2.58702576137614  2.98308878237824 -0.73921789138914
 1 -3.38645051465147 -3.47489584548455 -1.73787879867987
 1 -3.24671627742774 -4.01538353125312 -0.02213756235624
 1 -1.66086705800580 -3.87861819621962 -0.90272249864986
 1  0.20052245304530  1.10334624982498 -0.19449880468047
 1 -1.52589367796780 -0.19174118691869 -0.13757148324832
 1  2.06063460796080 -1.70815986568657 -0.28135769997000
 1  0.29151966276628 -2.83598864116412 -0.46553741464146

