%nproc=4
%Mem=2GB
# td=(NStates=1) B3LYP/6-31G(d,p) 

TD

0 1
 6  12.03655799839984  0.49111971247125 -0.75809192809281
 6 -12.14711702580258 -0.00324536613661  0.88098727762776
 6  13.38961837453745 -0.19520918091809 -0.65875187418742
 6 -13.00942744264426  1.25119951145115  1.21851256565657
 6  13.17793010721072 -1.74971064346435 -0.60020177897790
 6 -13.32738733483348  2.19591810391039  0.13779414651465
 6  11.04640643454345 -0.01767750325033  0.31339887768777
 6 -11.04105177297730  0.43938382068207 -0.09696733153315
 6  12.45702013941394 -2.01745403940394  0.71450542684268
 6 -11.97107699029903  2.72690299849985 -0.37857619351935
 6  11.20097980598060 -1.09392144664466  0.95844241264126
 6 -10.89168396259626  1.61928755055506 -0.67085595929593
 6  11.48892948064807  0.43238436353635 -2.15523400200020
 6  12.39097251065107  1.96369042414241 -0.50672219121912
 6 -13.12533012381238 -0.97784490319032  0.09655348524852
 6 -11.58085695369537 -0.72629580318032  2.17555570377038
 6  9.89027709030903  0.87927404100410  0.49323132363236
 6 -9.92500230713071 -0.67400994309431 -0.30920500830083
 6  10.23518769506951 -1.69546935863586  2.05338797369737
 6 -10.00988395859586  2.05973771287129 -1.72052351725173
 6  8.61257749744975  0.46915687188719  0.30833904010401
 6 -8.59122208060806 -0.46669653495350 -0.24309063196320
 6  7.44000256845685  1.31414021432143  0.47346995959596
 6 -7.55427432133213 -1.37009548464846 -0.41332172907291
 6  7.59621267096710  2.72082471967197  0.76481891889189
 6 -7.96526371457146 -2.72779279037904 -0.72567984558456
 6  6.14635853735374  0.71365575457546  0.15340749974998
 6 -6.21497010691069 -1.03662448504850 -0.34151626332633
 6  4.85185583628363  1.30863319521952  0.28538819781978
 6 -5.03250286208621 -1.82916889468947 -0.45405678727873
 6  3.69035774737474  0.74138170337034  0.10044199349935
 6 -3.83441882708271 -1.13643427612761 -0.32613505120512
 6  2.39968326972697  1.29341004870487  0.30792528042804
 6 -2.54192319171917 -1.90946600530053 -0.42426570667067
 6  2.23015738733873  2.84094346084608  0.59669404270427
 6 -2.39290983638364 -3.38679220572057 -0.58287963806381
 6  1.19251079957996  0.61981332293229  0.14956987398740
 6 -1.38313648674868 -1.09352792479248 -0.26510521562156
 6  1.13599797199720 -0.81997694489449 -0.14607212691269
 6  0.02700323992399 -1.52766900670067 -0.28153190919092
 1  14.14119422522252  0.14158658815882  0.08879692259226
 1  13.86133314711471 -0.05469384508451 -1.79257279567957
 1 -12.32207857285728  1.84313670387039  1.98474203900390
 1 -13.73144400200020  0.76840633293329  1.72734917301730
 1  13.98920954295430 -2.35247606530653 -0.31313475927593
 1  12.52047792949295 -2.04448834883488 -1.43964008730873
 1 -13.82286567476748  3.18668202820282  0.56369740734073
 1 -13.87535231903190  1.86573624782478 -0.75998002010201
 1  13.11865382918292 -1.85087759435944  1.66334821682168
 1  12.07478493299330 -2.94017770987099  0.60745760136014
 1 -11.63233302540254  3.51754947564757  0.44064058105811
 1 -11.95563177707771  3.05448895669567 -1.57550145134514
 1  11.43875724622462 -0.58854193149315 -2.44261239393939
 1  12.09707658835883  0.96839150045005 -2.79687626162616
 1  10.43895146644664  0.98415152685269 -2.25096581608161
 1  12.42397335143514  2.27805470737074  0.47836517701770
 1  11.59878828572857  2.65117502840284 -0.92655681268127
 1  13.29570142644264  2.28390866076608 -1.02926519761976
 1 -13.42494172487249 -0.49634364336434 -0.75159125982598
 1 -13.82223439603960 -1.31994779897990  0.71630885158516
 1 -12.80599820302030 -1.84437284218422 -0.36112199469947
 1 -10.86920941184118 -0.14645028442844  2.82226188528853
 1 -11.07143366876688 -1.62394339503950  2.18511252745274
 1 -12.53420748474847 -0.67331179907991  2.85004353245324
 1  9.97909131573157  1.95309016911691  0.88527443534353
 1 -10.30940538523852 -1.69270438043804 -0.56943332133213
 1  9.52621669916992 -0.95911350605061  2.34161791939194
 1  10.75777659175918 -2.14044024192419  2.93123455345535
 1  9.87095916311631 -2.62467231723172  1.39948957055706
 1 -9.17242427772777  1.21638395099510 -1.83122561946195
 1 -9.57844264916492  3.12932645464546 -1.50481052725273
 1 -10.59021928692869  2.25317032243224 -2.74201417471747
 1  8.56593218401840 -0.51066184638464  0.04006705630563
 1 -8.19916331153115  0.51652584668467 -0.05101875437544
 1  8.20525375747575  2.78169320522052  1.62129151165117
 1  6.65759764046405  3.19834753895390  1.37080966066607
 1  7.88333257095710  3.55985464746475 -0.15586880978098
 1 -8.40965191739174 -2.94659171827183 -1.75366205980598
 1 -8.72136312461246 -3.02691587888789  0.01814795409541
 1 -6.93345789838984 -3.34732738403840 -0.95727461266127
 1  6.14605547004700 -0.20436566336634  0.02242022532253
 1 -5.87778976357636 -0.03575163666367 -0.08834911171117
 1  4.85303866116612  2.38153659775978  0.84968787558756
 1 -4.97294739503950 -3.00633414981498 -0.83247538863886
 1  3.71157142384238 -0.36659122902290 -0.08709907150715
 1 -3.85757338853885 -0.12540621072107 -0.32466433313331
 1  3.17850855025502  3.14291468756876  1.33101175647565
 1  1.22915011581158  3.23456418821882  0.96684641214121
 1  2.71595865466547  3.44014448794880 -0.26391036063606
 1 -2.90117198679868 -3.83461181708171 -1.61749676047605
 1 -2.86844845064506 -4.05292728562856  0.22388704010401
 1 -1.38479945124512 -3.80898123252325 -0.55622784918492
 1  0.29479187998800  1.22398831403140  0.00960160536054
 1 -1.54680576917692  0.09259724692469 -0.50224795089509
 1  2.02505104960496 -1.56486553625363 -0.54187375157516
 1  0.06907741854185 -2.76447148944894 -0.68890975187519

