%nproc=4
%Mem=2GB
# td=(NStates=1) B3LYP/6-31G(d,p) 

TD

0 1
 6  12.18277261986199  0.56173677417742 -0.77559367826783
 6 -12.21597391149115 -0.09110415201520  0.77925710461046
 6  13.48884829752975 -0.31499115911591 -0.58676467546755
 6 -12.92658915881588  1.12811720322032  1.29439015341534
 6  13.21436375057506 -1.80916658905891 -0.60725248404840
 6 -13.22149674577458  2.21189970207021  0.25649601670167
 6  11.11445323922392  0.04581884638464  0.24553209100910
 6 -11.01652932073207  0.43256313861386 -0.05284291909191
 6  12.46213065046505 -2.06805909990999  0.66908088438844
 6 -11.97788767136714  2.73709401760176 -0.33316165206521
 6  11.23736344434444 -1.13199525402540  0.89346591499150
 6 -10.89555434963496  1.65352097389739 -0.63617249094909
 6  11.60878146584658  0.44035516061606 -2.20256873547355
 6  12.53670708410841  2.07652170727073 -0.62293381238124
 6 -13.11966955775578 -0.94795191389139 -0.13628979907991
 6 -11.72259112711271 -0.94175734933493  2.00307845604560
 6  9.94141220382038  0.94813092669267  0.29603160366037
 6 -9.98178798569857 -0.56522906500650 -0.49334342214221
 6  10.38749292559256 -1.62905271697170  2.05934856975698
 6 -9.99377234743474  2.19495123422342 -1.65033649854985
 6  8.62201844154415  0.53236319251925  0.39909811601160
 6 -8.64618757715771 -0.38100796609661 -0.24808113101310
 6  7.42463103130313  1.38986778707871  0.44372698529853
 6 -7.55714460836084 -1.38113658875888 -0.50703110001000
 6  7.64419746944694  2.86847948514851  0.45867830483048
 6 -7.94146133433343 -2.72302231333133 -1.06584386198620
 6  6.20018391989199  0.82085647464746  0.37019917891789
 6 -6.33024163406341 -0.87250807340734 -0.35126723842384
 6  4.82204285498550  1.38798113001300  0.42171183018302
 6 -5.14950456225623 -1.68579455725573 -0.45531691329133
 6  3.66714542614261  0.66560412561256  0.37215916521652
 6 -3.89494487968797 -1.24449508220822 -0.12627506520652
 6  2.34050735213521  1.26070677837784  0.37991247914791
 6 -2.62465146454645 -1.97110216891689 -0.25574885498550
 6  2.22443681528153  2.76111547804780  0.31975634893489
 6 -2.73529407480748 -3.36689021552155 -0.52763411351135
 6  1.26450799929993  0.42695403700370  0.17941285828583
 6 -1.45049322242224 -1.14282285428543  0.00228152305231
 6  1.16539091129113 -0.96658160536054  0.03772625292529
 6  0.01855239483948 -1.69764600440044 -0.07185094109411
 1  13.98382848864886 -0.07970554105411  0.35923396629663
 1  14.07230424422442  0.03701532583258 -1.34360789918992
 1 -12.04855122012201  1.61436382658266  2.07057062186219
 1 -13.89540039763977  0.92079157145715  2.12287872597260
 1  14.13145376737674 -2.40198101580158 -0.71365481128113
 1  12.58908479017902 -2.19281318131813 -1.33477960126013
 1 -13.87143053125313  3.08872223222322  0.72836387398740
 1 -13.87479226302630  1.71396107030703 -0.46796081818182
 1  13.24111607540754 -2.03908641524152  1.59060094209421
 1  12.03758121262126 -3.10637432953295  0.88131498709871
 1 -11.67156694879488  3.60754847554755  0.23245976297630
 1 -12.04193040694070  3.23586709450945 -1.28764266546655
 1  11.51627499799980 -0.63138621592159 -2.50034816751675
 1  12.34501138183818  0.91671633293329 -3.03940051405141
 1  10.61243881518152  0.85119823152315 -2.35014573407341
 1  13.01977293139314  2.09846674857486  0.39077641814181
 1  11.60964937183718  2.67043695459546 -0.95204936193619
 1  13.38188004430443  2.46308657855786 -1.27633990509051
 1 -13.81669089978998 -0.22147615661566 -0.94181028172817
 1 -13.72132430503050 -1.29442524672467  0.63460068076808
 1 -12.69166676987699 -1.84599300420042 -0.63687957045704
 1 -10.82570506140614 -0.45240087948795  2.52014167326733
 1 -11.58451497689769 -2.03953495419542  1.67551156735674
 1 -12.74895895989599 -1.05874034193419  2.73878240634063
 1  10.13874728132813  2.02296715681568  0.22396830473047
 1 -10.25338978367837 -1.67826293629363 -0.93660003800380
 1  9.77858193569357 -0.79057665236524  2.58022177977798
 1  11.03195400950095 -1.88999519741974  2.86917834783478
 1  9.95189725692569 -2.59446929692969  1.86574619621962
 1 -9.46305334063406  1.28917122972297 -2.02183468036804
 1 -9.22230703560356  2.77042056405641 -1.02479252545254
 1 -10.33552381738174  2.57583258865887 -2.62856282958296
 1  8.59165475627563 -0.65052583278328  0.18289133873387
 1 -8.18231162636263  0.44242843694369  0.18006435393539
 1  7.99843307540754  3.10712574847485  1.47650703320332
 1  6.69361124182418  3.50508821302130  0.24179675937594
 1  8.58329256695670  3.32459112111211 -0.36377960086009
 1 -8.24594554675468 -2.71081814091409 -2.11616831043104
 1 -8.86529751805180 -3.21662484978498 -0.56184004470447
 1 -7.16154070667067 -3.30929358065807 -0.86760564576458
 1  6.17117798229823 -0.35666089288929  0.33954193749375
 1 -6.28800078467847  0.18810074857486  0.11261098429843
 1  4.59595295259526  2.48214665876588  0.35157806460646
 1 -5.20484058435844 -2.75516903330333 -0.89277141824182
 1  3.90934120082008 -0.43246781668167  0.39963960236024
 1 -3.96618424962496 -0.20306397649765  0.35350348364836
 1  2.81028172757276  3.38418881498150  1.14386304160416
 1  1.14637183798380  3.11203193499350  0.47313704120412
 1  2.77772483128313  3.15092556605660 -0.52768673827383
 1 -3.37439930953095 -3.12587094299430 -1.52791780258026
 1 -3.04091569736974 -3.92348434133413  0.14652930433043
 1 -1.60197116841684 -3.63865419981998 -0.84803703010301
 1  0.29892229302930  1.02096801200120  0.14531517671767
 1 -1.76788787738774 -0.13912592539254  0.15068734263426
 1  2.00074861936194 -1.45014406410641 -0.11104066826683
 1  0.05511602240224 -2.78825386768677 -0.12294315521552

