%nproc=4
%Mem=2GB
# td=(NStates=1) B3LYP/6-31G(d,p) 

TD

0 1
 6  12.11626596919692  0.47314791529153 -0.70597671657166
 6 -12.16290860496050 -0.19194423602360  0.82027120602060
 6  13.36083549624963 -0.46347600760076 -0.58714471347135
 6 -13.16057255715572  0.95977036853685  1.17884859925993
 6  13.04710702490249 -1.98720439283928 -0.47127888668867
 6 -13.53996859295930  1.89045755785579  0.03698406550655
 6  11.12525431933193 -0.06059179467947  0.29096663446345
 6 -11.04272193999400  0.39456933923392 -0.11478911371137
 6  12.26780121752175 -2.27328962296230  0.72459643594359
 6 -12.22156203880388  2.59450975917592 -0.43548188408841
 6  11.08955866386639 -1.27141919641964  0.88340490889089
 6 -11.06505129932993  1.67704332613261 -0.66363523722372
 6  11.54164475217522  0.40245137023702 -2.17221570017002
 6  12.58937235063506  1.87034108920892 -0.46569808880888
 6 -13.01386897769777 -1.11358847754775  0.00578440834083
 6 -11.70656952495250 -0.98808198179818  2.09705785398540
 6  9.92410047264727  0.79624573817382  0.38324032453245
 6 -9.91521132803280 -0.61593413551355 -0.38493258105811
 6  10.00448462476248 -1.52085189688969  1.90052268716872
 6 -9.98216118631863  2.26919865896590 -1.62152361726173
 6  8.60641688138814  0.53706366256626  0.15639384558456
 6 -8.59931288968897 -0.34379424472447 -0.17644396729673
 6  7.43269183738374  1.39191799209921  0.22090470307031
 6 -7.43420231413141 -1.36134460956096 -0.43626402330233
 6  7.68860190989099  2.87833047024702  0.38964140114011
 6 -7.78999618781878 -2.75621563266327 -0.64982225982598
 6  6.24952885438544  0.79384377337734  0.30014217321732
 6 -6.18281689158916 -0.93015383798380 -0.26252836453645
 6  4.94078472917292  1.40754308620862  0.29505916491649
 6 -4.90383999579958 -1.59302528032803 -0.27433881548155
 6  3.78367707930793  0.73140070527053  0.22320426972697
 6 -3.76254163936394 -1.08775940864086 -0.11130356805681
 6  2.50724402580258  1.44341504920492  0.34953944184418
 6 -2.50916991639164 -1.74269932863286 -0.28704198429843
 6  2.30994536613661  3.01155052155215  0.62778715201520
 6 -2.53228377377738 -3.17080060656066 -0.72193354345435
 6  1.24434598309831  0.78229957155716  0.22468738573857
 6 -1.22938111121112 -0.98934750675067 -0.25154385948595
 6  1.15992036423642 -0.64220916811681 -0.02155967566757
 6  0.06930747034703 -1.43624986478648 -0.31146490249025
 1  14.05881598739874 -0.24719228972897  0.19015705860586
 1  13.85839285308531 -0.07048542424242 -1.51913545194519
 1 -12.70423678867887  1.59657204740474  2.06003956875688
 1 -14.08363922152215  0.62341183348335  1.74601103920392
 1  13.95328595059506 -2.64025484318432 -0.28874232003200
 1  12.49859574127413 -2.46889078907891 -1.16907303060306
 1 -14.19873326152615  2.70856421642164  0.31118215581558
 1 -13.90716550035004  1.46693636783678 -0.82378640074007
 1  12.75605756955696 -2.17979048564856  1.67037891989199
 1  11.90517797229723 -3.40148384048405  0.67475433103310
 1 -11.94894468656866  3.44345206590659  0.12370888788879
 1 -12.35330154405441  3.09569307710771 -1.34428833003300
 1  11.48388175867587 -0.67542061936194 -2.54892302500250
 1  12.26990387108711  0.92136679797980 -3.05524209820982
 1  10.69482705400540  1.09620273197320 -2.04607532703270
 1  12.91707266136614  1.87460436233623  0.73848118861886
 1  11.85872427932793  2.65582549344935 -0.60460461746175
 1  13.55436729302930  2.12985325522552 -0.84921719281928
 1 -13.53623285398540 -0.52574658365837 -0.87127322802280
 1 -13.87448962156216 -1.62756856105611  0.41932915361536
 1 -12.55897350055006 -1.83494189908991 -0.53668955145515
 1 -11.06947943884389 -0.39808544794479  2.61553121222122
 1 -11.01108763416342 -1.74252525322532  1.60250426662666
 1 -12.51961602560256 -1.35527999589959  2.84576310441044
 1  10.17789119571957  1.79848470857086  0.68338424632463
 1 -10.28514295899590 -1.51350646064607 -0.68612499049905
 1  9.52973705120512 -0.61887948264826  2.32002576017602
 1  10.44283509760976 -1.85149134703470  2.94119554955496
 1  9.26539860706071 -2.43379322932293  1.51310093169317
 1 -9.67805484078408  1.25224753735374 -1.96487898479848
 1 -9.37779258415842  2.94153767576758 -0.98315836203620
 1 -10.38684894989499  2.81842684808481 -2.21682165546555
 1  8.41732732353235 -0.54784556475648 -0.16843379377938
 1 -8.33156655185519  0.57828202230223  0.28123447094710
 1  8.06762999509951  3.07496253215321  1.53780316281628
 1  6.74024590529053  3.44363206740674  0.35203778347835
 1  8.40980521822182  3.30081874387439 -0.29584280718072
 1 -8.44252520472047 -2.81108816791679 -1.75298199179918
 1 -8.39527051535153 -3.31743493079308  0.17922406170617
 1 -6.93700825342534 -3.33950660196020 -0.76216510171017
 1  6.31856272077208 -0.33568879567957  0.38573655695570
 1 -6.20689267386739  0.08588052655265 -0.17143742054205
 1  5.04690804810481  2.53696214031403  0.28931183798380
 1 -5.10140024032403 -2.54609812621262 -0.71477361846185
 1  3.82431269796980 -0.38016258615862 -0.11367172877288
 1 -3.85891352255226 -0.10129379947995 -0.01686355305531
 1  2.91887258665867  3.08043843994399  1.50518917421742
 1  1.25636283708371  3.13295402720272  0.78224795229523
 1  2.73588064686469  3.52680315381538 -0.15649961956196
 1 -2.92462433203320 -3.19310766666667 -1.63600861166117
 1 -3.24949655545555 -4.11923391629163 -0.28710405900590
 1 -1.57887885918592 -3.45037537193719 -0.81273349974998
 1  0.43678607940794  1.34281019621962  0.45508615381538
 1 -1.35820690929093  0.17118510571057  0.11686396029603
 1  1.99791833633363 -1.42782183188319  0.12062249804981
 1  0.24395490629063 -2.61297633993399 -0.48904976587659

