%nproc=4
%Mem=2GB
# td=(NStates=1) B3LYP/6-31G(d,p) 

TD

0 1
 6  12.24813915651565  0.56744734523452 -0.63673979287929
 6 -12.18929124322432 -0.05516055765577  0.79975915481548
 6  13.48766817951795 -0.26325598559856 -0.59634563356336
 6 -12.99066556645665  1.15424981648165  1.22736345074507
 6  13.17463977817782 -1.76718239063906 -0.62723448224822
 6 -13.40318491459146  2.12024053615362  0.12934330143014
 6  11.04885667956796 -0.01304704020402  0.17080461826183
 6 -10.98273594139414  0.46629651195119 -0.05364299909991
 6  12.37535197259726 -1.96887918191819  0.65448942524252
 6 -12.11391127372737  2.75322563076308 -0.49255759165917
 6  11.19051875987599 -1.10204225872587  0.95453202160216
 6 -11.02949774397440  1.64139976177618 -0.78366724042404
 6  11.67177776547655  0.62136326142614 -2.07530600920092
 6  12.58397181058106  2.01699575467547 -0.25882740174017
 6 -13.08665625642564 -1.03143026172617  0.11511534143414
 6 -11.61203007100710 -0.72252542614261  2.12077022522252
 6  9.86265432803280  0.90911702530253  0.23041504200420
 6 -9.90586039293929 -0.51505404750475 -0.26495058285829
 6  10.22082625892589 -1.57833764546455  2.00991362626263
 6 -9.92731570177018  2.08884062316232 -1.68386985188519
 6  8.53307954765476  0.53519347554755  0.26967517371737
 6 -8.60814377277728 -0.22870273557356 -0.20773709660966
 6  7.43988255645565  1.38360716101610  0.37261987458746
 6 -7.44567346124613 -1.20999947504750 -0.42146254315432
 6  7.59653270297030  2.87085972317232  0.70666310331033
 6 -7.86138332653265 -2.72059207030703 -0.66719399699970
 6  6.14364826632663  0.69096348534853  0.15084724372437
 6 -6.17428603850385 -0.88734955755576 -0.29472158385839
 6  4.78506915761576  1.25847817971797  0.21723138213821
 6 -4.97203681548155 -1.65234121192119 -0.41404278587859
 6  3.69695840744074  0.56717428262826  0.20521247054705
 6 -3.72775816101610 -1.12701333403340 -0.27517995569557
 6  2.34817811921192  1.14277498519852  0.30363485138514
 6 -2.56229522892289 -1.94493955265527 -0.30242352245225
 6  2.30901527312731  2.56151551805180  0.51702607590759
 6 -2.71063160856086 -3.41235476197620 -0.68213956405641
 6  1.23536508500850  0.44136547814781  0.09640455745575
 6 -1.44165233833383 -1.24810338233823 -0.11415012011201
 6  1.09716408860886 -1.00923587078708 -0.12569008870887
 6 -0.00625008540854 -1.71753799359936 -0.19240299629963
 1  14.19910001580158 -0.09818738923892  0.23909195209521
 1  14.10698771257126  0.04553617791779 -1.57245078347835
 1 -12.46414277927793  1.97418980918092  1.82620618541854
 1 -13.94237509510951  0.65945543784378  1.85279171727173
 1  14.18232885488549 -2.15377619531953 -0.81854530033003
 1  12.36987286898690 -1.79208310831083 -1.44309043234323
 1 -13.97684107230723  2.95498885888589  0.68077911551155
 1 -13.93844862866287  1.45667534173417 -0.64058808090809
 1  13.07091905570557 -1.99531203780378  1.52169405140514
 1  12.10395785028503 -2.88620231233123  0.88299515511551
 1 -11.61208100020002  3.36640436113611  0.21306782378238
 1 -12.28279449334934  3.38994250205021 -1.49557345854585
 1  11.25964933543354 -0.34924800210021 -2.37736586928693
 1  12.19974685538554  1.14553921522152 -2.88284485848585
 1  10.79029660096010  1.15436854855486 -2.51215193469347
 1  12.84353530763076  1.92539944184418  0.90230757125713
 1  11.72659106600660  2.89564947584759 -0.31373553055306
 1  13.42967482378238  2.32274254415442 -1.00662293339334
 1 -13.59979921062106 -0.54032804180418 -0.64692079277928
 1 -13.80805297789779 -1.47344314851485  0.85483270397040
 1 -12.67871547474748 -1.92778118301830 -0.23655953845385
 1 -11.04722721362136  0.02192655325533  2.60534019311931
 1 -11.07120364576458 -1.54815581628163  1.97744176037604
 1 -12.40521458545855 -1.10629509740974  2.74122265036504
 1  10.00223362996300  2.05271013111311  0.17806371427143
 1 -10.18538298299830 -1.53752886288629 -0.63034941294129
 1  9.74907898539854 -0.67734532923292  2.61071482908291
 1  10.93242405650565 -2.34232042994299  2.67744917491749
 1  9.61309337653766 -2.29362921292129  1.64880450205021
 1 -9.50746778207821  1.25239755235524 -2.33437593449345
 1 -9.27707251215121  2.78713223522352 -1.24822486868687
 1 -10.35389565456546  2.70434543994399 -2.64990496379638
 1  8.22336792759276 -0.58842962316232  0.29438248784879
 1 -8.23538693389339  0.75008920302030  0.05158150565056
 1  8.02271550365037  2.81113614951495  1.70822020452045
 1  6.60245212591259  3.46644434863486  0.42490507020702
 1  8.26952118981898  3.14676333833383 -0.08334155705571
 1 -8.44610556275628 -2.68529558865887 -1.64278097169717
 1 -8.34371535983598 -3.40866405370537  0.04194033333333
 1 -7.07021157375738 -3.58522117341734 -0.79093797899790
 1  6.13433429792979 -0.44667989478948  0.13718170147015
 1 -6.00357234183418  0.27437937643764 -0.17649792659266
 1  4.67189054635463  2.28784722882288  0.28160106690669
 1 -5.07132723302330 -2.80307382378238 -0.78203034413441
 1  3.74027429412941 -0.56089065896590  0.04709434783478
 1 -3.72122975417542 -0.01186485658566 -0.03756562326233
 1  2.84992569196920  2.73599399549955  1.44992364766477
 1  1.26107330813081  3.03105383718372  0.65938566606661
 1  2.75342240104010  3.07650812431243 -0.26574054365437
 1 -3.35279714931493 -3.31717007290729 -1.56172118291829
 1 -3.21566317211721 -3.98412040494049 -0.08187353595360
 1 -1.79372034333433 -3.87166750115011 -0.77929015541554
 1  0.35402780358036  1.07525344054405  0.25562620782078
 1 -1.55684677327733 -0.34797681048105  0.41282355625563
 1  2.04149269376938 -1.52672172187219 -0.17809737393739
 1 -0.09749923912391 -2.77216225852585 -0.79231009190919

