%nproc=4
%Mem=2GB
# td=(NStates=1) B3LYP/6-31G(d,p) 

TD

0 1
 6  12.15461980458046  0.46864746524652 -0.67187330623062
 6 -12.07865017911791 -0.15009005060506  0.84899407830783
 6  13.33981339403941 -0.47650731073107 -0.59541554055406
 6 -12.90843734363436  0.98477286878688  1.41071178557856
 6  13.02465477967797 -1.97911358375838 -0.59418117691769
 6 -13.43229782588259  1.81989050115012  0.14469483658366
 6  10.97720951485149 -0.05268100360036  0.26965450325032
 6 -10.98354602240224  0.44056393869387 -0.07313494829483
 6  12.18318275567557 -2.15821811581158  0.72549652595260
 6 -12.21010089268927  2.51543185138514 -0.49368770467047
 6  11.16890659865987 -1.17488954345435  0.88322489088909
 6 -11.07109190339034  1.59737535933593 -0.79467834153415
 6  11.59144973267327  0.42906403150315 -2.13587206580658
 6  12.65582899629963  1.81473552865287 -0.32657417641764
 6 -12.91943953475348 -1.25833295199520  0.10924475437544
 6 -11.39109797779778 -0.70925409900990  2.12942109030903
 6  9.85904396699670  0.88405451905191  0.36636863736374
 6 -9.87829763666367 -0.55919846194619 -0.29600368816882
 6  10.25454963126313 -1.61468127982798  2.01488412331233
 6 -10.14356732693269  2.12620435953595 -1.88497996289629
 6  8.54054029372937  0.53168312451245  0.21594980118012
 6 -8.56046900530053 -0.35639550485049 -0.26180250315031
 6  7.33201176937694  1.36501530183018  0.37690030263026
 6 -7.49715860976098 -1.25379385448545 -0.43511390829083
 6  7.62753580328033  2.88620125732573  0.58598103510351
 6 -7.85224241244124 -2.63616362746275 -0.72058933653365
 6  6.11339524102410  0.91055544454445  0.27985014401440
 6 -6.20228883878388 -0.81339216181618 -0.24269638133813
 6  4.86345699639964  1.52757508940894  0.31093075207521
 6 -5.07497710951095 -1.57354333213321 -0.37341872347235
 6  3.77034574617462  0.74445201040104  0.12512446174617
 6 -3.86920230543054 -1.03122375507551 -0.16939937763776
 6  2.47221052245225  1.25428613631363  0.21452594049405
 6 -2.56260525992599 -1.72402746144614 -0.29792307240724
 6  2.37408177977798  2.76364573107311  0.51607598089809
 6 -2.66185673107311 -3.07839136563656 -0.98244959505951
 6  1.27652920142014  0.55092643424342  0.08782369936994
 6 -1.35084325742574 -0.99300787278728 -0.09433813891389
 6  1.13610798299830 -0.78066301350135 -0.10329784948495
 6  0.00894143374337 -1.56714295409541 -0.13655741174117
 1  13.72736284208421 -0.28705627612761  0.33508155105511
 1  14.03615062886289 -0.17823619931993 -1.21696523492349
 1 -12.31561792679268  1.39570196039604  2.17302086688669
 1 -13.84686554415442  0.46961645394540  1.72340877897790
 1  13.79453007500750 -2.62251306900690 -0.50316376217622
 1  12.39429531123112 -2.39938383838384 -1.35170129342934
 1 -14.35447883608361  2.62612597259726  0.32935397299730
 1 -13.90049483328333  1.19107878207821 -0.62955697779778
 1  12.87402936673667 -2.22820532713271  1.63573545554555
 1  11.92841029552955 -3.31803549564956  0.78410526612661
 1 -11.60054984708471  3.25956367706771  0.06807332433243
 1 -12.43859007290729  2.94285779357936 -1.39222312351235
 1  11.33143651415141 -0.58200127742774 -2.50720885358536
 1  12.32052893359336  0.87504216551655 -2.80588716271627
 1  10.70350792209221  0.96697980968097 -2.23076379587959
 1  13.19195014911491  1.91400830273027  0.55261260176018
 1  12.13248165506551  2.87899781068107 -0.38946310331033
 1  13.65287714401440  1.98310858075808 -0.86681895299530
 1 -13.36347557825782 -0.81749575857586 -0.72004810551055
 1 -13.77213938653865 -1.81274707890789  0.87404462516252
 1 -12.12969057225723 -1.90094849974998 -0.16776265876588
 1 -10.68635112601260  0.20646500710071  2.47118677777778
 1 -10.64973149854985 -1.59697069776978  1.98657267346735
 1 -12.13706777077708 -1.10554502240224  2.82998152625263
 1  10.02329573617362  2.00685554565457  0.50963687158716
 1 -10.25525997069707 -1.48663377337734 -0.52632901090109
 1  9.72726680418042 -0.75997359205921  2.42906666426643
 1  10.87490830493049 -2.23619981788179  2.58885031503150
 1  9.23222528972897 -2.31978182818282  1.71789141074107
 1 -9.42225926122612  1.44083639623962 -2.38877137403740
 1 -9.59929473437344  2.87968149014902 -1.54346439263926
 1 -10.81523178817882  2.30902590799080 -2.56331630493049
 1  8.15362095289529 -0.63790457065707  0.10976402600260
 1 -8.23584697989799  0.64294848894890  0.30517686518652
 1  8.10835406750675  3.09450448634863  1.49847923042304
 1  6.77145902660266  3.37060476467647  0.76030861056106
 1  8.41174541224122  3.42067072907291 -0.17676089898990
 1 -8.41720267246725 -2.77314437353735 -1.53511020462046
 1 -8.59441042934293 -3.09042222952295 -0.06980084078408
 1 -6.91922647524752 -3.29343199449945 -0.71338022322232
 1  5.94389525402540 -0.08405363216322  0.09928791209121
 1 -5.95846783138314  0.17473941244124  0.11519124232423
 1  4.60242359965997  2.71419986408641  0.48010091689169
 1 -5.15106520682068 -2.57983149954995 -0.74526666776678
 1  3.92142240894089 -0.40858542844284 -0.06440680228023
 1 -3.80635826702670  0.06316264616462  0.19665779907991
 1  2.81276197559756  2.93195359145915  1.59778843414341
 1  1.27525472627263  3.12346307810781  0.61802152965297
 1  2.82044910371037  3.49884035753575 -0.22733670327033
 1 -3.28942081168117 -3.02291064696470 -1.85211022182218
 1 -3.05014662046205 -3.68661065396540 -0.35206055465547
 1 -1.81699267056706 -3.66652698709871 -1.30607283368337
 1  0.33757615841584  1.03339925512551  0.32609325452545
 1 -1.48534962356236 -0.02745475827583  0.29307158105811
 1  2.20896944144414 -1.15248429812981 -0.41956152035204
 1  0.22234274507451 -2.55801084338434 -0.33821468236824

