%nproc=4
%Mem=2GB
# td=(NStates=1) B3LYP/6-31G(d,p) 

TD

0 1
 6  12.14673901650165  0.50707130763076 -0.63425954485449
 6 -12.09232154625463 -0.03352839443944  0.81513069196920
 6  13.40991040374037 -0.37860752075208 -0.60358635763576
 6 -13.02713921382138  1.08841323282328  1.26799751415142
 6  13.16480879507951 -1.89357502990299 -0.64135589438944
 6 -13.48419301540154  2.02085059715972  0.15921628872887
 6  10.99488128202820 -0.09184491999200  0.20481801960196
 6 -10.92302997079708  0.43521340364036 -0.16173380818082
 6  12.29524396179618 -2.29470176417642  0.50118409470947
 6 -12.13417329992999  2.64338464666467 -0.56601493739374
 6  11.09985969396940 -1.34427648214821  0.81446801520152
 6 -11.08874366856686  1.53599922172217 -0.76211508520852
 6  11.61385197289729  0.61605273037304 -2.07910638923892
 6  12.52813622702270  1.90661471657166 -0.10448196719672
 6 -12.87037462826283 -1.14801191989199  0.21535536543654
 6 -11.54194306230623 -0.69679285288529  2.10764891309131
 6  9.80875893849385  0.82955906950695  0.33066506700670
 6 -9.82773258015802 -0.52923546564656 -0.27814190199020
 6  10.17621179747975 -1.82562237393739  1.93400603550355
 6 -10.09806277647765  2.09110084918492 -1.84855632053205
 6  8.49250549024902  0.51398135433543  0.32643084928493
 6 -8.52997595599560 -0.24404426972697 -0.24586090899090
 6  7.35670423862386  1.37287608790879  0.43202581518152
 6 -7.47079597349735 -1.31285976107611 -0.35603600050005
 6  7.64829787948795  2.88517115431543  0.58542097909791
 6 -7.90894808300830 -2.76959697079708 -0.59295657325733
 6  6.15342924442444  0.94853924292429  0.30113227222722
 6 -6.13437204710471 -0.94997582018202 -0.32020413211321
 6  4.85391604230423  1.64310664256426  0.22877253625363
 6 -4.98903851565157 -1.75963194099410 -0.50929231083108
 6  3.71222993459346  0.87293485868587  0.20617256655666
 6 -3.74094948014801 -1.17673830653065 -0.30368280598060
 6  2.30468376977698  1.38574928262826  0.19872436033603
 6 -2.53501250065007 -1.76592165086509 -0.28853213331333
 6  2.13625799739974  2.88851821832183  0.46466083938394
 6 -2.48402894829483 -3.24409793629363 -0.59949129922992
 6  1.24692624112411  0.64760610221022  0.13465838283828
 6 -1.29244741784178 -1.16669524152415 -0.17630633573357
 6  1.15801017321732 -0.85702064926493 -0.04618213791379
 6  0.07314785438544 -1.61372761256126 -0.17282103810381
 1  13.99862996879688 -0.19027659815982  0.34811285418542
 1  14.06946396019602 -0.19589796549655 -1.49900343874387
 1 -12.55711207620762  1.77913030323032  2.13205677047705
 1 -13.91751260886089  0.55399489178918  1.71763820192019
 1  13.96742736473647 -2.47232805050505 -0.73320676647665
 1  12.43780966266627 -2.08039193919392 -1.41129725302530
 1 -14.11874526272627  2.93475683568357  0.69804084168417
 1 -14.24807959175918  1.47378705290529 -0.40180420252025
 1  12.78343030683068 -2.22486499309931  1.43895577757776
 1  11.79243669816982 -3.24053774587459  0.27870472607261
 1 -11.82795258735874  3.29245696639664  0.17946446344634
 1 -12.37108332223222  3.36342985078508 -1.28874277547755
 1  11.18495186568657 -0.45861893919392 -2.36299443214321
 1  12.39317619831983  0.96987164846485 -2.82522909690969
 1  10.71942951425143  1.27723083478348 -2.25869658915892
 1  12.75961691579158  1.82982988488849  0.84306164666467
 1  11.72991139803980  2.58285819671967 -0.25923008000800
 1  13.62208406470647  2.28486875677568 -0.37812008310831
 1 -13.50582981368137 -0.80703471247125 -0.68033413411341
 1 -13.36514868746875 -1.87204300850085  1.09360658135814
 1 -12.26679428262826 -1.93339174407441 -0.38143402590259
 1 -10.78017050795079 -0.13797943734373  2.76484614371437
 1 -10.69736626202620 -1.47096809750975  1.85264928112811
 1 -12.36072013601360 -1.25016948484849  2.76054458255826
 1  10.09240264686469  1.85368022812281  0.52445835373537
 1 -10.22376682138214 -1.62716782678268 -0.36450282828283
 1  9.62381645914592 -1.22118971367137  2.46317007460746
 1  10.68409922402240 -2.28632483038304  2.68955038503850
 1  9.61883395059506 -2.72445229522952  1.59337895949595
 1 -9.44040107540754  1.19914222682268 -2.20025252215222
 1 -9.34630943584358  2.85095861786179 -1.39854990119012
 1 -10.75241550655065  2.56897190259026 -2.53839381268127
 1  8.12629822062206 -0.48492927312731 -0.00998794919492
 1 -8.25125852105211  0.73320751485149 -0.30733438593859
 1  8.29575280738074  3.10707574347435  1.54346372887289
 1  6.83936581728173  3.39684738893889  0.70738331803180
 1  8.13421765946595  3.39469813181318 -0.30661388428843
 1 -8.84079503170317 -2.91426848594859 -1.22095878947895
 1 -8.14817580588059 -3.03374656195620  0.49474561386139
 1 -7.09500405300530 -3.35958861016102 -1.05468435363536
 1  5.93238410291029 -0.17835306210621  0.45383336663666
 1 -6.01174315891589  0.00671260976098 -0.24062433923392
 1  4.65975933323332  2.82104054815482  0.12461536833683
 1 -5.12436253655366 -2.78785230163016 -0.76212835393539
 1  3.85768603530353 -0.24621919181918  0.01383102150215
 1 -3.58610624182418 -0.07178084818482  0.02974110741074
 1  2.38981968136814  3.22314271037104  1.50439909520952
 1  0.95594279507951  3.33453418521852  0.62959268676868
 1  2.53487054585459  3.42215268876888 -0.36796076567657
 1 -2.79860172977298 -3.58773712961296 -1.61651666246625
 1 -3.20908251405140 -3.74639663256326  0.01648630003000
 1 -1.47852882418242 -3.51367170157016 -0.32410463686369
 1  0.37271967276728  1.22332824802480 -0.08128748354835
 1 -1.23493458205821 -0.03219523232323 -0.02911063716372
 1  2.12340088458846 -1.30552960266027 -0.15935549974998
 1  0.04299481028103 -2.67516255855586 -0.36636749764976

