%nproc=4
%Mem=2GB
# td=(NStates=1) B3LYP/6-31G(d,p) 

TD

0 1
 6  12.06430077267727  0.56867746824682 -0.82257837673767
 6 -12.01080339443944 -0.03037807940794  0.94177335623562
 6  13.37525693839384 -0.33067272727273 -0.57858385738574
 6 -12.91058755865587  1.13485787728773  1.36885760016002
 6  13.09343165736574 -1.82892856525653 -0.39287104590459
 6 -13.32253684978498  2.20077858995900  0.37308767586759
 6  10.99722151605160  0.06845110961096  0.22108964676468
 6 -10.93243091089109  0.41870175247525 -0.19637727252725
 6  12.28053249064907 -2.02462475647565  0.85426940324032
 6 -12.09065894849485  2.78705901410141 -0.40741907780778
 6  11.21842155015502 -1.01131318581858  0.99519608800880
 6 -11.01286608080808  1.74308993079308 -0.67605647934793
 6  11.55959654735474  0.39150027512751 -2.24240271887189
 6  12.48684209760976  2.08294234933493 -0.54290580958096
 6 -12.91554914571457 -1.10462758145815  0.21860569046905
 6 -11.33206207420742 -0.69633280688069  2.06250439863986
 6  9.85108317091709  0.91581769536954  0.28273027352735
 6 -9.85864567146715 -0.52311485358536 -0.42790687848785
 6  10.06458063436344 -1.37341715341534  2.07999063396340
 6 -10.05343831403140  2.27751949104910 -1.75218668356836
 6  8.53480972067207  0.51570152635264  0.19990819701970
 6 -8.53283624202420 -0.31263112841284 -0.30569689258926
 6  7.34473304150415  1.31460026032603  0.44506711931193
 6 -7.42624151805181 -1.32735121022102 -0.58885928282828
 6  7.47352040174017  2.77130976817682  0.75805824282428
 6 -7.93837102530253 -2.84409442054205 -0.91659893749375
 6  6.16550045154515  0.69342373137314  0.27761992099210
 6 -6.19834844474447 -0.91916273887389 -0.39649176087609
 6  4.82730338103810  1.30097242914291  0.38766842584258
 6 -4.98283789558956 -1.72181815961596 -0.44876625822582
 6  3.68690740234023  0.57300486568657  0.25478742804280
 6 -3.76642202740274 -1.22646327902790 -0.28648108580858
 6  2.38285158655866  1.12713342104210  0.31720620852085
 6 -2.48749774917492 -1.99929498819882 -0.30429370947095
 6  2.25064943654365  2.66899626612661  0.56753112641264
 6 -2.49946049144914 -3.42991651815182 -0.74174552465247
 6  1.11790333883388  0.49481082268227  0.06985190219022
 6 -1.38412658575858 -1.19331790379038 -0.18383708880888
 6  1.09446381858186 -0.89973492069207 -0.25342286198620
 6  0.03699423902390 -1.74319055885589 -0.24075783178318
 1  13.65171527732773  0.15090752025203  0.53559160206021
 1  13.98627564136414 -0.25199357505751 -1.48769230763076
 1 -12.21850821582158  1.69621201140114  2.14498806360636
 1 -13.79878073567357  0.84099359165917  1.89159559765977
 1  14.10751137313731 -2.35541635933593 -0.62168561436144
 1  12.54692057375738 -2.16722062206221 -1.16821294459446
 1 -13.84678806700670  2.97381074107411  0.86762780038004
 1 -14.16966174997500  1.87758743294329 -0.48078210031003
 1  13.13493545734574 -1.93189569616962  1.61022290429043
 1  11.62900035453545 -3.00806449854985  0.73465032063206
 1 -11.82521231333133  3.49457717841784  0.21941845884588
 1 -12.28861507540754  3.22045555335534 -1.31001490269027
 1  11.10873424392439 -0.56066914421442 -2.55067320002000
 1  12.55518239893989  0.60082474377438 -2.95370194419442
 1  10.79473704500450  1.10819393109311 -2.43090380988099
 1  13.08315927002700  2.28168507040704  0.40568790929093
 1  11.60621902880288  2.77197710861086 -0.66407056405641
 1  13.24387624392439  2.41736200610061 -1.20425269636964
 1 -13.22038126882688 -0.76114012301230 -0.78128422912291
 1 -13.82813498609861 -1.42525833003300  0.79760698139814
 1 -12.38209581278128 -2.01813021792179 -0.15823170567057
 1 -10.51844433533353 -0.01425706510651  2.42342200130013
 1 -10.68094461986199 -1.63534453515352  1.57408142434243
 1 -12.05335939993999 -0.95166963486349  2.87650617871787
 1  9.93881728832883  1.98527338743874  0.39993590149015
 1 -10.25358980368037 -1.50603571357136 -0.64181055905591
 1  9.55234931243124 -0.39326692139214  2.42836659425943
 1  10.79184999909991 -1.75817201510151  2.84743617361736
 1  9.37692976017602 -2.32468231823182  1.84359398099810
 1 -9.39232626792679  1.51146345894590 -2.06725922282228
 1 -9.51241604650465  3.14142766476648 -1.41484153035304
 1 -10.76287655265527  2.76271127652765 -2.56864683798380
 1  8.42360795159516 -0.49221000120012 -0.03893084348435
 1 -8.09116251145115  0.82445663976398 -0.04054770727073
 1  8.17000023212321  2.74113914981498  1.52794217671767
 1  6.40779265996600  3.13794149834983  1.13507608730873
 1  7.88578281598160  3.41256991899190 -0.14386760966097
 1 -8.76832778497850 -2.82978003710371 -1.61016771037104
 1 -8.58524951325133 -3.03426661396140 -0.02884674537454
 1 -6.93809836243624 -3.41778442974297 -0.84381326652665
 1  6.17390825532553 -0.33961918871887 -0.06853887058706
 1 -5.91355333993399  0.23709564806481 -0.13269354615462
 1  4.69737309460946  2.53061150525052  0.50076298309831
 1 -4.97177727802780 -2.82192570897090 -0.44266640774077
 1  3.71123138983898 -0.47833240314031 -0.04916527812781
 1 -3.80128775997600 -0.25675934603460 -0.12806467316732
 1  2.82779347874787  3.07818821492149  1.50224888018802
 1  1.17228442924292  2.98396912871287  0.58430815831583
 1  2.72945000380038  3.47415788928893  0.01528755915592
 1 -3.18522039163916 -3.46397475337534 -1.47779279007901
 1 -3.04114572037204 -3.85331732463246  0.13082773417342
 1 -1.62246321762176 -4.01495182958296 -0.71161338773877
 1  0.08876127692769  1.02230814601460 -0.14768412321232
 1 -1.47462855145515 -0.17418943174317  0.02526480038004
 1  2.02633117761776 -1.54019306900690 -0.37403696789679
 1  0.00180069086909 -2.91007604990499 -0.22218307920792

