%nproc=4
%Mem=2GB
# td=(NStates=1) B3LYP/6-31G(d,p) 

TD

0 1
 6  12.11158550115012  0.52097269776978 -0.73142926182618
 6 -11.98179049314932 -0.05165020662066  0.94203338223822
 6  13.40455986868687 -0.35215487548755 -0.48650464946495
 6 -12.89177567746775  1.19738412991299  1.36326704110411
 6  13.27044935913591 -1.82473814621462 -0.40655241404140
 6 -13.40095469156916  1.93755226732673  0.14457482458246
 6  11.02706450035004  0.00167443194319  0.24448198599860
 6 -10.97424509230923  0.44375425772577 -0.18228586338634
 6  12.27507194459446 -2.16945923992399  0.66339031533153
 6 -12.23908379097910  2.60064037223722 -0.66534487038704
 6  11.05994570257026 -1.27799985448545  0.80892746114611
 6 -11.05386018021802  1.58610423222322 -0.82599147284728
 6  11.73281386908691  0.56606773187319 -2.20801928052805
 6  12.48979239263926  1.96483053815382 -0.42981450045005
 6 -12.97194478527853 -1.12820993969397  0.42907673757376
 6 -11.38475734373437 -0.51463463706371  2.19833798199820
 6  9.77740580318032  0.86357247084708  0.35895789628963
 6 -9.88728853575357 -0.62753529562956 -0.39898398619862
 6  10.15599977627763 -1.75239505120512  1.88816145104510
 6 -10.03422639283928  1.95927766686669 -1.86100756565657
 6  8.44522076177618  0.50333028922892  0.23693189938994
 6 -8.59013197159716 -0.41492135743574 -0.26810313321332
 6  7.34600316851685  1.41146994729473  0.45883849644964
 6 -7.50972986688669 -1.36130460556056 -0.37560795769577
 6  7.55766881658166  2.84306694389439  0.76941937893789
 6 -7.94891207940794 -2.76105611671167 -0.68086536413641
 6  6.15160906240624  0.74104849384938  0.29266142514251
 6 -6.18772738263826 -0.87365818841884 -0.40750286198620
 6  4.84776542724272  1.37355968786879  0.35473513251325
 6 -5.05714532633263 -1.63904988278828 -0.45772715431543
 6  3.68728744034403  0.62470003520352  0.25316726602660
 6 -3.76789217441744 -1.02213284598460 -0.32775521322132
 6  2.36305960736074  1.28764947264726  0.31316580448045
 6 -2.43746274567457 -1.74247930663066 -0.36548982908291
 6  2.33942831443144  2.78807817431743  0.80786515981598
 6 -2.65704625002500 -3.19906343284328 -0.62394374447445
 6  1.22843439193919  0.55561690329033  0.11592650965096
 6 -1.29663783688369 -0.98430700270027 -0.37617632273227
 6  1.15798017021702 -0.88792373957396 -0.20475799549955
 6  0.02999353895390 -1.60977721752175 -0.45965972197220
 1  13.93669377517752  0.08614104360436  0.37822586548655
 1  14.17206422022202 -0.20267864356436 -1.35289882828283
 1 -12.49423578857886  1.87480987118712  2.07735129992999
 1 -13.74289514711471  1.03972346464646  1.90212665076508
 1  14.22484310631063 -2.38845966366637 -0.60239368516852
 1  12.77095297699770 -2.16819071907191 -1.34333045634563
 1 -13.98581196939694  2.78412177217722  0.39095013261326
 1 -14.00202498629863  1.34153382758276 -0.47626164826483
 1  12.90803276707671 -2.12744525112511  1.63763564556456
 1  11.84159161366137 -3.12055574767477  0.56698355395540
 1 -11.87171696379638  3.51804952565257 -0.21103458645865
 1 -12.59709592349235  2.66666017381738 -1.67501140234023
 1  11.45582895339534 -0.29864294159416 -2.58958709140914
 1  12.46824370507051  1.25937059835984 -2.93489006300630
 1  10.75877344864486  1.12978609030903 -2.20533125262526
 1  12.91351230533053  2.26770367226723  0.55282262276228
 1  11.72369077597760  2.62851276217622 -0.42005616261626
 1  13.26312816911691  2.51686195609561 -1.05056732783278
 1 -13.56101533223322 -0.74384839383938 -0.47166326702670
 1 -13.55275744834483 -1.66884268846885  1.28670589128913
 1 -12.20404800800080 -1.99106751165116  0.06797091459146
 1 -10.81644413531353  0.19939430003000  2.58430808990899
 1 -10.77510403580358 -1.48571957265727  2.05182919911991
 1 -12.07419148314831 -0.59714418231823  2.92322085018502
 1  9.98210161676168  1.96704156425643  0.17016292419242
 1 -10.14180862556256 -1.63133824382438 -0.39387576557656
 1  9.56708078557856 -1.08217581228123  2.42634639223922
 1  10.85508632273227 -2.17256345424543  2.59462089208921
 1  9.33976604380438 -2.41480133013301  1.46263588518852
 1 -9.44860189548955  0.98921123372337 -2.08404090099010
 1 -9.27782258715871  2.62773629562956 -1.27289733593359
 1 -10.55581584658466  2.50258526392639 -2.63970394369437
 1  8.21851744254425 -0.65168594879488  0.09283233283328
 1 -8.39732312751275  0.83108730283028  0.26651299879988
 1  8.16967019911991  3.22023705960596  1.73341272377238
 1  6.56485836653665  3.25910361456146  0.71209378907891
 1  8.17541177887789  3.28141680368037 -0.05806902980298
 1 -8.89199015121512 -2.73606066516652 -1.49529622322232
 1 -8.39676066436644 -3.18858204550455  0.13277941724172
 1 -7.21731628422842 -3.33540619191919 -1.00727961316132
 1  6.17052791729173 -0.29270449724972  0.08261624492449
 1 -6.48517050165016  0.34101604010401 -0.24322459925993
 1  4.88639199649965  2.56266471057106  0.73040594739474
 1 -5.15185528582858 -2.67618113451345 -0.54060620172017
 1  3.69094936163616 -0.58113268316832  0.11944158255826
 1 -3.60571820302030  0.09759608950895 -0.37094896159616
 1  2.46451715111511  2.87703809990999  1.87747640294029
 1  1.30881808260826  3.24379511131113  0.64204393189319
 1  2.82633969276928  3.47821829532953  0.08246427682768
 1 -3.01803367296730 -3.33472182808281 -1.77507251805181
 1 -3.42336394219422 -3.60495248814881  0.05887053845385
 1 -1.69827079837984 -3.76360669506951 -0.18460068646865
 1  0.27504990579058  0.97636355155516  0.14721536673667
 1 -1.63060414901490 -0.02818483128313 -0.02062978907891
 1  2.12775131963196 -1.41794084378438 -0.42054161836184
 1  0.29945045584559 -2.69007404970497 -0.71400226112611

