%nproc=4
%Mem=2GB
# td=(NStates=1) B3LYP/6-31G(d,p) 

TD

0 1
 6  12.08486282888289  0.59974057455746 -0.71678779767977
 6 -12.07453976807681 -0.00918596019602  0.78499767866787
 6  13.41010042274227 -0.25203486348635 -0.52604860386039
 6 -12.89252575247525  1.12339673117312  1.26492720712071
 6  13.07857017121712 -1.79718539093909 -0.67399915871587
 6 -13.33394799089909  2.05866437853785  0.14895526262626
 6  10.98334012791279 -0.03410914641464  0.19334687248725
 6 -10.91720938873887  0.42300218251825 -0.17840547534753
 6  12.27881231863186 -2.13629592359236  0.65178915521552
 6 -12.10204008660866  2.61973228142814 -0.53891222712271
 6  11.17820752875287 -1.20747280178018  0.91279784818482
 6 -10.91408620282028  1.65777139893989 -0.74608348204820
 6  11.63154374207421  0.60003112821282 -2.18309678827883
 6  12.56860027342734  2.01346540164016 -0.34657617661766
 6 -12.97580517131713 -0.92767988668867 -0.01910808090809
 6 -11.48173704170417 -0.78084125772577  2.07029517771777
 6  9.75246330893089  0.82493860746075  0.34547654815482
 6 -9.89751955885589 -0.71940448254825 -0.31529561736174
 6  10.26478065436544 -1.63783359505951  1.93989662456246
 6 -9.85334830503050  2.21328306740674 -1.65477694259426
 6  8.53865010471047  0.41551150735074  0.32189039523952
 6 -8.54910786918692 -0.44764462976298 -0.31337766066607
 6  7.37209577777778  1.17976677697770  0.41080369296930
 6 -7.48472736663666 -1.33844231933193 -0.44408480538054
 6  7.62563561326133  2.63729636683668  0.63652608960896
 6 -7.90928811701170 -2.75116512761276 -0.62077935553555
 6  6.10615451695169  0.73641803080308  0.21746390539054
 6 -6.19674828472847 -0.92957377997800 -0.38891100280028
 6  4.82943359405941  1.41569390129013  0.31844150315031
 6 -4.99017862966297 -1.64371034883488 -0.49177055865587
 6  3.60543925552555  0.80077764296430  0.26853880318032
 6 -3.74777016221622 -1.14891552425243 -0.13328576627663
 6  2.26105940734073  1.38759946764676  0.30095458335834
 6 -2.47285628502850 -1.86086114481448 -0.19258253835384
 6  2.15838020962096  2.80801016751675  0.63908828212821
 6 -2.54495504090409 -3.43509703620362 -0.42464381448145
 6  1.16682823132313  0.60938227982798  0.10112502950295
 6 -1.42486065916592 -1.08905747774777 -0.14217292239224
 6  1.13329770197020 -0.80836578377838 -0.17099461916192
 6 -0.14953441384138 -1.55731197099710 -0.25512926892689
 1  14.01095120092009  0.07780020952095  0.34921296419642
 1  13.91197821162116 -0.09876825252525 -1.46458999739974
 1 -12.06161252625262  1.65349773997400  2.02346591139114
 1 -13.78750960856086  0.78157765006501  1.81256769486949
 1  14.01974259625963 -2.34393521122112 -0.56273971977198
 1  12.62685856755676 -2.18269216921692 -1.52834895819582
 1 -13.98462185038504  2.77631099109911  0.55256629422942
 1 -13.91420620442044  1.46402607680768 -0.51649567166717
 1  12.82075403920392 -2.04318682528253  1.43417529952995
 1  11.72524997949795 -3.12529622172217  0.33794064966497
 1 -11.64426421852185  3.54192191289129  0.05444196119612
 1 -12.50459667356736  3.06052956075608 -1.50037393859386
 1  11.35678904940494 -0.40605368266827 -2.67847598029803
 1  12.39718659935994  0.95439010031003 -3.11856843084308
 1  10.81052862416242  1.31522463416342 -2.43042376187619
 1  12.95341629572957  2.20456735863586  0.72126946744674
 1  11.58403681058106  2.72168207910791 -0.60765492249225
 1  13.57974983128313  2.38294856475648 -0.97165943704370
 1 -13.41395062576258 -0.50200420942094 -1.01193729442944
 1 -13.71665383798380 -1.12179798399840  0.60037725842584
 1 -12.53818142134214 -1.90534893979398 -0.23268915141514
 1 -10.78199068996900 -0.12933857325733  2.62971263036304
 1 -10.98790531593159 -1.80722172287229  1.83080709690969
 1 -12.17230129412941 -0.90745521342134  2.93439196729673
 1  9.87863126972697  1.95443030313031  0.43197910581058
 1 -10.13789823452345 -1.58319342934293 -0.27015339333933
 1  9.47051112861286 -0.90007760246025  2.25492925052505
 1  10.74196501060106 -1.94772096999700  2.74927635763576
 1  9.69557162436244 -2.38924877487749  1.43467308890889
 1 -9.36864389968997  1.43085539813981 -2.16345884278428
 1 -9.03925873077308  2.92441596359636 -1.25613565976598
 1 -10.23576384138414  2.99019402480248 -2.39804977827783
 1  8.07644323512351 -0.60968174837484  0.06087913751375
 1 -8.36292968816882  0.78179237333733 -0.37127077957796
 1  8.40464369646965  2.86417145304531  1.38987837033703
 1  6.79087096779678  3.13785148934894  0.69888246794679
 1  8.18376261396140  2.93283194519452 -0.06922014491449
 1 -8.85302625482548 -2.76699375847585 -1.23622031563156
 1 -8.18480946924692 -2.98091127842784  0.56222236153615
 1 -7.09093364596460 -3.49910256155616 -0.86994587978798
 1  6.09975083958396 -0.23980920772077 -0.11890390709071
 1 -6.06022800740074  0.05331727022702 -0.01544182098210
 1  4.82143550085009  2.38029647374738  0.70588349514951
 1 -5.16936703700370 -2.69644316071607 -0.83523566466647
 1  3.49620988768877 -0.17734230413041 -0.09712007360736
 1 -3.80956858805881 -0.04773844394439  0.10116825012501
 1  2.56350705010501  3.10510090619062  1.63665232053205
 1  1.20639784058406  3.25266599839984  0.45205493299330
 1  2.83121017981798  3.40888136163616 -0.08236220582058
 1 -2.61456332593259 -3.60542889878988 -1.52070708150815
 1 -3.41226283208321 -3.71378337123712  0.23070772217222
 1 -1.47829880118012 -3.78750908530853 -0.21248347474747
 1  0.13153555435544  1.02778869406941  0.22309295449545
 1 -1.57887897649765  0.00566855405541 -0.05187291339134
 1  1.89832837733773 -1.37754680438044 -0.50698026222622
 1  0.06134664546455 -2.63792883518352 -0.20500136103610

