%nproc=4
%Mem=2GB
# td=(NStates=1) B3LYP/6-31G(d,p) 

TD

0 1
 6  12.10646498909891  0.52128272877288 -0.74502062096210
 6 -12.09910222432243 -0.08608364996500  0.81801097999800
 6  13.42511192389239 -0.38557821782178 -0.64562056105611
 6 -12.92928942884289  1.05921031253125  1.27746846124612
 6  13.08521083528353 -1.78348402080208 -0.61564332313231
 6 -13.47910250635064  1.92985149724973  0.10468083518352
 6  10.97565935983598 -0.09507524302430  0.24081161896190
 6 -11.03548121592159  0.40279016131613 -0.13187082188219
 6  12.40634507190719 -2.17108940294029  0.67881185748575
 6 -12.20358024062406  2.56785709390939 -0.46011434733473
 6  11.14764447244725 -1.19273132763276  0.91218778717872
 6 -11.15921071527153  1.52119774157416 -0.79766864056406
 6  11.67430801850185  0.63404452955296 -2.20300877947795
 6  12.57621103450345  1.89159321442144 -0.24974649364937
 6 -12.97400499129913 -1.15360247894789  0.11233506340634
 6 -11.49019788778878 -0.57338051165116  2.05785393359336
 6  9.81532959555956  0.86818293189319  0.36555855635564
 6 -9.87300710761076 -0.57348989108911 -0.33275736353635
 6  10.18798297459746 -1.69581939363936  2.05589822472247
 6 -10.09510248044804  2.00605234433443 -1.80403186808681
 6  8.55958219791979  0.43832378857886  0.32526073227323
 6 -8.59743270167017 -0.27257712301230 -0.25986230913091
 6  7.37851641984198  1.24796359665967  0.39415202780278
 6 -7.52217111101110 -1.21090956605661 -0.32312270917092
 6  7.61577462716272  2.78093073027303  0.55868830583058
 6 -7.94825201340134 -2.72166217731773 -0.59824710231023
 6  6.13626752825283  0.65427981698170  0.29530168916892
 6 -6.20238884878488 -0.80946176877688 -0.14264637633763
 6  4.90619126982698  1.32726505840584  0.36098575757576
 6 -4.97914752655266 -1.58945492329233 -0.39672105370537
 6  3.72544125572557  0.71041860706071  0.14487643694369
 6 -3.83886927212721 -1.05351598429843 -0.21139357705771
 6  2.45468877027703  1.37024773247325  0.27248173607361
 6 -2.52397139653965 -1.71745680438044 -0.41370465056506
 6  2.35075944754475  2.83974334083408  0.60146451975198
 6 -2.53962450785079 -3.26617014351435 -0.69415076517652
 6  1.35053660216022  0.67213855545555  0.02400731773177
 6 -1.44161233433343 -1.03798237023702 -0.12284098919892
 6  1.13544791699170 -0.79943489068907 -0.28494601430143
 6 -0.09167862826283 -1.48603484328433 -0.31401515751575
 1  13.83540364616462 -0.02629019951995  0.28165620852085
 1  14.11566858065807 -0.30667904360436 -1.30086362476248
 1 -12.16249261426142  1.55939833003300  1.97500106490649
 1 -13.86270712831283  0.59271876417642  1.80970740884088
 1  13.99215983798380 -2.28118893659366 -0.74201764756476
 1  12.50763664536454 -2.16917081708171 -1.68844496779678
 1 -14.21108449664966  2.69256261626163  0.65879691729173
 1 -13.99720450425043  1.21787146134613 -0.51663568566857
 1  13.05234719851985 -2.22811531813181  1.60664254625463
 1  11.82291974647465 -3.18154184628463  0.67249410501050
 1 -11.88747853995399  3.31949967066707  0.25263178017802
 1 -12.35292150605061  3.13923743154315 -1.33988788998900
 1  11.66133950445044 -0.30909398669867 -2.58318645134513
 1  12.43535041574157  1.15080974227423 -2.78424499849985
 1  10.63511108240824  1.09549266096610 -2.18080880038004
 1  12.82805375947595  1.75148205010501  0.78083542404240
 1  11.62948135503550  2.62165207610761 -0.17612176917692
 1  13.59302115841584  2.34739500940094 -0.78218048914892
 1 -13.41966119681968 -0.76010001900190 -0.74534063476348
 1 -13.55988816141614 -1.67550335453545  0.87601482218222
 1 -12.35662326552655 -1.92442084698470 -0.05251113361336
 1 -10.87771026192619  0.18518287888789  2.54615427452745
 1 -10.81984851025103 -1.49818081878188  2.00455447164717
 1 -12.22875693969397 -1.07738220612061  2.62599112721272
 1  10.08421182778278  1.98563342344234  0.23097900580058
 1 -10.09142358705870 -1.65475058505851 -0.41614799279928
 1  9.62460653815382 -0.81402899759976  2.36132989058906
 1  10.66816763086309 -2.12829902780278  2.82126355635564
 1  9.37232930013001 -2.38727857785779  1.55134475607561
 1 -9.43811084638464  1.12468478107811 -1.98020051695169
 1 -9.44308911381138  2.76053957595760 -1.51052109830983
 1 -10.77185745074508  2.35127013241324 -2.77924789808981
 1  8.42978856965697 -0.69918069826983  0.25983903350335
 1 -8.18022141734173  0.65254944904490 -0.16506015851585
 1  7.87527075917592  2.96486152205221  1.55149453195320
 1  6.66344822552255  3.37184488868887  0.72810539023902
 1  8.39592383008301  3.32533119511951 -0.26633985688569
 1 -8.51275222742274 -2.92032909200920 -1.41266796039604
 1 -8.25514650295029 -3.07779096639664  0.38271441074107
 1 -7.00521507410741 -3.41071372267227 -0.73159204440444
 1  6.34093495799580 -0.48509373617362  0.16487447074708
 1 -5.93229521412141  0.22877481598160  0.07981770497050
 1  5.00556391369137  2.35062350645064  0.73860676747675
 1 -5.22009210951095 -2.72801631803180 -0.65682782388239
 1  3.77894816151615 -0.32158672857286 -0.23396375797580
 1 -3.76704433563356  0.00695702560256 -0.06710857755776
 1  2.54892559195920  2.95344574067407  1.77050570587059
 1  1.28113531433143  3.26357708950895  0.44973470097010
 1  3.03993105190519  3.61763223672367  0.12322835323532
 1 -2.82068393799380 -3.59310766666667 -1.60843585438544
 1 -3.12983458925893 -3.79860185308531 -0.03931928052805
 1 -1.48279925122512 -3.72319265366537 -0.77909013541354
 1  0.35543794459446  1.08056397159716  0.39126977217722
 1 -1.46944803340334  0.01289927712771  0.14391666556656
 1  2.02961150565057 -1.32947199689969 -0.21691125532553
 1  0.16709722052205 -2.38164320662066 -0.52180304120412

