%nproc=4
%Mem=2GB
# td=(NStates=1) B3LYP/6-31G(d,p) 

TD

0 1
 6  12.14468881148115  0.48854945544554 -0.66958307720772
 6 -12.14047636173617 -0.03928897049705  0.87182636153615
 6  13.48788820152015 -0.33573323332333 -0.70285628462846
 6 -13.04673117301730  1.17700209170917  1.19164987938794
 6  13.11594390859086 -1.76802247464746 -0.77476923572357
 6 -13.41179577567757  1.99758827092709  0.00293066016602
 6  11.09921171507151 -0.04320005550555  0.29900743854385
 6 -11.02824049184918  0.42887276957696 -0.19665730053005
 6  12.31355579297930 -2.26437873187319  0.50791476777678
 6 -12.17989787238724  2.47829813801380 -0.74196253215322
 6  11.26884659265927 -1.27988004250425  0.84777134553455
 6 -11.03230802500250  1.56085170697070 -0.80850972467247
 6  11.48161874957496  0.48623974907491 -2.16514499309931
 6  12.61139455285529  2.03902795789579 -0.47241876087609
 6 -12.99925751655165 -1.18218533723372  0.18612244214421
 6 -11.51994086208621 -0.64652782638264  2.20819896809681
 6  9.88908697129713  0.95461157475748  0.47817981848185
 6 -9.97904771167117 -0.58461100320032 -0.24915900370037
 6  10.22008618491849 -1.70080989268927  1.89461209610961
 6 -9.99853282348235  1.94604634373437 -1.89334079897990
 6  8.64685092479248  0.56873682988299  0.34631283748375
 6 -8.61797475587559 -0.25990585588559 -0.05662198509851
 6  7.41064963316332  1.32133093339334  0.50258287088709
 6 -7.47409630353035 -1.23610208530853 -0.33667406430643
 6  7.59884293399340  2.73161579877988  0.88750118711871
 6 -7.85656284448445 -2.76345635673567 -0.67526480408041
 6  6.23430733223322  0.76343073207321  0.22721488048805
 6 -6.24598320822082 -0.81592241484148 -0.35525763746375
 6  4.93717436813681  1.40400273217322  0.39710936993699
 6 -5.15301491329133 -1.60197617541754 -0.29694107570757
 6  3.80825953755376  0.68775634083408  0.26135808510851
 6 -3.81674705990599 -1.04696532923292 -0.23735617331733
 6  2.42954625602560  1.28169887758776  0.34624911281128
 6 -2.58676767616762 -1.71861692039204 -0.28003128322832
 6  2.19408377997800  2.71003036953695  0.78607298059806
 6 -2.56870741614161 -3.25447897439744 -0.51854320442044
 6  1.26017756625663  0.60747208880888  0.10875579257926
 6 -1.38430660376038 -1.04930350235023 -0.30352905800580
 6  1.09362373457346 -0.84335928312831 -0.15574309400940
 6 -0.05924538493849 -1.43820005980598 -0.33290704670467
 1  14.07696780258026 -0.10723829432943  0.06800484338434
 1  14.00543755755576 -0.04767314301430 -1.64977851625162
 1 -12.52754911991199  1.78711110131013  1.85358892369237
 1 -14.01533239083908  0.82216170847085  1.73271971007101
 1  13.96655727772777 -2.44225504320432 -0.71166461226123
 1  12.52466834853485 -1.90180408040804 -1.72335845914591
 1 -14.08419180738074  2.87523088308831  0.49106014361436
 1 -14.24465924972497  1.46764643884388 -0.60645466756676
 1  12.91596356015602 -2.41972447904790  1.22465434743474
 1  11.98988644314431 -3.25541923402340  0.55448230383038
 1 -11.66085587768777  3.26742446314631 -0.16436991999200
 1 -12.56574278817882  2.78247175497550 -1.71025492669267
 1  11.34478784928493 -0.43531660896090 -2.48983711641164
 1  12.37934481518152  1.02050671197120 -2.63583015701570
 1  10.52221979327933  0.84260737243724 -2.14063478297830
 1  12.91086204030403  2.11650855275528  0.52770011051105
 1  11.78172657955795  2.61390130103010 -0.54513867086709
 1  13.41027288358836  2.29361963186319 -1.14933720482048
 1 -13.80821005170517 -0.82297630663066 -0.54857095779578
 1 -13.46617879047905 -1.74798060226023  1.05447266796680
 1 -12.34434203740374 -2.01268967386739 -0.27337321982198
 1 -10.75676816771677  0.01941630223022  2.53438309740974
 1 -10.86612313771377 -1.45907690839084  1.84537855405541
 1 -12.53907797179718 -0.87604207210721  2.78759728782878
 1  10.11637504410441  2.00771563166317  0.68925483338334
 1 -10.27544198889889 -1.64899000900090 -0.61650802880288
 1  9.55443952145215 -0.87485508020802  2.08104186178618
 1  10.67198801290129 -2.10461665956596  2.77723915391539
 1  9.85897796499650 -2.44614446444644  1.40437005860586
 1 -9.24573160846085  1.23795610821082 -2.16793929082908
 1 -9.42572737763776  2.91819534153415 -1.68123817001700
 1 -10.57136740174017  2.21941694709471 -2.71679165246525
 1  8.62952854365436 -0.41738251845184  0.41103415301530
 1 -8.38556195139514  0.67592178627863  0.27344369186919
 1  7.91485471757176  2.95434046994699  1.79362874537454
 1  6.60261214191419  3.23799150335033  0.74040662036204
 1  8.12383662136214  3.28334699669967  0.08693547064707
 1 -8.49621057325733 -2.83446050515051 -1.61069776337634
 1 -8.47697868616862 -3.16049923722372 -0.04399826052605
 1 -6.94293884648465 -3.34984763606361 -0.79571845704570
 1  6.12695355985598 -0.33075830263026 -0.14706672337234
 1 -5.82447443204320  0.12371430993099  0.03956367956796
 1  4.85942930023002  2.38573701780178  0.62106501330133
 1 -4.99687978827883 -2.73320683708371 -0.69188132923292
 1  3.85598586528653 -0.30452502240224  0.10579021742174
 1 -3.59515714691469 -0.09435310541054 -0.08765063176318
 1  2.79091979137914  2.84855525162516  1.56934558985899
 1  1.16085328612861  2.96393712551255  0.74114384188419
 1  2.65808286708671  3.41829230273027  0.05954198459846
 1 -3.00184205380538 -3.46818517441744 -1.55092010281028
 1 -3.17428903470347 -3.79353134603460  0.13135778717872
 1 -1.51001197249725 -3.61895222962296 -0.27069929632963
 1  0.39729213001300  1.37762367756776  0.03146379157916
 1 -1.44826591519152  0.02356034323432 -0.06743446954695
 1  1.98434697919792 -1.41421047074707 -0.11093065726573
 1 -0.16792628182818 -2.39507454975498 -0.55343620452045

