%nproc=4
%Mem=2GB
# td=(NStates=1) B3LYP/6-31G(d,p) 

TD

0 1
 6  12.21607595019502  0.59646024652465 -0.65751187008701
 6 -12.13472578667867 -0.06504154575458  0.89630880978098
 6  13.41619103180318 -0.27687734773477 -0.54111011001100
 6 -12.96615311521152  1.11911630313031  1.36090680508051
 6  13.17492980718072 -1.72200787318732 -0.51616337513751
 6 -13.36545114121412  2.09045755785579  0.20123049014901
 6  11.07605939983998  0.01170543504350  0.28689622742274
 6 -11.04511217901790  0.42141202350235 -0.03634126892689
 6  12.22815725312531 -2.07739003300330  0.64674865116512
 6 -12.06381626422642  2.70851115931593 -0.36144448034803
 6  11.20881058905891 -1.10590264476448  0.87641420982098
 6 -11.05146994119412  1.63437905970597 -0.77171604530453
 6  11.69019960766077  0.54273539863986 -2.16979545814581
 6  12.51714512791279  2.06601065616562 -0.35248676767677
 6 -13.04700229102910 -1.16097321602160  0.22511634153415
 6 -11.52192106010601 -0.61763493709371  2.08296644484448
 6  9.87217528012801  0.89145525912591  0.39543154365437
 6 -9.99065887278728 -0.53993653575358 -0.29106319411941
 6  10.16629080538054 -1.72177198889889  1.98620125502550
 6 -10.08540151035104  2.06172791189119 -1.86023748864886
 6  8.60419665936594  0.46246620282028  0.16975518171817
 6 -8.63505646404640 -0.33565343064306 -0.32427875077508
 6  7.41807037523752  1.31265006530653  0.40704331693169
 6 -7.56115500940094 -1.22973144824482 -0.48405880278028
 6  7.50918396809681  2.75602824002400  0.85279771677168
 6 -7.84278146634663 -2.76489650075007 -0.69869714731473
 6  6.22215611711171  0.77129151815182  0.22090424942494
 6 -6.22702131203120 -0.87924874747475 -0.38528063976398
 6  4.91461211191119  1.33154548644864  0.32573223222322
 6 -5.06057566936694 -1.66775275307531 -0.40235161676168
 6  3.74525323692369  0.59265683088309  0.07516946624662
 6 -3.79780516571657 -1.05855648834883 -0.45759819751975
 6  2.42655595699570  1.25891659935994  0.26592108000800
 6 -2.59685868526853 -1.91045610431043 -0.41306458655866
 6  2.42051642324232  2.74340370687069  0.41343571687169
 6 -2.63483402880288 -3.38148167466747 -0.54661601170117
 6  1.28138968746875  0.51697303890389  0.08968388538854
 6 -1.35884405750575 -1.13062163416342 -0.16728543364336
 6  1.11308568076808 -0.91729667686769 -0.10092761246125
 6 -0.02517197759776 -1.67655389518952 -0.32385614161416
 1  13.88322842864286 -0.09865743624362  0.44662270517052
 1  14.13615062886289  0.01853347764776 -1.39854339273927
 1 -12.44010037503750  1.89832222242224  1.88733229802980
 1 -13.98523938153815  0.99042853515352  1.93840027812781
 1  14.19341996399640 -2.35351616931693 -0.47403084888489
 1  12.74147002870287 -2.10794469446945 -1.34335045834583
 1 -14.11786517471747  2.64660802080208  0.53399443704370
 1 -14.16589137293730  1.45009468366837 -0.38781280338034
 1  12.83181514531453 -2.09029153575357  1.61190307230723
 1  11.92569002350235 -3.02817650975097  0.59487634323432
 1 -11.60494028612861  3.38248596929693  0.28327484448445
 1 -12.37505371927193  3.32121562936294 -1.22914681588159
 1  11.63876724722472 -0.38076115341534 -2.51148928162816
 1  12.35977285798580  1.12723738503850 -2.77331390539054
 1  10.43963153445344  0.71224433613361 -2.30868158765877
 1  12.77379833393339  2.09195609750975  0.77517485798580
 1  11.63417182408241  2.58445835673567 -0.58181233823382
 1  13.37385924222422  2.47536780668067 -1.08160043114311
 1 -13.71000023072307 -0.63735774477448 -0.60182628332833
 1 -13.76404857745775 -1.54835063926393  0.74904212491249
 1 -12.35954355755576 -1.84937334223422 -0.30307619011901
 1 -10.77644013491349  0.00662502310231  2.44426408550855
 1 -11.12779930533053 -1.59972097279728  2.03340735693569
 1 -12.15882994699470 -0.71570603850385  2.88320684878488
 1  9.94894830143014  1.92773763386339  0.69414532243224
 1 -10.51383582828283 -1.56160127012701 -0.44736111411141
 1  9.25560963846385 -1.27048464316432  2.23176693429343
 1  10.64864567866787 -2.13812000990099  2.81943337333733
 1  9.78797086428643 -2.63376322632263  1.38219784138414
 1 -9.33581061636164  1.20320263286329 -2.13788628552855
 1 -9.53674847974797  2.87477099909991 -1.57813785998600
 1 -10.60003026802680  2.26601160656066 -2.67283725702570
 1  8.41353694449445 -0.43281406160616 -0.25100205060506
 1 -8.37530092529253  0.75668986308631 -0.33540719321932
 1  7.69145237733773  2.84780981688169  1.91092047454745
 1  6.60206208690869  3.17883558775878  0.87340992069207
 1  8.50684492219222  3.39081774377438  0.35588236533653
 1 -8.66461741394139 -2.95205226432643 -1.35222191579158
 1 -8.24315530383038 -3.10542372967297  0.32277841714171
 1 -7.03388794139414 -3.26881953325333 -0.97497638283828
 1  6.33586445094509 -0.16670189698970 -0.18787080378038
 1 -6.11036302090209  0.19213115161516 -0.07647792459246
 1  5.04244760206021  2.41088953305331  0.21703461026103
 1 -5.13523362366237 -2.70944446084608 -0.42441458255826
 1  3.80895116181618 -0.41548611851185 -0.01616197779778
 1 -3.56991462266227  0.00596692659266 -0.09670153685369
 1  2.65817651705170  3.09718011411141  1.50131878717872
 1  1.31093829462946  3.26510724252425 -0.06914718721872
 1  3.12226928572857  3.23017349084908 -0.21674564416442
 1 -3.26114798439844 -3.55480383628363 -1.28098310911091
 1 -3.02153375917592 -3.84500649354936  0.38684333573357
 1 -1.47741871317132 -3.72671300570057 -0.67275950235023
 1  0.18258065886589  1.01764767996800  0.21497214241424
 1 -1.59420050865086 -0.16133814661466  0.14022629652965
 1  2.11302984748475 -1.28861791149115 -0.24362392659266
 1 -0.07170665986599 -2.72771781408141 -0.35630649154915

