%nproc=4
%Mem=2GB
# td=(NStates=1) B3LYP/6-31G(d,p) 

TD

0 1
 6  12.09640398299830  0.48636923742374 -0.91701782068207
 6 -12.14722703680368 -0.06794183578358  0.79510868976898
 6  13.39161857455746 -0.31047070707071 -0.85683168216822
 6 -13.05019151905191  1.11624601610161  1.20947166156616
 6  13.17186950115011 -1.85231090349035 -0.82956471527153
 6 -13.41664626072607  1.92753126522652  0.01093146024602
 6  11.04670646454645 -0.12815855135514  0.06928446624662
 6 -11.04786245404540  0.35010489278928 -0.23923155795580
 6  12.40669510691069 -2.16469876387639  0.49018299459946
 6 -12.20371025362536  2.69822013021302 -0.67039537543754
 6  11.18133784178418 -1.28576063056306  0.73239980838084
 6 -11.06149094329433  1.54992061386139 -0.86974584828483
 6  11.50801138883888  0.51414253935394 -2.30033851245124
 6  12.59476288968897  1.94200825592559 -0.56401792079208
 6 -12.99262685348535 -1.16677379607961  0.03404723462346
 6 -11.48875774377438 -0.75459863346335  2.01317946614661
 6  9.90983904650465  0.95294140774077  0.41759375987599
 6 -9.93982378927893 -0.64203674577458 -0.49676376417642
 6  10.14002817911791 -1.73939375107511  1.79740237513751
 6 -10.07094006420642  1.97431917101710 -1.93180464536454
 6  8.56334257395740  0.42402235843584  0.40156836303630
 6 -8.66484944334433 -0.31888175347535 -0.30688701160116
 6  7.48743731193119  1.35309410971097  0.45544815741574
 6 -7.56656555045505 -1.23222169726973 -0.41587198409841
 6  7.71682473217322  2.78792142934293  0.81385382238224
 6 -7.87652484068407 -2.76457646874687 -0.59815709330933
 6  6.21748565006501  0.76008039703970  0.48888104710471
 6 -6.22693130303030 -0.81218204080408 -0.27027913961396
 6  4.95189584028403  1.42548488038804  0.60718037703770
 6 -5.05554516631663 -1.59700567836784 -0.32946432803280
 6  3.73618232983298  0.70261782698270  0.54080602990299
 6 -3.85615100030003 -1.00996162886289 -0.19480191789179
 6  2.43649695109511  1.26932764046405  0.52949743764376
 6 -2.54164316371637 -1.64315937463746 -0.26014929502950
 6  2.29578394999500  2.78541790829083  0.76165053835384
 6 -2.51726227162716 -3.19666319281928 -0.37369871997200
 6  1.29449099759976  0.61341268286829  0.36035095209521
 6 -1.38190636373637 -0.92378095009501  0.01296259115912
 6  1.08174254645465 -0.88479342654265  0.20775325562556
 6 -0.05259471987199 -1.42923916371637 -0.07835159115912
 1  13.96727683348335 -0.00270784128413 -0.01246320342034
 1  13.86060307410741 -0.05017339303930 -1.65354889328933
 1 -12.53859022402240  1.57754014421442  1.90327389218922
 1 -14.05204606220622  0.78610810311031  1.62348878697870
 1  14.14640526252625 -2.26616743444345 -0.70440388618862
 1  12.67021290299030 -1.93843774377438 -1.72280840414041
 1 -14.20150353855386  2.58544190419042  0.21502253985399
 1 -13.82717750155016  1.44857453165316 -0.88359238133813
 1  13.15248721252125 -2.15064757135714  1.18318020002000
 1  12.16091354585459 -3.29696338843884  0.62239909550955
 1 -11.88166795889589  3.49736745744574 -0.03078656165617
 1 -12.30782699659966  3.15150865866587 -1.67685158635864
 1  11.18120149064906 -0.47926100340034 -2.59984811751175
 1  12.38760564126413  0.76715137643764 -3.19463603760376
 1  10.86255382668267  1.25518863056306 -2.30673139263926
 1  12.82664361846185  1.83217011891189  0.49281662216222
 1  11.64908331523152  2.70046995789579 -0.72566672367237
 1  13.42949480578058  2.26632690259026 -1.04419669076908
 1 -12.98727795849585 -0.66805081408141 -0.87761386208621
 1 -13.84097627022702 -1.68968477267727  0.61483870457046
 1 -12.35270287348735 -2.06229463436344 -0.50934681718172
 1 -10.71584407530753 -0.20091573097310  2.38408806790679
 1 -10.92431895729573 -1.76108710941094  1.91918593479348
 1 -12.50335439943994 -0.90284475237524  2.62236076417642
 1  10.13850725732573  1.90751561166117  0.71455736363636
 1 -10.17334177887789 -1.66938204820482 -0.80105648364837
 1  9.40379445694570 -0.96309390409041  1.87501125872587
 1  10.65264607870787 -1.95860205810581  2.85282671267127
 1  9.68905097229723 -2.73964381438144  1.58529815141514
 1 -9.44428146344634  1.26888920152015 -2.54481697859786
 1 -9.29393419831983  2.65905942794279 -1.57254730093009
 1 -10.52360262526253  2.54246925232523 -2.66998697199720
 1  8.19200479127913 -0.58113889408941  0.21913496309631
 1 -8.53230662586259  0.65103929802980 -0.00203385588559
 1  7.99404263636364  3.00220525642564  1.75833521602160
 1  6.74755663636364  3.35854355855586  0.73057563726373
 1  8.39011324902490  3.10746940894089 -0.16217944084408
 1 -8.25324627682768 -3.01922898199820 -1.63079977357736
 1 -8.65171615991599 -3.07819100640064  0.04828096739674
 1 -7.07153170577058 -3.34521717301730 -0.60650953615362
 1  5.93345420992099 -0.16026125292529  0.04802278557856
 1 -6.19027101170117  0.35135707420742 -0.07869814661466
 1  4.85859921722172  2.48677712181218  0.75582848964896
 1 -5.15277537783778 -2.56320983738374 -0.72882502360236
 1  3.81357162386239 -0.28733330323032  0.17568720712071
 1 -3.81164879607961  0.10757708760876 -0.10263212991299
 1  2.78471917131713  3.11221161726173  1.73982263756376
 1  1.12462966376638  3.04011474327433  0.91419114661466
 1  2.51660871967197  3.37853832733273 -0.10512448204820
 1 -2.86535840544054 -3.47724608050805 -1.46135114591459
 1 -3.32566417221722 -3.68015000790079  0.40117476887689
 1 -1.50920189148915 -3.46448678307831 -0.35906813321332
 1  0.39891229202920  1.23867978317832  0.23010365556556
 1 -1.55793688228823  0.17913590079008  0.09323159705971
 1  1.99414795929593 -1.49812886258626  0.20836127192719
 1 -0.04427391659166 -2.50067510981098 -0.08476933783378

