%nproc=4
%Mem=2GB
# td=(NStates=1) B3LYP/6-31G(d,p) 

TD

0 1
 6  12.25292963556356  0.44567516801680 -0.64894101300130
 6 -12.08041035513551  0.02861782018202  0.98696787568757
 6  13.48231764446445 -0.53644330433043 -0.44063006200620
 6 -12.86156265616562  1.20758515001500  1.44728544294429
 6  12.98535084928493 -2.05835150755076 -0.33926568536854
 6 -13.45661025712571  1.97258577067707  0.29293966106611
 6  11.10596239013901  0.05697996249625  0.29132667046705
 6 -10.92333000080008  0.51880176247625  0.04094645984598
 6  12.15168960636064 -2.20435272927293  0.84763874017402
 6 -12.24225410801080  2.58312862106211 -0.52157049294929
 6  11.08223793179318 -1.08123017751775  1.09095566396640
 6 -11.05040983518352  1.63768939073907 -0.70334920862086
 6  11.77739832753275  0.48306943204320 -2.10004848344835
 6  12.74978839223922  1.93477753285329 -0.34781630063006
 6 -12.94417200800080 -1.16398351705171  0.48146197609761
 6 -11.21263013101310 -0.65456863046305  2.21654980318032
 6  9.90540860346035  1.06580269386939  0.26438843934393
 6 -9.93550335723572 -0.54325686778678 -0.17708179597960
 6  10.03078725502550 -1.51492130383038  2.04019665456546
 6 -10.04925789598960  1.97801954105411 -1.78088955385539
 6  8.62185842554255  0.68244820102010  0.14737294349435
 6 -8.58186114451445 -0.34625449074907 -0.22984930783078
 6  7.38079664786479  1.48407720802080  0.34358697129713
 6 -7.46526542044205 -1.23632210731073 -0.50735113201320
 6  7.55971902160216  3.04313695089509  0.48886132313231
 6 -7.87028421662166 -2.70171018211821 -0.86101337893789
 6  6.13785768726873  0.87824221322132  0.30878303730373
 6 -6.24747335723572 -0.88129895249525 -0.41009312101210
 6  4.79630028072807  1.47460979287929  0.47801746074607
 6 -5.05687529932993 -1.72668864666467 -0.64557593919392
 6  3.74530324192419  0.72407997319732  0.18210015931593
 6 -3.80163554875488 -1.24622525522552 -0.46465890359036
 6  2.28498179957996  1.24075478317832  0.28240272817282
 6 -2.47423642304230 -1.82748780748075 -0.53909718981898
 6  2.16877124872487  2.66865623212321  0.56251062436244
 6 -2.50029057445745 -3.33485701220122 -1.07270862096210
 6  1.18416996549655  0.38384972657266  0.04590950795079
 6 -1.39983815691569 -1.07953652565257 -0.31017972307231
 6  1.14022839503950 -0.96216116331633 -0.22012953265327
 6 -0.06802626302630 -1.65632187198720 -0.60298405440544
 1  14.00102020782078 -0.31825939643964  0.45234327722772
 1  14.19339635343534 -0.40385876157616 -1.10264380278028
 1 -12.18763512851285  1.96397878807881  1.92275584038404
 1 -13.76869772737274  0.95879537183718  2.21645808390839
 1  13.88528915091509 -2.71155197289729 -0.40056350215021
 1  12.52374825652565 -2.32736663666367 -1.30991711501150
 1 -14.31969535773577  2.79996335633563  0.56488752635264
 1 -14.10636542034204  1.37834750895089 -0.29482350445044
 1  12.88069003280328 -2.16347885448545  1.69975185718572
 1  11.79308676317632 -3.23655734783478  0.96705356095610
 1 -11.83947373947395  3.48251597229723 -0.12415589858986
 1 -12.80857707160716  3.02330583838384 -1.47750165136514
 1  11.63702707320732 -0.60930400770077 -2.34651278397840
 1  12.50794767546755  0.70826548784878 -2.86502307630763
 1  10.90253782508251  1.13126623832383 -2.32772349184919
 1  12.76017697179718  2.07017391929193  0.84837217771777
 1  12.19477788468847  2.69932984388439 -0.65005916291629
 1  13.89861171747175  2.30364063396340 -0.72888515961596
 1 -13.59912914361436 -0.89357336633663 -0.38453455415542
 1 -13.61033320592059 -1.76833263746375  1.19007622832283
 1 -11.97208481168117 -1.69369777467747  0.14257837533753
 1 -10.47606009690969  0.09217357795780  2.76830648974898
 1 -10.83449997539754 -1.54631563226323  1.77444146034603
 1 -12.10101416541654 -0.65736020392039  2.95908443654365
 1  10.09610301690169  2.13078793889389  0.12921882978298
 1 -10.36983142784278 -1.58561367136714 -0.07495387338734
 1  9.35316939443944 -0.81550914561456  2.62254601220122
 1  10.36568738283828 -2.11121731963196  3.01421285128513
 1  9.57360942814281 -2.23723357335734  1.46458608020802
 1 -9.60794783008301  1.07719003160316 -2.18167066396640
 1 -9.38909371427143  2.56385990799080 -1.45667571377138
 1 -10.56961722672267  2.60956596199620 -2.46042601590159
 1  8.19529512031203 -0.38614939513951  0.01027407700770
 1 -8.39307270247025  0.66678087218722  0.07918426592659
 1  7.95184841694169  3.46059109500950  1.41373075557556
 1  6.45225710641064  3.40653835803580  0.10417299699970
 1  8.28418265596560  3.38349701170117 -0.27853107600760
 1 -8.48544949714972 -2.76496355545555 -1.71111780538054
 1 -8.83085407370737 -3.11168435573557 -0.05218907960796
 1 -6.90025457805781 -3.38005065636564 -0.86585547074707
 1  6.06218708320832 -0.15324055085509  0.09878786208621
 1 -5.96617860246025 -0.00265832733273  0.08770849404940
 1  4.66253961126113  2.52181062516252  0.67872077887789
 1 -5.13431353165317 -2.84036755315532 -0.89815195629563
 1  3.84152441914191 -0.47102167206721  0.03766340474047
 1 -3.67184481568157 -0.19168283838384  0.16245437873787
 1  2.86759745914591  2.87163755985599  1.27556621192119
 1  1.01723892469247  2.98353908570857  0.94900462796280
 1  2.35381244004400  3.38201867536754 -0.33835780538054
 1 -3.12134400400040 -3.25373372927293 -1.93360837163716
 1 -2.81998360416042 -3.72500449334933 -0.16849219781978
 1 -1.49956092739274 -3.67844817921792 -1.33374560096010
 1  0.27279968076808  0.89622553775378  0.17085773097310
 1 -1.51480256885689 -0.17238925172517  0.07972024592459
 1  2.18540708520852 -1.43326237593759 -0.41538110231023
 1  0.05524603540354 -2.77180222252225 -0.84879574047405

