%nproc=4
%Mem=2GB
# td=(NStates=1) B3LYP/6-31G(d,p) 

TD

0 1
 6  12.08723306590659  0.51743234373437 -0.63508962786279
 6 -12.15305761986199  0.00827578597860  0.80417959685969
 6  13.34597401010101 -0.22188184818482 -0.66089208820882
 6 -13.01457795769577  1.22765715721572  1.27716843124312
 6  13.16543885808581 -1.76293196559656 -0.59273103190319
 6 -13.43672826892689  2.11102961506151  0.18251861896190
 6  11.05066686058606  0.00898516301630  0.33849138693869
 6 -10.92489015681568  0.43078296059606 -0.07612524732473
 6  12.44858929632963 -2.03032532653265  0.72171614791479
 6 -12.09734961756176  2.67971828002800 -0.44488282418242
 6  11.25724543254325 -1.14577663216322  0.96989355775578
 6 -11.07194198839884  1.55497111891189 -0.77129600330033
 6  11.59161974967497  0.47365849094909 -2.07894637323732
 6  12.45452886628663  2.08210226532653 -0.32364388338834
 6 -13.05724331513151 -1.06397351605161  0.14185801570157
 6 -11.57887675567557 -0.53037621122112  2.00989913811381
 6  9.80765882848285  0.87003311691169  0.46926892739274
 6 -9.84342414931493 -0.63022556465647 -0.38798288608861
 6  10.32634681098110 -1.74465427712771  2.03105574047405
 6 -9.99737270747075  2.18452019111911 -1.68452991789179
 6  8.57654389408941  0.42969292549255  0.28984719091909
 6 -8.60409336773677 -0.40544040934093 -0.30902722562256
 6  7.41900046824682  1.35073387368737  0.23373598619862
 6 -7.50743963786379 -1.37295577067707 -0.38040843774377
 6  7.66771982168217  2.79109174637464  0.46346878387839
 6 -7.76531371957196 -2.87472748384838 -0.65435271287129
 6  6.20465436693669  0.74926931593159  0.23152531153115
 6 -6.22200080998100 -0.85726654925493 -0.21568368006801
 6  4.92017266796680  1.38842117401740  0.28061772077208
 6 -5.00441005280528 -1.65542151995200 -0.39090047164716
 6  3.66484519611961  0.76138370357036  0.13402535183518
 6 -3.81459684488449 -1.09726035873587 -0.19203164086409
 6  2.37381068246825  1.28893960166017  0.27617210511051
 6 -2.57560656005601 -1.91153621232123 -0.41567484758476
 6  2.22158653025303  2.58542790929093  0.77343171647165
 6 -2.64188473387339 -3.31344487098710 -0.70738208830883
 6  1.22452400090009  0.52538387998800  0.04862977997800
 6 -1.43359153225323 -1.15029360136014 -0.18150685578558
 6  1.10178455065507 -0.89531447864786 -0.24811233093309
 6 -0.04102356275628 -1.64390062986299 -0.42155591159116
 1  13.85166527232723  0.20363279277928  0.21292933583358
 1  14.01124813861386 -0.04920329602960 -1.57711124952495
 1 -12.48969533453345  1.68487087728773  1.99663322812281
 1 -13.79094995259526  0.64622411471147  1.94285072317232
 1  14.01664228622862 -2.12992381008101 -0.55933937973797
 1  12.64597047874788 -2.24333823382338 -1.57789391269127
 1 -13.89878326652665  3.09506286628663  0.56966800440044
 1 -14.07051183498350  1.55803547774777 -0.65591961406141
 1  13.06944890869087 -1.93006551315131  1.54448633063306
 1  11.86592404690469 -3.14672836493649  0.54881173677368
 1 -11.71437122922292  3.38583630433043  0.30358687568757
 1 -12.08456467036704  3.15447895569557 -1.35320922212221
 1  11.38398176867687 -0.54244732203220 -2.46592472517252
 1  12.25674255495550  0.67440210151015 -2.76151272527253
 1  10.60444801610161  1.11311442314231 -2.31519223872387
 1  12.46297725182518  2.16198310021002  0.80402774327433
 1  11.62131053795379  2.93931384228423 -0.68198235523552
 1  13.39769162546254  2.28386865676568 -0.77536980808081
 1 -13.54583381408141 -0.72525653465347 -0.61642774347435
 1 -13.66946911951195 -1.43478928312831  0.89289651035104
 1 -12.33173077627763 -1.96205461036104 -0.27015289778978
 1 -11.02406489738974  0.37295165576558  2.63742340144014
 1 -10.77955448084809 -1.44078507920792  1.95414943114311
 1 -12.53895795979598 -1.01660612851285  2.83323185128513
 1  10.02821622822282  1.82947780788079  0.45403131103110
 1 -10.19424386908691 -1.73311842184218 -0.36046242424242
 1  9.88776285378538 -0.77741533623362  2.42973673127313
 1  10.68546936103610 -2.33139933783378  2.70394182418242
 1  9.59739180638064 -2.48067791779178  1.47428705030503
 1 -9.16135317061706  1.37521983458346 -1.87960045694569
 1 -9.48234303920392  3.06944046604660 -1.00479052525253
 1 -10.40569083408341  2.56183118851885 -2.60047002030203
 1  8.42245783658366 -0.51269204940494 -0.21641859225923
 1 -8.36453984918492  0.66735092919292 -0.19165281778178
 1  8.27660089218922  2.83930896679668  1.33985336783678
 1  6.70951283198320  3.24437214141414  0.57894047374738
 1  8.30310454815482  3.40202886488649 -0.26063928682868
 1 -8.48452940514052 -2.99676673577358 -1.52948964256426
 1 -8.41339232753275 -3.16595978327833  0.07785392469247
 1 -6.91649620222022 -3.51564421572157 -0.74540342554255
 1  6.15633649814982 -0.34793001980198  0.41335931923192
 1 -6.02365435003500  0.21307324582458 -0.09231950875088
 1  5.20797415471547  2.32736118021802  0.69443235003500
 1 -5.27960806110611 -2.73901741814181 -0.48410055115512
 1  3.75474574127413 -0.20630520042004 -0.16265662726273
 1 -3.54368199939994 -0.07053072317232  0.00102823612361
 1  2.55541624102410  2.62737313341334  1.84262291759176
 1  1.12846004680468  2.75913664546455  0.73387311481148
 1  2.76292335113511  3.22323279677968  0.06270230063006
 1 -3.09760162976298 -3.52629098499850 -1.64063907470747
 1 -3.22769437523752 -3.75832782568257  0.11106575797580
 1 -1.53196416771677 -3.90283061746175 -0.45632785918592
 1  0.15596799759976  1.08210412561256  0.34029467466747
 1 -1.54008509710971 -0.01790380318032  0.02145441934193
 1  2.23376192069207 -1.29718876857686 -0.61496106030603
 1 -0.00375986518652 -2.71835687798780 -0.43143400430043

