%nproc=4
%Mem=2GB
# td=(NStates=1) B3LYP/6-31G(d,p) 

TD

0 1
 6  12.23670801340134  0.54379497999800 -0.72133825272527
 6 -12.13591590569057 -0.01865690729073  0.83776295519552
 6  13.45733514621462 -0.21746140614061 -0.65288128712871
 6 -13.07644414431443  1.14240863236324  1.28682939733973
 6  13.22212452665267 -1.76897256965697 -0.65803756255626
 6 -13.51930652675268  2.00649916201620  0.11792215931593
 6  11.07775956985699 -0.01905764126413  0.29618715651565
 6 -11.00252792059206  0.46054593689369 -0.11640927572757
 6  12.39690412781278 -2.02321461546155  0.75235921222122
 6 -12.22293217581758  2.59267957615762 -0.53958229412941
 6  11.26084579257926 -1.16534858935894  0.89655622402240
 6 -11.17107190139014  1.65130075187519 -0.74183305700570
 6  11.67495808350835  0.64490561566157 -2.17919639823982
 6  12.55917933133313  2.00521457655766 -0.43084460346035
 6 -13.00117770857086 -1.10881800050005  0.07096092599260
 6 -11.64184305230523 -0.73695686928693  2.14795294349435
 6  9.85414347694770  0.79039515311531  0.21910391089109
 6 -9.92975278217822 -0.48178072017202 -0.28235232303230
 6  10.22969714601460 -1.70308011971197  1.91119375427543
 6 -10.09330230043004  2.17016875597560 -1.76841830673067
 6  8.61983822352235  0.43366332253225  0.32710091629163
 6 -8.56041900030003 -0.24378424372437 -0.23702002490249
 6  7.42911147934793  1.28781758205821  0.47033964656466
 6 -7.48276717061706 -1.25401387648765 -0.40634103100310
 6  7.56606965666567  2.66044868206821  0.90443288028803
 6 -7.87188437663766 -2.70044005510551 -0.74523180078008
 6  6.18863276477648  0.72198658765877  0.22870502950295
 6 -6.17540615051505 -0.85026584918492 -0.31928404010401
 6  4.88425907660766  1.29040137203720  0.33042270127013
 6 -4.97769738153815 -1.59533551135114 -0.33934531613161
 6  3.69966867846785  0.67043460866087  0.11673362266227
 6 -3.76206159135914 -1.04049468216822 -0.29909234693469
 6  2.37378067946795  1.29018972667267  0.27544203210321
 6 -2.50637963736374 -1.83520857955796 -0.24542782288229
 6  2.23419779137914  2.76316568306831  0.42924729802980
 6 -2.57765831123112 -3.37028055455546 -0.40084143424342
 6  1.11577312581258  0.49280062166217  0.20380529752975
 6 -1.30265843894389 -1.15150372237224 -0.25696440154015
 6  1.15143951615162 -0.96668161536154 -0.03734125382538
 6  0.07307784738474 -1.68097433723372 -0.35509926592659
 1  14.08965907170717  0.05008743824382  0.22386042894289
 1  14.02291930573057 -0.06958533423342 -1.67635117351735
 1 -12.41321768676868  1.65658804900490  2.12253581838184
 1 -13.93181403900390  0.70752024432443  1.63607004510451
 1  14.14212483448345 -2.32384320202020 -0.46760020582058
 1  12.75609149084909 -2.08095199519952 -1.45257138043804
 1 -14.17366075427543  2.98864222422242  0.38379941754175
 1 -13.97788257205721  1.41437111131113 -0.43252727482748
 1  12.92096406020602 -2.04169667626763  1.62516439843984
 1  12.19627708220822 -3.03580727282728  0.57193404900490
 1 -11.78827861996200  3.31312903360336  0.21565808280828
 1 -12.46039225312531  3.21605511331133 -1.39100300150015
 1  11.38604197469747 -0.38898197549755 -2.71464959765977
 1  12.32288916961696  1.15409007030703 -2.58944551855186
 1  10.82725029632963  1.19600271197120 -2.27807852735274
 1  12.88384933903390  2.33691059295930  0.62861020152015
 1  11.85295370227023  2.57959787068707 -0.78515267226723
 1  13.47746960326033  2.25529579947995 -1.13522579367937
 1 -13.50404963566357 -0.88227223622362 -0.79185528622862
 1 -13.80601277387739 -1.59803560776078  0.87734495519552
 1 -12.19466706990699 -1.97976638153815 -0.22451833433343
 1 -11.10199269016902  0.02008636923692  2.73222288138814
 1 -10.91419794519452 -1.56486748744875  1.78237225342534
 1 -12.59547361136114 -1.11959642754275  2.69316784488449
 1  9.82231563816382  1.88790365046505  0.59207511541154
 1 -10.20072451715171 -1.55198030803080 -0.48095447344734
 1  9.50797487498750 -0.97988558325833  2.41061481908191
 1  10.65241605570557 -2.34487068496850  2.71800323032303
 1  9.54634670187019 -2.40897074707471  1.40605022662266
 1 -9.30089712501250  1.39716202880288 -1.97448994589459
 1 -9.76781158605861  3.05112863486349 -1.57647769396940
 1 -10.63027329232923  2.36414141954195 -2.69943991729173
 1  8.47193278407841 -0.62411319151915  0.09329237883788
 1 -8.26116951215121  0.82565675977598 -0.18820247274727
 1  8.53021625372537  2.80102513841384  1.63345272777278
 1  6.53166504720472  3.04706241044104  1.36887946764676
 1  7.79231346904690  3.34609327132713 -0.04708793169317
 1 -8.45592654485449 -2.68907596669667 -1.69949664326433
 1 -8.56572756105611 -3.02248543584358  0.04577071637164
 1 -7.15751030363036 -3.36329898119812 -0.86578546374637
 1  6.17169803430343 -0.39461468826883  0.08023600690069
 1 -6.09947193179318  0.32994493299330 -0.31778205500550
 1  5.07591094839484  2.34693313741374  0.76683959075908
 1 -5.08342844314431 -2.68773228962896 -0.43457559865987
 1  3.49366963366337 -0.51425599549955  0.24581421982198
 1 -3.54704233543354 -0.05861953205321 -0.02131399809981
 1  2.65155585498550  3.30543093919392  1.26736539183918
 1  1.19655685648565  3.14823555535554  0.25766549404940
 1  2.63106016481648  3.32329280278028 -0.38716268586859
 1 -3.27995986558656 -3.69548790469047 -1.47778278907891
 1 -3.42122372817282 -3.55689768266827  0.47198184958496
 1 -1.71428239953995 -4.12065239963996 -0.36321854825483
 1  0.28183058385839  1.12946886208621  0.10849149434943
 1 -1.25546663526353 -0.00904291709171 -0.35037276337634
 1  2.16883542804280 -1.42023107280728 -0.11382094629463
 1  0.08591910271027 -2.69690473277328 -0.63339420032003

