%nproc=4
%Mem=2GB
# td=(NStates=1) B3LYP/6-31G(d,p) 

TD

0 1
 6  12.14766910951095  0.66293689418942 -0.71438755765577
 6 -12.09055136923692  0.05528048644864  0.74819399829983
 6  13.40838025072507 -0.15754541454145 -0.75498149714971
 6 -13.03009950985098  1.14970936243624  1.21106182058206
 6  13.15269758395840 -1.69275494789479 -0.59663142194219
 6 -13.32941753785378  2.22554106620662 -0.01102073497350
 6  11.08673046694669  0.01998626312631  0.22234977277728
 6 -10.91410907870787  0.49973985628563 -0.13964159895990
 6  12.53635807320732 -1.99761205520552  0.73251722802280
 6 -12.01335121772177  2.70275058325833 -0.47489582548255
 6  11.24054376237624 -1.17569962446245  0.87400396879688
 6 -10.82566736093609  1.75958157995800 -0.68343721742174
 6  11.58800938863886  0.68331945704570 -2.19828830743074
 6  12.49006241964197  2.13519757485749 -0.42725424442444
 6 -13.00440803160316 -0.94797191589159 -0.01279744984498
 6 -11.65367423542354 -0.65111828542854  2.09248739693969
 6  9.79446750935094  0.87883399699970  0.25330733123312
 6 -9.90679048594859 -0.55091763386339 -0.30915500330033
 6  10.26998117441744 -1.71453126482648  1.95650828572857
 6 -9.88784175437544  2.10119185828583 -1.68495996089609
 6  8.56242248194819  0.48572852905291  0.26821502770277
 6 -8.62652561096110 -0.38735860116012 -0.09945626852685
 6  7.39600816901690  1.29130793109311  0.38919153175318
 6 -7.59832872677268 -1.23196167126713 -0.40546094299430
 6  7.50388343804380  2.83295593279328  0.53576601360136
 6 -7.90558774697470 -2.60935094619462 -1.04923220082008
 6  6.11757565906591  0.71333572257226  0.17044920392039
 6 -6.22019062896290 -0.96225704830483 -0.15117722942294
 6  4.81052170287029  1.30787311921192  0.38113777277728
 6 -4.99423903570357 -1.69937591539154 -0.40332171377138
 6  3.72157086868687  0.56544410961096  0.20225217451745
 6 -3.75595098029803 -1.22211284398440 -0.16107854555456
 6  2.34058736013601  1.10946165386539  0.38611309920992
 6 -2.53356235563556 -1.92564762346235 -0.21768504860486
 6  2.11165553715372  2.62876224272427  0.64173854715472
 6 -2.61374191959196 -3.43678720522052 -0.57391874197420
 6  1.18636018451845  0.34924626622662  0.28371328832883
 6 -1.37174534763476 -1.26747531953195 -0.04153285838584
 6  1.12285665786579 -1.04863981118112 -0.01556907660766
 6 -0.07437689808981 -1.80920716051605 -0.08444220022002
 1  14.07419752555256  0.44117654715471  0.06041408430843
 1  13.93391040484048 -0.00111848754876 -1.59861339973997
 1 -12.51611797679768  1.67662005220522  2.12355592039204
 1 -13.92229308690869  0.61662115441544  1.69355579367937
 1  14.01158178017802 -2.04489530723072 -0.72384583038304
 1  12.50093597529753 -2.06339023902390 -1.48641476477648
 1 -13.96470985918592  3.03349670967097  0.43896493409341
 1 -13.94838962276228  1.57605727992799 -0.68541256335634
 1  13.30352231603160 -1.79698220482048  1.50589247124712
 1  12.09001645614561 -2.98892258435844  0.86340319591959
 1 -11.76761655375538  3.51122884358436  0.23524004100410
 1 -12.18913512741274  3.16941044884489 -1.47500140134013
 1  11.24779815031503 -0.44302738003800 -2.44039217191719
 1  12.53156003670367  0.90632529382938 -2.90518709270927
 1  10.77182475377538  1.26930004170417 -2.37726844634463
 1  12.60251120522052  1.98390529242924  0.71665900640064
 1  11.65888429532953  2.89761967286729 -0.49204336133613
 1  13.33239509580958  2.31010128002800 -0.92925519661966
 1 -13.51339056975698 -0.44715872487249 -0.83108920962096
 1 -14.00664283688369 -1.50373617781778  0.67053427412741
 1 -12.51575917911791 -1.82895130003000 -0.05142102460246
 1 -10.95685817671767  0.27801216181618  2.68614827392739
 1 -10.92566909230923 -1.53283428412841  1.98993300950095
 1 -12.49527359135914 -0.98330279817982  2.58888741684168
 1  9.79657306390639  1.89908476857686  0.47041294919492
 1 -10.19859430413041 -1.65020013001300 -0.53237961596160
 1  9.32777685518552 -1.20416801150115  2.15675943354335
 1  10.92055286938694 -1.85347154505451  2.92204363436344
 1  9.97754982218222 -2.81758160816082  1.61519114071407
 1 -9.18734576987699  1.26882919551955 -2.00086258315832
 1 -9.13056786168617  2.78457197919792 -1.63044309050905
 1 -10.48884914991499  2.51746675207521 -2.68657863116312
 1  8.32509810061006 -0.56845762596260  0.05378842844284
 1 -8.31124451965196  0.55461965606561  0.20832718021802
 1  7.65914914701470  3.22096713261326  1.57124650715071
 1  6.52816469716972  3.30145784998500  0.20193277297730
 1  8.24536877457746  3.06875553755376 -0.32914613751375
 1 -8.55427637983798 -2.58606566566657 -1.95398209180918
 1 -8.61664265256526 -3.18000118741874 -0.26825068576858
 1 -7.23284783738374 -3.23030568186819 -1.43199208440844
 1  6.14711557605761 -0.55005023182318  0.09313729702970
 1 -5.98110009460946  0.03165510401040  0.11890161336134
 1  4.75931928922892  2.33791223532353  0.73199610641064
 1 -5.07303740404040 -2.67203071947195 -0.74197633873387
 1  3.96170643734373 -0.43513808370837 -0.29821018261826
 1 -3.60903853505351 -0.11920559065907  0.26117425072507
 1  2.69424012341234  2.96973736983698  1.51082973827383
 1  0.94006120692069  2.85711644344434  0.81543127062706
 1  2.46531359015902  3.31033150665067 -0.05833980358036
 1 -3.08292016161616 -3.88626698259826 -1.43512852365237
 1 -2.97859946574657 -3.94361635453545  0.23802845424542
 1 -1.45882685398540 -3.69883021742174 -0.52853507990799
 1  0.30941334213421  1.08188410361036  0.48187883308331
 1 -1.40441152975298 -0.21397341014101  0.17749002290229
 1  2.01458000250025 -1.55118416811681  0.10517095289529
 1  0.04744525532553 -2.93269831213121 -0.32596345724572

