%nproc=4
%Mem=2GB
# td=(NStates=1) B3LYP/6-31G(d,p) 

TD

0 1
 6  12.07343168576858  0.46670727122712 -0.66194231313131
 6 -12.17881019511951 -0.11170621222122  0.98309748864886
 6  13.41154056675668 -0.35603526352635 -0.45814181318132
 6 -13.08868536843684  1.06321071257126  1.37487820222022
 6  13.24021633583358 -1.85779145154515 -0.46527828662866
 6 -13.52330692679268  1.97690620272027  0.16235660276028
 6  11.04543633753375 -0.15708144364436  0.33810134793479
 6 -11.08572624042404  0.34405428772877 -0.03710134493449
 6  12.39753419081908 -2.22642493649365  0.74132810911091
 6 -12.31562144474447  2.55722603080308 -0.52265060096010
 6  11.13585329332933 -1.36701875637564  0.92412898129813
 6 -11.23864865906591  1.58770439223922 -0.66589546324632
 6  11.63220380808081  0.48285941104110 -2.15174365296530
 6  12.42377579097910  1.92997705280528 -0.31831335033503
 6 -12.92359995079508 -1.18777589628963  0.34887871777178
 6 -11.47808667666767 -0.67207038063806  2.26838498669867
 6  9.86074413701370  0.80751686528653  0.28168016851685
 6 -9.87460726762676 -0.58671121322132 -0.31931601940194
 6  10.15877005330533 -1.78585839753975  1.97736037093709
 6 -10.20165313551355  2.12426416551655 -1.76007747264726
 6  8.55510174987499  0.42249220542054  0.37036524272427
 6 -8.59839279767977 -0.33299316461646 -0.31056737963796
 6  7.41143971217122  1.29190799109911  0.39131174377438
 6 -7.50273916781678 -1.27745622072207 -0.44584498139814
 6  7.78057110681068  2.82619525672567  0.45323776077608
 6 -7.81885907410741 -2.72195220632063 -0.79852713031303
 6  6.16897079857986  0.89297368636864  0.37829998899890
 6 -6.13055166506651 -0.81150197279728 -0.27593970567057
 6  4.94641529222922  1.50917324922492  0.41381104010401
 6 -5.00891050285029 -1.66767274507451 -0.53685506710671
 6  3.71392010361036  0.84195176037604  0.24430637993799
 6 -3.69024440964096 -1.07002763546355 -0.28491092879288
 6  2.40986428782878  1.51234194189419  0.21540602850285
 6 -2.48513751315132 -1.74362942164216 -0.44613789388939
 6  2.24326869846985  2.90072943944394  0.43321769506951
 6 -2.55502604800480 -3.29094262076208 -0.69998134823482
 6  1.31850339883988  0.69519086068607  0.02668758575858
 6 -1.35286345944594 -1.10986955895590 -0.42996170127013
 6  1.14432880508051 -0.68814376157616 -0.23497101680168
 6  0.11558209780978 -1.45531177097710 -0.52144590059006
 1  13.79784989078908 -0.29873744424442  0.60639868276828
 1  14.20682769656966 -0.31773014871487 -1.13716725512551
 1 -12.46628299329933  1.59971236143614  2.08801236603660
 1 -13.97783864146415  0.63620311261126  1.78744518261826
 1  14.38035865786579 -2.27145796349635 -0.36908035383538
 1  12.75815169686969 -2.43648754875488 -1.27513363666367
 1 -14.30425381358136  2.59475283528353  0.52097313491349
 1 -14.19881466526653  1.43173284748475 -0.64875889798980
 1  13.14902686648665 -2.17728023462346  1.65381726372637
 1  12.06810426492649 -3.27876156825683  0.65911276687669
 1 -11.82427221932193  3.52355007570757 -0.15438892189219
 1 -12.65863207710771  2.86152966076608 -1.41585548674868
 1  11.51584495499550 -0.57286036333633 -2.51077921062106
 1  12.34728160886089  0.76138079937994 -2.78153472747275
 1  10.68288585988599  0.99760287198720 -2.64374509400940
 1  12.58582953705370  2.08148505040504  0.86875421592159
 1  11.65029343624362  2.80469037993799 -0.50340449744974
 1  13.25773763006301  2.32637290719072 -0.89696196729673
 1 -13.54100333103310 -0.79529353835384 -0.63742984368437
 1 -13.66522869546955 -1.77809361356136  1.02086930763076
 1 -12.44709231243124 -2.06457486238624 -0.06681256375638
 1 -10.93031552245225  0.02541690229023  2.56265592469247
 1 -10.95615214061406 -1.41016201690169  2.12420643684368
 1 -12.37100116411641 -0.92651711961196  3.07077560566057
 1  10.04085749234924  2.00666552665267 -0.13697778987899
 1 -10.34241868656866 -1.63377848784879 -0.29486586458646
 1  9.65149922742274 -0.93608120282028  2.46383014061406
 1  10.64117493159316 -2.20472667056706  2.90177160716072
 1  9.49487155435544 -2.57071692169217  1.72728234983498
 1 -9.33109014431443  1.40915322792279 -1.99309180608061
 1 -9.77574237913791  3.14255777777778 -1.42756280248025
 1 -10.50792105710571  2.34105911131113 -2.73839381268127
 1  8.15068065886589 -0.70349112931293  0.47324037363736
 1 -8.16814020922092  0.72582677677768 -0.04699835233523
 1  8.05579881198120  3.06725176107611  1.53989337183718
 1  6.88859073977398  3.48038574277428  0.54130671037104
 1  8.44622886058606  3.07253591559156 -0.21128435133513
 1 -8.69674062626263 -2.80619767886789 -1.51770846444644
 1 -8.06056704500450 -3.53709689698970  0.17567370667067
 1 -6.95420997359736 -3.32125477677768 -1.40159904510451
 1  6.05578644314431 -0.11629685648565  0.31405938923892
 1 -5.99364134873487  0.30435237373737 -0.14836511331133
 1  5.03128648594859  2.54681312541254  0.49901280808081
 1 -5.05347544784478 -2.84027754415441 -0.77012915401540
 1  3.72614288098810 -0.17748231813181  0.15415505390539
 1 -3.70649828102810  0.01662799269927  0.17551568486849
 1  2.75523622302230  3.42619301540154  1.40930958625863
 1  1.13076027682768  3.23135386718672  0.31205093259326
 1  2.89882694149415  3.63485395889589 -0.45577954755476
 1 -2.81587345694569 -3.41628998489849 -1.81792680348035
 1 -2.98451005680568 -3.76798879177918  0.00195484688469
 1 -1.52035300660066 -3.62967330173017 -0.65184741114111
 1  0.21853425422542  1.20984689988999 -0.07899725452545
 1 -1.33150423902390 -0.03603561636164 -0.07145487158716
 1  2.15389393389339 -1.18456750645065 -0.34099366356636
 1  0.29233974477448 -2.52520756305631 -0.70070093099310

