%nproc=4
%Mem=2GB
# td=(NStates=1) B3LYP/6-31G(d,p) 

TD

0 1
 6  12.17191153375338  0.55573617411741 -0.78210432933293
 6 -12.26303861796180 -0.09754479607961  0.87576675557556
 6  13.58874828752875 -0.31760142014201 -0.71702770177018
 6 -13.11227772767277  1.09430382188219  1.28855957035704
 6  13.22669498369837 -1.83053872627263 -0.56498825762576
 6 -13.48128272437244  1.89231774387439  0.08027839493949
 6  11.03423521742174 -0.01992772827283  0.23703124092409
 6 -11.01909957775777  0.46907678997900 -0.08082571737174
 6  12.49236367376738 -2.15743803780378  0.64625860216022
 6 -12.31290117271727  2.60318062626263 -0.66527486338634
 6  11.24571427942794 -1.23663571807181  0.85297186558656
 6 -11.14764955915592  1.69609523132313 -0.79563843754375
 6  11.61976256395640  0.59821094619462 -2.24094257285729
 6  12.56815022842284  1.92160621572157 -0.42571409040904
 6 -13.06420401120112 -1.24982210091009  0.27243107300730
 6 -11.61067993599360 -0.72138531213121  2.17567571577158
 6  9.82486054865487  0.75980209380938  0.36983898439844
 6 -9.89970977787779 -0.52643518561856 -0.23586767456746
 6  10.29871404770477 -1.71384119581958  1.93861649654965
 6 -10.09384235443544  2.03005474457446 -1.85152661756176
 6  8.54186042574258  0.39269922612261  0.29793800000000
 6 -8.56955991439144 -0.30924078937894 -0.21314763766377
 6  7.41332990119012  1.25095389568957  0.47219983258326
 6 -7.55138403230323 -1.23961243634363 -0.36917731463146
 6  7.62606565626563  2.67153979117912  0.75015745274527
 6 -7.89821700990099 -2.64972498359836 -0.54911218881888
 6  6.14713861536154  0.73023741274127  0.42697485648565
 6 -6.16223483338334 -0.82447326992699 -0.33131524322432
 6  4.88549920062006  1.43887621952195  0.61286094509451
 6 -4.98962857465747 -1.49060503830383 -0.55076645824582
 6  3.74924363596360  0.83548111331133  0.28079002830283
 6 -3.75028041324132 -1.04903553625363 -0.39564200190019
 6  2.43121642304230  1.38432914061406  0.31919640754075
 6 -2.57688668806881 -1.79356441514151 -0.47306058615862
 6  2.29511388298830  2.82418178467847  0.50134450775077
 6 -2.53013355875588 -3.30324385088509 -0.59050040014001
 6  1.26036758525853  0.64498584018402  0.10200511751175
 6 -1.34273244634463 -0.99819839183918 -0.23975268036804
 6  1.14280865306531 -0.91176612381238 -0.04290180988099
 6 -0.04672413281328 -1.57766400620062 -0.24661841784178
 1  14.16268637443744 -0.00679825032503  0.13393143604360
 1  14.22402941674167 -0.11993036873687 -1.69505304370437
 1 -12.50799716471647  1.92711510171017  1.80164372917292
 1 -13.97113797139714  0.78377787008701  1.86722316041604
 1  14.20889151115112 -2.59215003270327 -0.46205965176518
 1  12.71755763746375 -2.19526342634263 -1.48682480578058
 1 -14.02422581078108  2.86098945894590  0.40550158775878
 1 -14.03857864166417  1.28975865006501 -0.67201122322232
 1  13.13338530233023 -2.27858036463646  1.53907578957896
 1  12.21035849034903 -3.12802649474947  0.50355721132113
 1 -11.89793958605861  3.71439916061606 -0.57635111811181
 1 -12.68028424232423  2.63187669546955 -1.94630853205321
 1  11.37867123762376 -0.47463054035404 -2.41042917561756
 1  12.30049693039304  0.97931259255926 -2.88014458845885
 1  10.61277884918492  1.14716782848285 -2.29157987748775
 1  12.96172712681268  2.10498740064006  0.60976831733173
 1  11.90082848974897  2.79608951985199 -0.52214637163716
 1  13.57924978127813  2.50430069997000 -0.92098436953695
 1 -13.54368359905991 -0.80271428042804 -0.66716281698170
 1 -13.90559273187319 -1.76377218141814  0.93829104980498
 1 -12.41552915611561 -2.12365076997700 -0.02109799229923
 1 -10.89092158305831  0.01242560316032  2.80479013811381
 1 -11.05160168556856 -1.54875587628763  1.81779579577958
 1 -12.45569963396340 -1.07061152905291  2.93452198029803
 1  10.03095650225023  1.82623748384839  0.23497940584058
 1 -10.18052249694970 -1.56472158215822 -0.28896527452745
 1  9.65649972747275 -1.05337293199320  2.33349710731073
 1  11.02447326142614 -2.16223242114211  2.72287371737174
 1  9.67967003420342 -2.43023287328733  1.41521114271427
 1 -9.62396943224322  1.23890620322032 -1.98836133303330
 1 -9.53534833973397  2.85583910591059 -1.57995804200420
 1 -10.80229049404941  2.34309931533153 -2.58995896919692
 1  8.32298788958896 -0.59057983818382  0.17373042264226
 1 -8.50739413461346  0.79663385748575 -0.26530018251825
 1  8.05676890899090  2.76509154505451  1.92394177667767
 1  6.70755263596360  3.20268797299730  0.81121370107011
 1  8.32429666736674  3.14702336433643  0.02146892399240
 1 -8.60797174937494 -2.62436949604960 -1.33511020462046
 1 -8.47953894219422 -3.11353454075407  0.22853899319932
 1 -7.13491804440444 -3.34494714601460 -0.67276616181618
 1  6.10985184968497 -0.49858508530853  0.21020900420042
 1 -6.25045703030303  0.35343728222822 -0.20914119091909
 1  4.82459581688169  2.53734217831783  0.84945785258526
 1 -4.94592469276928 -2.65550906730673 -0.69079122022202
 1  3.88129839653965 -0.21217578747875 -0.01746210781078
 1 -3.42787041824182  0.07205353525352 -0.05169703640364
 1  2.47510821022102  3.01293168926893  1.47004565986599
 1  1.24536173697370  3.08965969776978  0.61425115261526
 1  2.90377743654365  3.46289676317632 -0.07993196279628
 1 -2.63341521112111 -3.46640499639964 -1.87269228002800
 1 -3.58771037683768 -3.57526951985199 -0.17604295289529
 1 -1.52815378667867 -3.74116445084508 -0.14371659805981
 1  0.24823722452245  1.09856577177718 -0.08073742854285
 1 -1.58965005360536 -0.00670268306831 -0.22045977207721
 1  2.13153169766977 -1.39205825552555  0.17383781958196
 1  0.21240175097510 -2.63511855415542 -0.64986584748475

