%nproc=4
%Mem=2GB
# td=(NStates=1) B3LYP/6-31G(d,p) 

TD

0 1
 6  12.18983332593259  0.55686628712871 -0.48290440934093
 6 -12.07992030613061  0.01111607000700  0.93805298419842
 6  13.45820523322332 -0.33474313431343 -0.29588558755876
 6 -13.04644114401440  1.14390878237824  1.40059077347735
 6  13.07839015321532 -1.81244691709171 -0.43048480728073
 6 -13.39489408550855  2.04414292639264  0.22354272137214
 6  10.99542133603360  0.03656792129213  0.43225076287629
 6 -10.93690135793579  0.42680256255626 -0.09331696649665
 6  12.23915835323532 -2.15233752775278  0.65014899119912
 6 -12.13891377397740  2.58131844004400 -0.38950728662866
 6  11.08402811081108 -1.21637369186919  1.00120668906891
 6 -10.98706350055005  1.65002062386239 -0.68153702740274
 6  11.84419500720072  0.73876500160016 -1.96181466006601
 6  12.63840725412541  2.08090214531453  0.02863134413441
 6 -13.00472806360636 -1.15918303700370  0.33948777867787
 6 -11.29477834583458 -0.58684185778578  2.13506165436544
 6  9.87812587518752  0.93890000360036  0.43290529102910
 6 -9.87384719161916 -0.55328787088709 -0.32954704250425
 6  9.81423559985999 -1.78036784848485  1.72151478637864
 6 -9.93199616981698  2.09313105220522 -1.65042650755076
 6  8.59411565126513  0.55129508570857  0.04791299749975
 6 -8.54801776017602 -0.25747561286129 -0.24072039493949
 6  7.37828639683968  1.40323912421242  0.10475308790879
 6 -7.46736563046305 -1.23944241934193 -0.41608200510051
 6  7.57493054275428  2.82961559875988  0.70013245024502
 6 -7.78834602280228 -2.74195420652065 -0.59774705230523
 6  6.17160106160616  0.82275666466647  0.00527268626863
 6 -6.16991560146015 -0.85473629622962 -0.43473558525853
 6  4.87145779647965  1.37560989288929  0.13755341434143
 6 -5.06789640144014 -1.67136311411141 -0.40312169376938
 6  3.73445215681568  0.66035360056006 -0.11861991269127
 6 -3.79262464766477 -1.17650828352835 -0.23992643034303
 6  2.39830313171317  1.23973468116812 -0.05161067316732
 6 -2.59045804520452 -1.91123618231823 -0.36480976107611
 6  2.26958132973297  2.66312567906791  0.39000337363736
 6 -2.69911045644564 -3.40335386188619 -0.58915026512651
 6  1.23893544204420  0.48697003860386 -0.15360044304430
 6 -1.41042921602160 -1.21006957895790 -0.28458716381638
 6  1.13163753595360 -1.01075602280228 -0.22575009470947
 6 -0.05207466786679 -1.66708294809481 -0.39847360336034
 1  13.76540664646465 -0.13441101160116  0.76176421932193
 1  14.36513352715271  0.17207883218322 -0.91958549694970
 1 -12.55687205220522  1.76086847704770  1.98100166496650
 1 -14.01368222582258  0.59621911421142  1.72373881198120
 1  13.89120974297430 -2.45574639233923 -0.51050449624963
 1  12.61976785848585 -2.04678857885789 -1.33908003130313
 1 -14.13920730893089  2.90941430143014  0.50374141174117
 1 -14.04891967576758  1.34616429062906 -0.56745076717672
 1  12.89231119491949 -2.27051955855586  1.57108899089909
 1  11.58629608410841 -3.15808950105011  0.46365322092209
 1 -11.73363315541554  3.29137685838584  0.32228874587459
 1 -12.52901911581158  3.24046755455546 -1.25833973517352
 1  11.37222059255926 -0.24404748204821 -2.47364549724972
 1  12.69106598729873  1.19329399069907 -2.56214278827883
 1  11.03752132343234  1.62001511321132 -2.22403312281228
 1  12.81403235733573  1.96631353325333  1.21345868636864
 1  11.72419082598260  2.71781169206921 -0.26669082608261
 1  13.49312116841684  2.50540080998100 -0.19431170227023
 1 -13.50917014771477 -0.64510851985199 -0.43578967966797
 1 -13.71263343594359 -1.52259806400640  0.96895411611161
 1 -12.51054865806581 -2.00675908080808  0.06525064256426
 1 -10.67378986988699  0.34712907350735  2.43306296539654
 1 -10.62767929332933 -1.47234823552355  2.18120213641364
 1 -12.00092415641564 -0.86628109600960  3.01463999209921
 1  10.00285369196920  1.99105396549655  0.68042395029503
 1 -10.11789623432343 -1.65593070307031 -0.32910928892889
 1  9.16231030853085 -1.09248684338434  2.07302105970597
 1  10.29965077917792 -2.37014321222122  2.59259068906891
 1  9.15999806700670 -2.45440529052905  1.23148276987699
 1 -9.36624365966597  1.25363767636764 -2.08689118601860
 1 -9.09835464036404  2.82134565656566 -1.25057510371037
 1 -10.41974223922392  2.84761976737674 -2.52204217751775
 1  8.44698028882888 -0.46641742194219 -0.08208515891589
 1 -8.35289868506851  0.73676787088709 -0.24588824132413
 1  8.14873810591059  2.84249928582858  1.57713709620962
 1  6.53445532623262  3.23882158635864  0.66271885158516
 1  8.13882812051205  3.69254791679168 -0.07878110101010
 1 -8.53965491769177 -2.97731479057906 -1.32887958155816
 1 -8.37397838613861 -3.15577876517652  0.27126326562656
 1 -7.12260681328133 -3.44724737603760 -0.87171605680568
 1  6.03436430093009 -0.24431965876588 -0.29729174587459
 1 -5.87556954155415  0.23128506700670 -0.43792406920692
 1  4.68995235253525  2.29527797189719  0.26765967276728
 1 -5.18597869816982 -2.66221973837384 -0.64305644674467
 1  3.94895516221622 -0.34768933883388 -0.46999736133613
 1 -3.78920655185518 -0.09686335643564  0.05848398169817
 1  2.45425612501250  3.05931632773277  1.44186284158416
 1  1.13989118991899  2.90024075587559  0.02066179367937
 1  2.76956401520152  3.23129360286029 -0.44871884148415
 1 -3.19458132773277 -3.60486884278428 -1.39503451425143
 1 -3.03670527632763 -3.76879887278728  0.34231888328833
 1 -1.70341131243124 -3.77963829822982 -0.68513073947395
 1  0.51078347914791  1.05936185138514  0.04498514371437
 1 -1.34028511711171 -0.08666067886789 -0.24086181228123
 1  2.02720126462646 -1.38473752345234 -0.39506907110711
 1  0.21893240404040 -2.79089413171317 -0.41846270717072

