%nproc=4
%Mem=2GB
# td=(NStates=1) B3LYP/6-31G(d,p) 

TD

0 1
 6  12.11625596819682  0.51185178567857 -0.68970508940894
 6 -12.06782909700970 -0.17263230483048  0.79805898479848
 6  13.42254166686669 -0.26135579557956 -0.52786878587859
 6 -12.89872637253725  0.94588898039804  1.25227594199420
 6  13.20245255945595 -1.78936460886089 -0.62386414521452
 6 -13.43371796789679  1.89351786388639  0.20924129122912
 6  11.03802559645965 -0.02590832633263  0.14893243104310
 6 -10.98883655145514  0.36024590689069 -0.14624225902590
 6  12.22844728212821 -2.23956625062506  0.57565154145415
 6 -12.33723360596059  2.63036334453445 -0.54255259115912
 6  11.15341504950495 -1.27866992149215  0.76981354975498
 6 -11.08944373857386  1.64399002080208 -0.72663153685369
 6  11.60450103780378  0.44617574267427 -2.08784726332633
 6  12.61481489488949  2.02165622072207 -0.29496101510151
 6 -12.94778236903690 -1.15552267096710  0.07505133503350
 6 -11.40656952495249 -0.77435060866087  1.95376352455246
 6  9.89504756735674  0.87427354095410  0.34535653615362
 6 -9.90685049194919 -0.57245978807881 -0.41941602940294
 6  10.12869704600460 -1.72661247294729  1.78224085898590
 6 -10.19846281648165  2.14841658075808 -1.79336080098010
 6  8.59813605330533  0.47337729392939  0.27673587978798
 6 -8.54593755215521 -0.34901476677668 -0.31187751065107
 6  7.35011357955796  1.30021882218222  0.43749636223622
 6 -7.44365325922592 -1.27753622872287 -0.50322071897190
 6  7.64830788048805  2.70416305350535  0.65747818481848
 6 -7.84767195539554 -2.63949396049605 -0.84655193279328
 6  6.17198109960996  0.65679006800680  0.16289844884488
 6 -6.20195880578058 -0.72861368396840 -0.25252736443644
 6  4.85902655335533  1.37845017691769  0.31936159515952
 6 -4.93468308010801 -1.49904588238824 -0.28001938353835
 6  3.65682439403940  0.71871943714371  0.17038898819882
 6 -3.71828721392139 -0.90781141384138 -0.13468590629063
 6  2.35408871027103  1.41446215391539  0.22294678257826
 6 -2.51139013841384 -1.70761582028203 -0.22635591569157
 6  2.19927429902990  2.82121148764876  0.41601597489749
 6 -2.64357490289029 -3.27771129762976 -0.32442379247925
 6  1.25743729222922  0.60326166776678  0.10773569056906
 6 -1.36938511161116 -1.08940751275127 -0.03200190529053
 6  1.11249562176218 -0.80697564476448  0.05044752505251
 6  0.01759229882988 -1.62044828462846 -0.07754151015102
 1  13.79786989278928 -0.19512708320832  0.57058510141014
 1  14.29152616641664  0.07172879717972 -1.13182672107211
 1 -12.23942030703070  1.56348873907391  1.96255982078208
 1 -13.92497335493550  0.67879737203720  1.84529096719672
 1  14.23875449744975 -2.14231504920492 -0.50126357215722
 1  12.93473935563556 -2.29389328932893 -1.79083520682068
 1 -14.12783617181718  2.53138649864986  0.71803284088409
 1 -14.13550833463346  1.50573024722472 -0.51671569366937
 1  12.91275323912391 -2.53912641924192  1.47619950195020
 1  11.77687514201420 -3.16821051315131  0.19581643724372
 1 -12.05667545964597  3.64147186788679  0.23295981298130
 1 -12.45963217711771  3.07122062986299 -1.70320422162216
 1  11.60842421292129 -0.66833991129113 -2.51499963266327
 1  12.38166504720472  0.97855251655166 -2.64994156815682
 1  10.41071864316432  0.68440155185519 -2.14661538103810
 1  12.91277223132313  1.93933083498350  0.86636397689769
 1  11.71656006290629  2.63469338023802 -0.37130128712871
 1  13.37510936723672  2.38092836273627 -0.87676994809481
 1 -13.43807303800380 -0.51298530753075 -0.76142224292429
 1 -13.60490266286629 -1.75938174237424  0.60273749444945
 1 -12.30736834003400 -1.90147855275528 -0.52605848834883
 1 -10.90261275217522  0.00895525612561  2.57804746384639
 1 -10.49515604100410 -1.58394939563956  1.83307732393239
 1 -12.03707777177718 -1.34379884778478  2.62543107120712
 1  10.21392479907991  1.92388724882488  0.54065997389739
 1 -10.03638808350835 -1.64129923992399 -0.78277465546555
 1  9.50942502000200 -0.80113770847085  2.23508726632663
 1  10.60007082118212 -2.13661985988599  2.70233166316632
 1  9.42712477967797 -2.49416926692669  1.35601522312231
 1 -9.48669570487049  1.40585289788979 -2.02950544744474
 1 -9.42695750065007  2.97836135813581 -1.23058310451045
 1 -10.80943120812081  2.53820882628263 -2.41606157945795
 1  8.35313090389039 -0.68573935413541  0.17133018261826
 1 -8.30265366056606  0.70547474157416  0.01816816431643
 1  8.03045627772777  2.86814185008501  1.73889327182718
 1  6.78261014171417  3.31169887408741  0.56497907760776
 1  8.25151938963896  3.12604126612661  0.02245902300230
 1 -8.21724267646765 -2.66386344544454 -1.87689438303830
 1 -8.61737272557256 -3.12072525982598 -0.18481234193419
 1 -7.02308686128613 -3.50575322662266 -0.72164104930493
 1  6.22630349484948 -0.34466969376938  0.20676866016602
 1 -5.86683866846685  0.33648558705871  0.09504922812281
 1  4.76664002130213  2.40431887598760  0.57575048184818
 1 -4.87674777507751 -2.49605312171217 -0.22943508460846
 1  3.66174644134413 -0.17334190409041 -0.06365672727273
 1 -3.73223085428543  0.15533186308631  0.13154128742874
 1  2.70019071847185  3.00113050915092  1.37397605290529
 1  1.18154535533553  3.41652238403840  0.30749047654766
 1  2.88919597839784  3.38871934543454 -0.39627359695970
 1 -3.51099296889689 -3.53291164706471 -1.09920493129313
 1 -3.23556516231623 -3.57980997389739  0.60929558095810
 1 -1.57107807910791 -3.68220855525553 -0.43309553595360
 1  0.40642304310431  1.29020493569357  0.00783142834283
 1 -1.61388247684769  0.07756574377438 -0.06669439553955
 1  2.01678022252225 -1.40530958065807 -0.11092065626563
 1  0.11241175197520 -2.66019106140614  0.04919405850585

