%nproc=4
%Mem=2GB
# td=(NStates=1) B3LYP/6-31G(d,p) 

TD

0 1
 6  12.14059840244024  0.51966256675668 -0.54685080398040
 6 -12.05414772887289 -0.08907394899490  0.89116829572957
 6  13.35509492219222 -0.39037869786979 -0.52690868986899
 6 -12.82386888678868  1.12394678617862  1.46924763916392
 6  13.11327364156416 -1.83293896629663 -0.45903766256626
 6 -13.33117771387139  2.02172068416842  0.36322668976898
 6  10.96389818371837 -0.05748148364836  0.32238977677768
 6 -10.95259292709271  0.36120600290029 -0.16099373417342
 6  12.25347978537854 -2.19722201620162  0.83308728502850
 6 -12.19264914751475  2.53465377357736 -0.44731306720672
 6  11.03675338333833 -1.22494454895490  0.98149471787179
 6 -11.05615040924092  1.59717533933393 -0.67616649034903
 6  11.63660424812481  0.60064118921892 -2.10542902150215
 6  12.42849626302630  1.99226328142814 -0.19377089608961
 6 -12.93469105990599 -1.13603072177218  0.11113494339434
 6 -11.42061092909291 -0.69805297889789  2.17779592779278
 6  9.86718478107811  0.83014912851285  0.45975797629763
 6 -9.88336814371437 -0.60440298239824 -0.35376946474647
 6  10.04596877317732 -1.69029884158416  1.95761839673967
 6 -9.99051202140214  2.18684042314231 -1.66682814771477
 6  8.58152439213921  0.56725668186819  0.21870007620762
 6 -8.56273923232323 -0.33536340164016 -0.21513783668367
 6  7.35510407860786  1.45585438573857  0.37291990459046
 6 -7.50647954185419 -1.26197467256726 -0.35178557545755
 6  7.43356640634063  2.81574421162116  0.71147358435844
 6 -7.84561174937494 -2.67957796889689 -0.60803808140814
 6  6.20935483698370  0.75282967196720  0.14387654665467
 6 -6.20532914281428 -0.72823364596460 -0.29914202590259
 6  4.91213186388639  1.30335266716672  0.21785144414441
 6 -5.00603021482148 -1.50707668546855 -0.45767714931493
 6  3.69504821642164  0.71883944914491  0.04995694499450
 6 -3.71658704390439 -1.13664429712971 -0.29903234093409
 6  2.38140144154415  1.31257196489649  0.01620610851085
 6 -2.49111811121112 -1.89856491519152 -0.38537181728173
 6  2.26209058065807  2.81039040554055  0.14332870617062
 6 -2.61637218261826 -3.39433295979598 -0.74212556265627
 6  1.26727827632763  0.58780012161216 -0.09332441544154
 6 -1.29424759785979 -1.07042561456146 -0.39311801690169
 6  1.12020639283928 -0.90767571477148 -0.23724124382438
 6  0.00482102170217 -1.68981522132213 -0.36107986398640
 1  13.92698280408041 -0.05294286478648  0.43948199109911
 1  13.95397241104110 -0.05937431313131 -1.27091062946295
 1 -11.93968033303330  1.71977436763676  2.05691925672567
 1 -13.55566642424242  0.72146163846385  2.16183262136214
 1  14.09178980098010 -2.55072589028903 -0.33020646644664
 1  12.42193807550755 -2.00468436843684 -1.21077720102010
 1 -14.13024641284128  2.75184854485449  0.80990202780278
 1 -13.99857464126413  1.47703737793779 -0.51555557765777
 1  12.89983194699470 -2.09913241984198  1.64741662366237
 1  11.79889734423442 -3.26156984908491  0.65422227782778
 1 -11.74897468956896  3.66590431113111  0.03417993499350
 1 -12.49059527342734  3.02479598739874 -1.45819972117212
 1  11.90293366386639 -0.41895497279728 -2.77818595129513
 1  12.27753463416342  1.38182284358436 -2.78758533253325
 1  10.50848842014201  0.80391350305030 -2.24345506500650
 1  12.92189314341434  2.01864876677668  0.92943028352835
 1  11.70190859775978  2.60292020292029 -0.45256941394139
 1  13.13958581488149  2.32767303720372 -1.08748101920192
 1 -13.43684291499150 -0.72034604360436 -0.70696679737974
 1 -13.67156932953295 -1.39965576977698  0.86862408310831
 1 -12.41314891809181 -2.03059146404640 -0.28123400590059
 1 -10.71943443434344 -0.12816845624562  2.83906356545655
 1 -10.73189971537154 -1.55804680538054  1.71807582378238
 1 -12.08618268226823 -1.14024849274927  2.88723725182518
 1  10.15064847144714  1.90184504460446  0.76686259415942
 1 -10.20501494619462 -1.57138224822482 -0.54308068606861
 1  9.45336941444145 -0.97269486418642  2.43533729132913
 1  10.62462327642764 -2.05732193009301  2.71297272727273
 1  9.26837890509051 -2.51249109910991  1.47373699529953
 1 -9.20363739903990  1.35270758335834 -1.95312780968097
 1 -9.50257506240624  3.04399792179218 -1.00297034323432
 1 -10.43423368836884  2.37392239763976 -2.53768374167417
 1  8.54201979277928 -0.49338011821182 -0.02466941734173
 1 -8.25225862106211  0.74723891799180  0.11109745724573
 1  8.07922115421542  3.25219025492549  1.58801818431843
 1  6.41556343704370  3.19087679187919  0.97292987268727
 1  7.94890912861286  3.47764642664266  0.13116989408941
 1 -8.30343129532953 -2.89829688878888 -1.70230692429243
 1 -8.38106909520952 -3.12554574187419  0.14554069336934
 1 -6.98263281588159 -3.54045669696970 -0.43984286948695
 1  6.34550541504150 -0.23052827962796 -0.07747976467647
 1 -6.22579456405640  0.42126406490649 -0.26138641544154
 1  4.58484184148415  2.34647309140914  0.69106201300130
 1 -5.16625672597260 -2.52292580898090 -0.64563670477048
 1  3.72123238993899 -0.25896046594659 -0.08175853745375
 1 -3.49047667886789 -0.14342801290129 -0.04027589428943
 1  2.78144884428443  3.10691108720872  1.08527718301830
 1  1.30325752655266  3.19422015381538  0.53754348184818
 1  2.66416347514751  3.45258573207321 -0.59758372797280
 1 -3.07035890549055 -3.47669602550255 -1.71080609140914
 1 -3.26985859165917 -3.91984397729773 -0.07790313891389
 1 -1.74240521182118 -3.89669000340034 -0.60041226762676
 1  0.32447484828483  1.21374728992899 -0.52271162596260
 1 -1.51939302790279  0.02358034523452 -0.33792151825183
 1  2.15625416991699 -1.47051610131013 -0.20645020922092
 1  0.17674818561856 -2.77121216351635 -0.09570043094309

