%nproc=4
%Mem=2GB
# td=(NStates=1) B3LYP/6-31G(d,p) 

TD

0 1
 6  12.18617295989599  0.61633223372337 -0.69961608050805
 6 -12.02606492059206 -0.01370641224122  0.81552073097310
 6  13.45247466016602 -0.09810947094709 -0.63174917391739
 6 -13.04056055595560  1.14121851335134  1.20020073447345
 6  13.18358067226723 -1.63996966936694 -0.63728548734874
 6 -13.42734733083308  2.08486699879988 -0.01933156605661
 6  11.07638943284329  0.03568783328333  0.14520205800580
 6 -10.97419508730873  0.49888977127713 -0.16813444824482
 6  12.28810324772477 -2.08186048004801  0.47467144344434
 6 -12.14969485208521  2.63479378757876 -0.63474181008101
 6  11.01638134613461 -1.16775883038304  0.75119168756876
 6 -11.02340713491349  1.58015363716372 -0.91794066776678
 6  11.60410099779978  0.54236536163616 -2.22640111871187
 6  12.48655206860686  2.18577263236324 -0.30460197919792
 6 -12.98862645344535 -1.04533165186519  0.19626345624562
 6 -11.44714358235824 -0.48116128972897  2.11857000520052
 6  9.78773683628363  0.89953606720672  0.30776277677768
 6 -9.96829663656366 -0.53535607770777 -0.32519660746075
 6  10.21958613491349 -1.77261707340734  1.88678131303130
 6 -9.97967093729373  2.10511225032503 -1.82050351525153
 6  8.51376761646165  0.41434139033903  0.23239144534453
 6 -8.59820277867787 -0.38245811111111 -0.22698902180218
 6  7.43956252445245  1.29788858915892  0.36875948854885
 6 -7.50905979987999 -1.28642711781178 -0.40308070497050
 6  7.65959900960096  2.72672530973097  0.82660509750975
 6 -7.87242443064306 -2.67207721882188 -0.41424870247025
 6  6.17449135063506  0.74045843484348  0.30270242924292
 6 -6.14324293419342 -0.87118794139414 -0.28570068176818
 6  4.87748839953995  1.30347267916792  0.53997365636564
 6 -4.99833944574458 -1.62552853065307 -0.34468585018502
 6  3.69045775737574  0.55134269946995  0.31150309960996
 6 -3.75291067626763 -1.15070570327033 -0.36746918461846
 6  2.35758906030603  1.14459516721672  0.33417790569057
 6 -2.45320431983198 -1.87702276097610 -0.39531281138114
 6  2.21646601820182  2.53069243574357  0.84366874017402
 6 -2.54958550395040 -3.36024955145515 -0.53882523262326
 6  1.26466801530153  0.39707104870487  0.08688360536054
 6 -1.37388556165617 -1.15183375537554 -0.13765247034703
 6  1.06625099729973 -0.93397834503450 -0.07683520322032
 6 -0.10661012141214 -1.66771301110111 -0.21410516651665
 1  13.90798090389039  0.23335576507651  0.20609865276528
 1  13.91786880068007  0.17627925222522 -1.53327686608661
 1 -12.24366073107311  1.96383877407741  2.00822438723872
 1 -13.90561141874188  0.82252174447445  1.93309974807481
 1  14.32835345734574 -2.16207702540254 -0.55489893569357
 1  12.87805368706871 -2.10028392839284 -1.60509663296330
 1 -13.98304169236924  3.18122148214821  0.35082612021202
 1 -13.93439822362236  1.50989066326633 -0.77386140824082
 1  13.04390635443544 -1.98708121472147  1.35685756775678
 1  11.92383983848385 -2.95547924002400  0.37306416201620
 1 -11.59716950905091  3.52378009870987 -0.04879836283628
 1 -12.48284449834984  3.24584809260926 -1.65206910811081
 1  11.48402177267727 -0.42453553085309 -2.49907804050405
 1  12.18183506420642  1.06054071537154 -2.95274184818482
 1  10.60933850515051  1.08996210791079 -2.36836755625563
 1  12.67914886898690  2.09770667256726  0.81532887338734
 1  11.46075448234823  2.68366827772777 -0.63884804180418
 1  13.29037089338934  2.48904917481748 -0.94845711681168
 1 -13.56311554225423 -0.65188919791979 -0.67867396809681
 1 -13.92904507710771 -1.23890969516952  0.56847406810681
 1 -12.43634123732373 -2.09222762766277 -0.00810669316932
 1 -10.96274876577658  0.30534489508951  2.62711237033703
 1 -10.63710023542354 -1.30592159285929  2.07670168636864
 1 -12.11217528152815 -0.72189665756576  2.85661418951895
 1  9.88225163176318  1.97745260536054  0.47234314221422
 1 -10.29354379907991 -1.54946005600560 -0.46458283628363
 1  9.49104318181818 -0.98772636733673  2.27251100870087
 1  10.74705551965197 -2.06837303520352  2.70435186518652
 1  9.59924199139914 -2.50100995099510  1.48473809540954
 1 -9.25720275557556  1.32091440404040 -2.28629112601260
 1 -9.37619242414241  2.89825334733473 -1.30508055425543
 1 -10.46810707570757  2.41791679707971 -2.65056502980298
 1  8.39513510431043 -0.54551533173317 -0.06664361476148
 1 -8.33680707590759  0.73376757085709 -0.10602425492549
 1  8.24613784588459  2.71884692059206  1.92514189668967
 1  6.90719259996000  3.52048975317532  0.66485906560656
 1  8.40358459615962  3.28630729272927  0.18618539563956
 1 -8.65926687888789 -3.08025508460846 -1.25163185678568
 1 -8.63821480978098 -3.04007719501950  0.46134227352735
 1 -7.18331288388839 -3.42461511281128 -0.70533941914191
 1  5.73450431493149 -0.46337156395640 -0.00923293999400
 1 -6.04771675627563  0.24305624412441 -0.22884316111611
 1  4.66518987628763  2.22630107420742  1.09277218401840
 1 -5.24894499479948 -2.75458897529753 -0.36512865396540
 1  3.65997626432643 -0.36163073297330 -0.26734709630963
 1 -3.49701733293329 -0.02129579967997 -0.16933880058006
 1  2.65063576297630  2.73298369446945  1.85168382368237
 1  1.03415061586159  2.87949868166817  0.82106183368337
 1  2.65736279507951  3.27775824932493  0.03205923632363
 1 -2.99847171677168 -3.73045140104010 -1.61909692049205
 1 -3.21099270507051 -3.91832382528253  0.06239089048905
 1 -1.54740571187119 -3.93543387778778 -0.18122034843484
 1  0.24741714251425  0.90999691489149  0.08857950315032
 1 -1.55270635923592  0.05106309350935  0.10183245714571
 1  2.00918946344634 -1.74801385108511 -0.07818738293829
 1  0.12883339413941 -2.73125816811681 -0.35870673157316

