%nproc=4
%Mem=2GB
# td=(NStates=1) B3LYP/6-31G(d,p) 

TD

0 1
 6  12.24361870447045  0.52204280478048 -0.63233935283528
 6 -12.08999131323132 -0.03911895349535  0.76754593349335
 6  13.44452386508651 -0.35430509050905 -0.63448944794479
 6 -13.03161966186619  1.12908730023002  1.24008472287229
 6  13.20964327852785 -1.84182985538554 -0.63630538933893
 6 -13.55146974307431  2.01832034413441 -0.01175080798080
 6  11.12001379527953 -0.00227596309631  0.29576711451145
 6 -11.06571423922392  0.34594447674767 -0.13985161996200
 6  12.44228866626663 -2.18159045304530  0.54648862516252
 6 -12.25618550115012  2.64844515271527 -0.57241557745775
 6  11.16746645464546 -1.28586064056406  0.82836940534053
 6 -11.11730652485248  1.66353197499750 -0.71280015371537
 6  11.70969155685569  0.69659078417842 -2.07123560216022
 6  12.54639805320532  1.97825188028803 -0.12753427242724
 6 -12.97961555235524 -1.14026114481448  0.09360319021902
 6 -11.67180604860486 -0.72819599319932  2.04691283948395
 6  9.89530759335934  0.83385949954996  0.34126612711271
 6 -9.80207001390139 -0.47724026612661 -0.17383147094709
 6  10.21376555285529 -1.89485929762976  1.84719735463546
 6 -10.12195516571657  2.02360409950995 -1.71690315521552
 6  8.55136137583758  0.50712066826683  0.22897110331033
 6 -8.48573153155315 -0.18127799309931 -0.12683900680068
 6  7.42927149534954  1.34565336563656  0.30033264586459
 6 -7.52407130103010 -1.28258673377338 -0.32790318721872
 6  7.64247729742974  2.83875651285129  0.47297973497350
 6 -7.90359754795480 -2.74593460456046 -0.55240251785179
 6  6.18446234773477  0.84188857785779  0.30789294829483
 6 -6.16743535343534 -0.94124494709471 -0.29843195489549
 6  4.86212686338634  1.45614794669467  0.29531919091909
 6 -5.00160977277728 -1.58846482428243 -0.43617499909991
 6  3.68690740234023  0.74118168336834  0.20728267756776
 6 -3.76746213141314 -1.04836546924692 -0.30311274897490
 6  2.36339964136414  1.30618132583258  0.29027351525153
 6 -2.56303530293029 -1.79841490019002 -0.32881616171617
 6  2.27925229682968  2.73340270677068  0.49794416771677
 6 -2.56418696409641 -3.30830435693569 -0.55643699379938
 6  1.15722727122712  0.55257659925993  0.18574349134913
 6 -1.33790196329633 -1.07340591259126 -0.16452515761576
 6  1.14505887808781 -0.85282022922292  0.01161364166417
 6 -0.05380484088409 -1.59043528332833 -0.23610736673667
 1  14.03432353815382 -0.17459503000300  0.29027707060706
 1  14.16735374917492  0.03014463876388 -1.38395193359336
 1 -12.43164952995299  1.86983937413741  1.81574513931393
 1 -13.80418127572757  0.66593608590859  1.72452889098910
 1  14.15684630663066 -2.42588340604060 -0.66262970877088
 1  12.71976785848585 -2.08432233223322 -1.59908603190319
 1 -14.12931631983198  2.76409976997700  0.33777481508151
 1 -13.98600338413841  1.31667134133413 -0.95430945304530
 1  13.10463242704270 -2.17661016761676  1.40477235923592
 1  12.03873132763276 -3.22863655575558  0.38843569916992
 1 -11.92426221832183  3.43400112081208  0.20458697569757
 1 -12.47505371927193  3.18564207200720 -1.60912481368137
 1  11.58556192669267 -0.28453153045305 -2.74992312501250
 1  12.27340422112211  1.25288995029503 -2.77986456045605
 1  10.74557212851285  1.06654976667667 -1.99553027252725
 1  12.49535048914892  1.98542544444444  0.97056439693969
 1  11.73830223712371  2.60479038993899 -0.57135129212921
 1  13.50915277157716  2.36666693659366 -0.52229450055005
 1 -13.44212344304430 -1.06681069006901 -0.98911501220122
 1 -13.90774294689469 -1.65137094129413  0.69056627732773
 1 -12.24457206040604 -1.93242164706471 -0.05577145964596
 1 -10.95346783768377 -0.09829546894689  2.83502316141614
 1 -10.95690221562156 -1.62872387308731  1.98488250445045
 1 -12.49404346834683 -1.06242070997100  2.76116464456446
 1  9.86921032763276  1.98708356845685  0.50587649554956
 1 -9.98490293499350 -1.58292340234023 -0.25329170717072
 1  9.37033111061106 -1.19311690639064  2.28361211881188
 1  10.76664747884788 -2.04473067096710  2.63187461746175
 1  9.55149721692169 -2.70576042604260  1.53325294689469
 1 -9.58368540384038  1.09194150675068 -2.05644814171417
 1 -9.27714251915191  2.66122964496450 -1.13917396359636
 1 -10.57470773577358  2.59905491089109 -2.59646962026203
 1  8.21360695149515 -0.59661044124412  0.07988103770377
 1 -8.09030242544254  0.71160535463546 -0.07246089858986
 1  7.89660289238924  2.81323635953595  1.60142952545255
 1  6.60728260896090  3.19110681488149  0.42886546624663
 1  8.15166940464047  3.32339100110011 -0.28706192909291
 1 -8.84331528372837 -2.75437249634964 -1.34661135473547
 1 -8.36979796809681 -3.23249643694369  0.40724686398640
 1 -7.01731628422842 -3.33628627992799 -1.01966085128513
 1  6.06398726322632 -0.36781200800080  0.45696367966797
 1 -6.06470845544554  0.20350228872887 -0.06318659545955
 1  4.80890424772477  2.52974141824182  0.21809471627163
 1 -5.18876897719772 -2.75623914031403 -0.57864000510051
 1  3.71956222292229 -0.22729729962996  0.08043768216822
 1 -3.62302993419342 -0.00866453655366 -0.24658652535254
 1  2.78736943634363  3.07456785288529  1.41558021332133
 1  1.14001120192019  3.20202093389339  0.82177190469047
 1  2.76302336113611  3.37861833533353 -0.18931290089009
 1 -3.15173704330433 -3.70466882278228 -1.38768377917792
 1 -3.03416502230223 -3.85286727962796  0.22274692609261
 1 -1.45318628992899 -3.61031136553655 -0.51347357375738
 1  0.15188758955896  1.13721963716372  0.10024066926693
 1 -1.40797188578858  0.00417840504050 -0.13912163826383
 1  2.17160570507051 -1.21174022372237 -0.21388095229523
 1  0.08641915271527 -2.59464450675068 -0.40741160206021

