%nproc=4
%Mem=2GB
# td=(NStates=1) B3LYP/6-31G(d,p) 

TD

0 1
 6  12.18273261586159  0.56727732823282 -0.72981910081008
 6 -12.14105641974197 -0.03902894449445  0.90139931883188
 6  13.40902031473147 -0.25777543754375 -0.64665066406641
 6 -13.06751325122512  1.27788217971797  1.27528824322432
 6  13.16089840404040 -1.69012468486849 -0.66753851265126
 6 -13.47804240034003  1.94895340744074  0.09706007310731
 6  11.06925871977198  0.04101836633663  0.25853339113911
 6 -11.06903457125713  0.41027090939094 -0.21266890169017
 6  12.27299173657366 -2.21478377237724  0.51456543284328
 6 -12.29640952355235  2.55822613081308 -0.72137047294729
 6  11.16393610161016 -1.23066512101210  0.77775434383438
 6 -11.15471026522652  1.60044566636664 -0.96898577227723
 6  11.56480706840684  0.59105023012301 -2.12603108170817
 6  12.59154256765677  1.97837189228923 -0.36633815281528
 6 -13.02847043784378 -1.11489860856086  0.27688151805181
 6 -11.40235910391039 -0.49007218081808  2.19795794399440
 6  9.89389745234524  0.95702181578158  0.46501850235024
 6 -9.95755556245624 -0.55107764986499 -0.35987007480748
 6  10.22715689198920 -1.82675248694869  1.79668230313031
 6 -10.07873084328433  1.91140287938794 -2.00486195109511
 6  8.54829106880688  0.52987294349435  0.09635784198420
 6 -8.55421838023802 -0.33545341064106 -0.26366268916892
 6  7.43540210841084  1.33638243854385  0.40555316791679
 6 -7.47426632053205 -1.21315979107911 -0.41910230713071
 6  7.48111116081608  2.78682131933193  0.92880531753175
 6 -7.88413560176018 -2.68896890799080 -0.53434071167117
 6  6.21508541004100  0.77583197219722  0.24303646264626
 6 -6.15985459535954 -0.84120494309431 -0.13980609230923
 6  4.91838248894889  1.34423675557556  0.45793545254525
 6 -5.00561017281728 -1.55831180898090 -0.23438482008201
 6  3.76740545214521  0.62542010721072  0.26345829512951
 6 -3.77602298749875 -1.08792942564256 -0.19359179687969
 6  2.43240654205421  1.26789749744975  0.35906039393939
 6 -2.56480547994799 -1.87863292199220 -0.36742002210221
 6  2.30778515011501  2.67227659415942  0.74911928522852
 6 -2.59030957635764 -3.30622414891489 -0.80982233233323
 6  1.29234078257826  0.45185652725273  0.12719763676368
 6 -1.38595676877688 -1.17378595059506 -0.15643434853485
 6  1.20368474067407 -0.92947789498950 -0.03145066476648
 6  0.02296283588359 -1.59614585438544 -0.06774053005301
 1  14.03350345614562  0.09854228372837  0.35504354725472
 1  13.93337035083508 -0.08423679937994 -1.52434597299730
 1 -12.63243960896090  2.08475086528653  1.92751631643164
 1 -13.77738859645965  0.62135162746275  1.92831927002700
 1  14.13285390739074 -2.38970978867887 -0.69758320412041
 1  12.74992087378738 -1.96777067706771 -1.56901302460246
 1 -14.04443783198320  2.90056341634163  0.25523656125613
 1 -13.92820760456046  1.46353602780278 -0.58451247334734
 1  12.83909587338734 -2.31167367396740  1.29303118511851
 1  11.72244969946995 -3.19071276337634  0.06600345594559
 1 -11.94348414051405  3.46949467016702 -0.27974145714571
 1 -12.62440865476548  2.93017652545255 -1.79664356555656
 1  11.14657802830283 -0.39637271457146 -2.65985411811181
 1  12.21643852455245  0.86682134343434 -3.06337291129113
 1  10.77213478477848  1.40114322602260 -2.19017973747375
 1  12.99055000910091  2.29217611951195  0.72184952545255
 1  11.59127753465346  2.65573548444845 -0.49187334433443
 1  13.33149500580058  2.42565283518352 -0.94695696679668
 1 -13.79774900560056 -0.74627863686369 -0.49278537923792
 1 -13.75990816341634 -1.55722152635263  0.91800902160216
 1 -12.51380898409841 -1.98945735063506 -0.40750663316332
 1 -10.66215870677068  0.21389575017502  2.46630628972897
 1 -11.03892041744174 -1.42210321102110  2.13221723792379
 1 -12.08510257425742 -0.61800626852685  2.98323685178518
 1  10.18514192079208  1.82941780188019  1.05851175907591
 1 -10.43429787448745 -1.58722383238324 -0.38083446144614
 1  9.46048012551255 -1.13366096079608  2.14759851745174
 1  10.72812362646265 -2.24338053595360  2.66772820282028
 1  9.50661272847285 -2.62738258825883  1.45871549314931
 1 -9.58633566886689  0.92994530713071 -2.19126162306231
 1 -9.36703150805081  2.75822934493449 -1.89132917911791
 1 -10.51738200320032  2.21323632903290 -3.06302627592759
 1  8.46357194799480 -0.42398317851785 -0.29032598299830
 1 -8.21893528872887  0.65648984308431  0.07768411591159
 1  8.25507873997400  2.89269430533053  1.58609799229923
 1  6.43919580028003  3.17161486568657  1.30748332803280
 1  7.85468970667067  3.35298396039604  0.01488826592659
 1 -8.38658961116112 -2.91334839393939 -1.66125281888189
 1 -8.34968595689569 -2.82162534983498  0.30558669796980
 1 -7.05775032763276 -3.33114576587659 -0.78572745794579
 1  6.21257212171217 -0.43908913571357  0.11401938523852
 1 -6.13909589418942  0.30209214771477  0.07600732393239
 1  4.90652400970097  2.50308875297530  0.58454136093609
 1 -5.12507260756076 -2.56167968436844 -0.51147328842884
 1  3.70877114381438 -0.40875544544454  0.00323996239624
 1 -3.55555318651865 -0.09165283538354  0.02553068636864
 1  2.57475817521752  2.76622701880188  1.92271092639264
 1  1.39503670447045  2.84423515531553  0.68321804930493
 1  2.88261532033203  3.51183165666567  0.18168419881988
 1 -3.08872074167417 -3.37990634653465 -1.87004201500150
 1 -2.99891149694969 -4.01429342224222 -0.08192354095410
 1 -1.61201217251725 -3.49893022742274 -1.06483871027103
 1  0.39846224702470  1.06632254745475  0.11260190539054
 1 -1.48505959455946 -0.05904791759176  0.00187246114611
 1  2.15222376687669 -1.55693474317432 -0.14288385258526
 1  0.13456396719672 -2.67893293559356 -0.42607346824682

