%nproc=4
%Mem=2GB
# td=(NStates=1) B3LYP/6-31G(d,p) 

TD

0 1
 6  12.13744808740874  0.47715831633163 -0.78372449134913
 6 -12.08666098019802 -0.01200624222422  0.84879405830583
 6  13.37431684438444 -0.51201086108611 -0.67059305830583
 6 -12.98333483338334  1.09856424792479  1.35159587398740
 6  12.96313862806281 -1.96748242064206 -0.56673843264326
 6 -13.39379397549755  2.00312882498250  0.21425179227923
 6  10.96524831873187 -0.02989872537254  0.16268380618062
 6 -11.02711037883788  0.33186306860686 -0.09390702550255
 6  12.12202664006401 -2.27388968296830  0.69173314961496
 6 -12.15663554615461  2.48234854305431 -0.56511484738474
 6  11.06329603760376 -1.17272932743274  0.90743731213121
 6 -11.07743253745375  1.56155177697770 -0.76176505020502
 6  11.59176976467647  0.49684080918092 -2.20990946954695
 6  12.60656406980698  1.87413146824682 -0.39607112611261
 6 -13.01661925272527 -1.15780289898990  0.14952878277828
 6 -11.46390525852585 -0.79049222282228  2.13784193239324
 6  9.95067312991299  0.88097421102110  0.42151415191519
 6 -9.88931873877388 -0.62852539463946 -0.31982607040704
 6  10.02807698399840 -1.64975478717872  2.01101373627363
 6 -10.02756572677268  2.05780751985198 -1.72215368026803
 6  8.58405464516452  0.50934089028903  0.42061026722672
 6 -8.56281924032403 -0.36046591189119 -0.25845216811681
 6  7.49812838103810  1.43076187648765  0.46571918451845
 6 -7.51314020792079 -1.44798327342734 -0.46165656255626
 6  7.67692074177418  2.97554019121912  0.71014345134513
 6 -7.82241943014301 -2.71849186028603 -0.78156543414341
 6  6.21905580708071  0.84770915991599  0.41635379437944
 6 -6.26696530643064 -0.90533135573557 -0.26358847054705
 6  4.93937458815882  1.48208053995400  0.38886854585459
 6 -4.96628624042404 -1.65769174697470 -0.43973535513551
 6  3.76607531913191  0.74427199239924  0.22011396069607
 6 -3.75758114331433 -0.97658829152915 -0.27395983368337
 6  2.34764806620662  1.37731843954395  0.22047653555356
 6 -2.55083408280828 -1.69112417111711 -0.42598587868787
 6  2.28439281088109  2.86634600110011  0.42464683798380
 6 -2.53003354875488 -3.22679620612061 -0.66795814591459
 6  1.28488003650365  0.62900424202420  0.06930184718472
 6 -1.36101427452745 -0.92745131713171 -0.29623832893289
 6  1.10351472367237 -0.73260820802080 -0.03662118181818
 6 -0.01938139853985 -1.43208944874487 -0.21844560056006
 1  14.02379248504850 -0.28770634113411  0.18815685858586
 1  13.97515452925293 -0.45299367506751 -1.59002254065407
 1 -12.36384274927493  1.58940133033303  1.99335290009001
 1 -13.96734759235924  0.73315280758076  1.70096653475348
 1  13.97185780778078 -2.43478429612961 -0.59760320612061
 1  12.44283016471647 -2.28001190119012 -1.45037116041604
 1 -14.09859324752475  2.82015537553755  0.53205424302430
 1 -14.03631841564157  1.23892356655666 -0.34020804290429
 1  12.67469943374338 -2.16687919451945  1.50365224722472
 1  11.65196265076508 -3.34437812991299  0.66126298189819
 1 -11.87016680878088  3.39123684438444  0.04122063906391
 1 -12.34250046394640  3.18574208200820 -1.40094399559956
 1  11.37622099259926 -0.50367344464446 -2.64370250295030
 1  12.34670155085509  0.87472213351335 -2.76439301330133
 1  10.68882645394539  1.08011112281228 -2.44736545604560
 1  13.02808376247625  1.83063996589659  0.65649298979898
 1  11.70099850675068  2.43663357425743 -0.40312446944694
 1  13.36819867616762  2.18557882778278 -1.08200047114711
 1 -13.45044427512751 -0.66605061406141 -0.55916201690169
 1 -13.74142631523152 -1.63491929612961  0.99512673337334
 1 -12.48545614881488 -2.08778718361836 -0.33896977947795
 1 -10.67436992789279 -0.13076871627163  2.64814447354735
 1 -10.93364989038904 -1.60673167386739  1.88865288148815
 1 -12.26431049504951 -1.16323079097910  2.70598912701270
 1  10.15180858745875  1.91692655275528  0.48360426832683
 1 -10.29290373507351 -1.61967707770777 -0.20835721372137
 1  9.37375145264527 -0.94849244394439  2.44045780338034
 1  10.64250506460646 -1.98959515741574  2.74522595259526
 1  9.61105317251725 -2.56305615561556  1.75560518211821
 1 -9.41774881018102  1.24121643424342 -1.80125262216222
 1 -9.35517032193219  2.96042956495650 -1.50651069726973
 1 -10.42646291129113  2.31632663806381 -2.84868484178418
 1  8.33695928672867 -0.65644642484248  0.42937598719872
 1 -8.17664105930593  0.64383857795780 -0.16795044754475
 1  8.26920015211521  2.88311334723472  1.69611899439944
 1  6.67939982068207  3.42629033323332  0.82831541124112
 1  8.40861509920992  3.20438910091009 -0.04178740164016
 1 -8.40804175637564 -2.78439549864986 -1.53133982758276
 1 -8.19128011631163 -3.28221140844084  0.16653279257926
 1 -6.96412096469647 -3.25218787008701 -1.12377126232623
 1  6.25584644914491 -0.24001922872287  0.05314329762976
 1 -6.07230921552155  0.06858879737974 -0.03129340614061
 1  4.82360571787179  2.66752519661966  0.53148605540554
 1 -4.71767186748675 -2.85935945234523 -0.67567970907091
 1  3.82370263696370 -0.32177674757476  0.12419205760576
 1 -3.68302593379338  0.13160949084908  0.02048018131813
 1  2.99153985338534  3.04754515061506  1.25154380968097
 1  1.15140234103410  3.15520625242524  0.54377410491049
 1  2.58087514631463  3.52015248874888 -0.49993396299630
 1 -2.72734460406041 -3.46897525342534 -1.89943495429543
 1 -3.45339694549455 -3.74655664856486 -0.11433678227823
 1 -1.57492846414642 -3.74057439183918 -0.61239346574657
 1  0.46446884768477  1.24011992719272  0.19054970017002
 1 -1.47163825242524  0.01156914411441  0.04246652055206
 1  2.04898344284428 -1.24469351905191 -0.22279184338434
 1  0.19859036983698 -2.39114415671567 -0.61529239013901

