%nproc=4
%Mem=2GB
# td=(NStates=1) B3LYP/6-31G(d,p) 

TD

0 1
 6  12.19426376897690  0.65865646614661 -0.65593171207121
 6 -12.13866618071807  0.00180513891389  0.78900807970797
 6  13.44668408110811 -0.05043470347035 -0.48658465746575
 6 -12.93863036293629  1.21871626312631  1.26431714611461
 6  13.29873218741874 -1.54348002040204 -0.65936769556956
 6 -13.38635323142314  2.15463397549755  0.10065043214321
 6  11.09178097199720 -0.00576631213121  0.13954149194919
 6 -10.99659732753275  0.48826870917092 -0.18845648044804
 6  12.31424586198620 -2.16192848684868  0.46434041034103
 6 -12.10568045064506  2.65404571277128 -0.69843817971797
 6  11.07466717471747 -1.24582663716372  0.69082565096510
 6 -11.06301109530953  1.62656827862786 -0.90865973967397
 6  11.80903149084909  0.74348547364736 -2.09946842544254
 6  12.49928334173417  2.09502355745575 -0.19287080608061
 6 -12.94398198899890 -1.06472359105911  0.08188201810181
 6 -11.63322219021902 -0.62280545414541  2.02409055725573
 6  9.85327338993899  0.75480159375938  0.36591859235924
 6 -9.84362416931693 -0.60670321242124 -0.37355144294429
 6  10.05880005630563 -2.07460727242724  1.64342697759776
 6 -9.95321829202920  2.05794753385339 -1.92857432233223
 6  8.57789402910291  0.41235119131913  0.01916012221222
 6 -8.47685064346435 -0.36168603390339 -0.23299962286229
 6  7.35427399559956  1.28556735703570  0.38326093869387
 6 -7.51173006690669 -1.31177965306531 -0.23364376127613
 6  7.50277332703270  2.70372300950095  0.70645308230823
 6 -7.76135332353235 -2.83435344644464 -0.22587986558656
 6  6.13607750925093  0.66207059605961  0.29605176417642
 6 -6.18662727262726 -0.93703452605261 -0.29624173587359
 6  4.84528517921792  1.32976530843084  0.38754841384138
 6 -5.06597620942094 -1.68067404520452 -0.20667204880488
 6  3.65645435703570  0.65603316851685  0.43932588188819
 6 -3.80604598979898 -1.10613124582458 -0.13582602030203
 6  2.31703500490049  1.21902260996100  0.37365185308531
 6 -2.59861886128613 -1.74910996969697 -0.22942622272227
 6  2.22552692429243  2.74264363086309  0.54062843614361
 6 -2.49993053845385 -3.29341286778678 -0.63699504960496
 6  1.13137468596860  0.48226956855686  0.19977489448945
 6 -1.33749192229223 -1.11775034703470 -0.11898060316032
 6  1.04595896809681 -0.93049799699970  0.02914539483948
 6 -0.08248770917092 -1.74284052385239 -0.34405816181618
 1  13.91331143694370  0.06141857135714  0.60194823772377
 1  14.15010202400240  0.40138176247625 -1.05788932733273
 1 -12.40999736473647  2.11215360556056  1.94435800060006
 1 -13.98254911251125  0.79263875617562  1.81753819191919
 1  14.17124774677468 -2.19037985568557 -0.53885733153315
 1  12.75302118381838 -1.92676657665767 -1.61848797209721
 1 -13.92480586878688  3.19245260526053  0.25050608820882
 1 -13.93896868066807  1.55911558575858 -0.46802082418242
 1  12.97788975277528 -2.20901340794079  1.32979486148615
 1  12.05684313881388 -3.08278197029703  0.32103895949595
 1 -11.77499729182918  3.43753147384738  0.02542905990599
 1 -12.17362357625763  3.19491299909991 -1.63252715391539
 1  11.62277564806481 -0.27647072437244 -2.66718485118512
 1  12.39732661336134  1.61401606290629 -2.69787636163616
 1  10.77920549184918  1.16328944064406 -2.43740445994599
 1  12.70340129422942  2.23475037693769  0.91747908840884
 1  11.58695710261026  2.79989990089009 -0.48563272027203
 1  13.14175603190319  2.60587085698570 -0.63862613371337
 1 -13.34450368106811 -0.73362737173717 -0.99923602430243
 1 -13.93605577817782 -1.35099090329033  0.67826504720472
 1 -12.26855445864587 -1.95270367526753 -0.10323620612061
 1 -11.13364585548555  0.23698805940594  2.68867852695270
 1 -10.96405293069307 -1.59407040774077  1.87436145234523
 1 -12.50342440644064 -0.83935840374037  2.71030955905591
 1  10.03042644924492  1.81472633273327  0.65033094099410
 1 -10.38428287298730 -1.67337244724472 -0.35875225322532
 1  9.07655173267327 -1.52980057475748  1.85457921552155
 1  10.59277009110911 -2.64306050395040  2.37155858585859
 1  9.56597866506651 -2.86971682168217  1.09014863646365
 1 -9.49419645494549  1.20594290689069 -2.46366886378638
 1 -9.54718952385238  2.89591311331133 -1.22535258145815
 1 -10.45034529952995  2.48049305470547 -2.75537551085109
 1  8.20968655945595 -0.53331411161116 -0.09058600900090
 1 -8.11367476267627  0.66643083718372 -0.29514316681668
 1  8.07186041814182  2.89626466236624  1.67918730123012
 1  6.68533041374137  3.48192589678968  0.55091767146715
 1  8.25784002170217  3.15613427542754  0.07167394449445
 1 -8.21222217441744 -3.24651171027103 -1.24224091769177
 1 -8.52450343864386 -3.03563675097510  0.65188132743274
 1 -7.01821637423742 -3.50881353265327 -0.09097798299830
 1  6.22706357085709 -0.33707893469347 -0.09294131083108
 1 -6.00036202080208  0.29856179467947 -0.22457273407341
 1  4.79430278757876  2.45566401050105  0.48893179998000
 1 -5.10476057635764 -2.69883339973997  0.02137999689969
 1  3.88634890159016 -0.35916048594859  0.15043468186819
 1 -3.52881051225123  0.11153748364836 -0.40277214391439
 1  2.54819551895190  2.93708410451045  1.67170582588259
 1  1.08419562036204  3.13218395019502  0.15774550205020
 1  2.92410946974698  3.30115058855886 -0.25281925152515
 1 -3.24631650125013 -3.46336469236924 -1.55445045584558
 1 -2.88409001480148 -3.98511050395039  0.34175882728273
 1 -1.39539051035104 -3.49403973837384 -0.74479670607061
 1  0.13012541334133  0.97356327152715  0.03104374957496
 1 -1.45775686428643 -0.04732674547455 -0.05508323442344
 1  1.96410495499550 -1.48353740344034 -0.06134569876988
 1  0.32586309710971 -2.88777381968197 -0.77194805570557

