%nproc=4
%Mem=2GB
# td=(NStates=1) B3LYP/6-31G(d,p) 

TD

0 1
 6  12.16021036363636  0.54556515701570 -0.71964808370837
 6 -12.08069038313831 -0.04417945954595  0.98262744164416
 6  13.48544795749575 -0.35849550955095 -0.58554455345535
 6 -13.09792629252925  1.08329272077208  1.26091680608061
 6  13.14293660786079 -1.79646531893189 -0.70762252105211
 6 -13.46635123122312  1.97425593769377  0.10542090919092
 6  11.05944773867387  0.05280954545455  0.15163270107011
 6 -10.99466713451345  0.46056593889389 -0.05962359715972
 6  12.24529896729673 -2.18629092309231  0.52000597689769
 6 -12.13825370797080  2.70338064626463 -0.48163649954995
 6  11.08709841784178 -1.13154520902090  0.84727129552955
 6 -11.13247804200420  1.61432705450545 -0.83825269896990
 6  11.71366195389539  0.42211333643364 -2.16232471107111
 6  12.52702611601160  1.95990004510451 -0.32839435843584
 6 -12.93604119491949 -1.16686380508051  0.20777460736074
 6 -11.38045691369137 -0.52327550115012  2.20399854805481
 6  9.84763282588259  0.89206532013201  0.37055905640564
 6 -9.82687249414941 -0.49483202530253 -0.32433652145215
 6  10.17642181848185 -1.73467327902790  1.89519215411541
 6 -10.11669463966397  2.00147188628863 -1.95113657855786
 6  8.53688992869287  0.52171212741274  0.37235544174417
 6 -8.50339329772977 -0.30278014331433 -0.48007433033303
 6  7.38614718291829  1.32570137043704  0.37205981858186
 6 -7.45472436633663 -1.26496497159716 -0.54550494739474
 6  7.50881393109311  2.90643328052805  0.72677511451145
 6 -7.89375656385639 -2.74472448354835 -0.70038731633163
 6  6.12919682118212  0.75270965996600  0.34682684168417
 6 -6.23654226412641 -0.87306812941294 -0.32406451815182
 6  4.87802845354535  1.45195752765277  0.34585424442444
 6 -4.98799841164116 -1.68882486028603 -0.35613699529953
 6  3.66726543814381  0.75902346754675  0.24188613791379
 6 -3.77834321952195 -1.13395402810281 -0.15203764146415
 6  2.33672697409741  1.29721042874287  0.32053654155416
 6 -2.48661766116612 -1.81136619531953 -0.28471175127513
 6  2.16111048264827  2.70635000150015  0.60326469976998
 6 -2.62228277367737 -3.30078360486049 -0.70277162726273
 6  1.26722827132713  0.52998434003400  0.20183510051005
 6 -1.33297147024702 -1.15170374237424 -0.21398010311031
 6  1.15130950315032 -0.85584053125313 -0.05672319201920
 6  0.01804234383438 -1.69397563736374 -0.17560131613161
 1  14.01966207200720 -0.12460003050305  0.42937097999800
 1  14.13079009280928 -0.03049142484248 -1.42760629902990
 1 -12.71476784178418  1.86442883308331  2.12874643944394
 1 -13.96514737233723  0.52153164546455  1.76125256335634
 1  14.10714133613361 -2.34950576827683 -0.51903534933493
 1  12.63743962566257 -1.96365026502650 -1.67459358265827
 1 -14.17322071027103  2.78437179717972  0.55669670727073
 1 -13.87132191599160  1.39388906310631 -0.67356137823782
 1  12.85974793859386 -2.58884139073907  1.47639952195220
 1  11.64761221572157 -3.02505619771977  0.23626048164816
 1 -11.66409620172017  3.35912363306331  0.27950446744674
 1 -12.46239245314531  3.15819932773277 -1.36126002720272
 1  12.09489285978598 -0.69598267556756 -2.60446857955796
 1  12.31277815851585  1.26219088038804 -2.73448002200220
 1  10.62023959525952  0.64589770147015 -2.33432415191519
 1  12.49645059915992  2.11044794669467  0.77625496599660
 1  11.83739214611461  2.69826973787379 -0.80204436143614
 1  13.56380823712371  1.90919118901890 -0.82377464856486
 1 -13.30375960666067 -0.82153616261626 -0.83197929862986
 1 -13.63264543714372 -1.28397420162016  0.89986720742074
 1 -12.20362796599660 -2.14688309320932 -0.07185306780678
 1 -10.94991748264827  0.24964932553255  2.68657831693169
 1 -10.47413393879388 -1.08885988668867  1.77287130333033
 1 -12.17733179717972 -1.22590705860586  2.78261678977898
 1  10.12794620122012  1.96332119221922  0.46958286618662
 1 -9.90515496019602 -1.61508661866187 -0.33362974097410
 1  9.51036511401140 -0.85651324602460  2.12007576517652
 1  10.88036885098510 -1.85888208610861  2.97759918991899
 1  9.54766683388339 -2.73994384438444  1.65368499009901
 1 -9.26615365066507  1.40610292289229 -2.28042053895389
 1 -9.65377018191819  2.94651817381738 -1.59192923912391
 1 -10.60294055905591  2.48439344474447 -2.68940891419142
 1  8.09830542134213 -0.51190197039704  0.31703475307531
 1 -8.02815621082108  0.76573076717672 -0.44366801930193
 1  8.24296752885289  3.10796583248325  1.65304468696870
 1  6.58911079177918  3.35639334353435  1.16885946564656
 1  7.73287752545255  3.53108177017702 -0.19682290519052
 1 -8.61739269146915 -3.02804986408641 -1.46889358295830
 1 -8.36945793409341 -3.24472766006601  0.31868800810081
 1 -7.13444799739974 -3.46041869316932 -0.88616750195019
 1  6.18611947644764 -0.31355658245825  0.04325230853085
 1 -6.06123810841084  0.22226416491649 -0.30987126392639
 1  4.96430978827883  2.43645208930893  0.68683158995900
 1 -5.03091319161916 -2.87876139253925 -0.39922206330633
 1  3.72411267796780 -0.37604217411741  0.17002664106411
 1 -3.65284291549155 -0.07039070917092  0.09871800510051
 1  2.48954965436544  2.92876327242724  1.72704135943594
 1  1.12325952675267  3.17207793959396  0.65913564106411
 1  2.76584364316432  3.36851732523252  0.02565859625963
 1 -2.95718758835884 -3.28253660956096 -1.68321333213321
 1 -3.04237584338434 -4.12775476837684 -0.06986233483348
 1 -1.63751472277228 -3.80220055445545 -0.71700392679268
 1  0.14907730853085  0.88597451265127  0.19291993719372
 1 -1.55529661826183  0.04263225042504 -0.03966169226923
 1  2.17773631813181 -1.60509955965597 -0.02154171837184
 1  0.45596610741074 -2.67153219551955 -0.24724558545855

