%nproc=4
%Mem=2GB
# td=(NStates=1) B3LYP/6-31G(d,p) 

TD

0 1
 6  12.19718406100610  0.60941154165417 -0.57752387128713
 6 -12.06916923102310  0.03640859925993  0.92233141204120
 6  13.48133754645465 -0.13260292029203 -0.34272027102710
 6 -12.94534103400340  1.21936632813281  1.44463517791779
 6  13.30602291649165 -1.72958863126313 -0.36733849264927
 6 -13.39456405250525  2.16294480658066  0.29012938003800
 6  10.99301109500950  0.01544580908091  0.27782532033203
 6 -10.98009567736774  0.39967985028503 -0.04358199299930
 6  12.42607704510451 -2.02316461046105  0.84589856615662
 6 -12.12454233683368  2.68235854405441 -0.48904724062406
 6  11.16330603860386 -1.16417847234723  0.96170273867387
 6 -11.07249204340434  1.62081770357036 -0.80708958265827
 6  11.73399398709871  0.60829195429543 -2.01206968556856
 6  12.46810022342234  2.03573762886289 -0.29881140014001
 6 -13.15690328112811 -1.03422054075408  0.35390922082208
 6 -11.45819468746875 -0.63789696329633  2.25145329352935
 6  9.84469253185319  0.77103321692169  0.34865686618662
 6 -9.93153296019602 -0.51032357445745 -0.26217030483048
 6  10.07048122442244 -1.78274808650865  1.83893652855286
 6 -10.07765073527353  1.91691343044304 -1.90825229012901
 6  8.48886512621262  0.40595055125513  0.17653585978598
 6 -8.53011596999700 -0.31699156445645 -0.25241156405641
 6  7.36890545874587  1.35883468376838  0.27636024862486
 6 -7.55698459235924 -1.44818329342934 -0.28159855675568
 6  7.59091214091409  2.71572420962096  0.65696813381338
 6 -7.98666585478548 -2.87038704980498 -0.52604988258826
 6  6.15477937943794  0.70799518851885  0.19391155015502
 6 -6.31003961386139 -0.97944876747675 -0.25954806650665
 6  4.93076372707271  1.32137446934693  0.35569522852285
 6 -5.08461807360736 -1.77362334013401 -0.43794517611761
 6  3.70059877147715  0.66757432263226  0.06617856715672
 6 -3.83568895409541 -1.09079971267127 -0.57114955265527
 6  2.43494679607961  1.22021272897290  0.20119460736074
 6 -2.50123912331233 -1.75975103380338 -0.53283656375638
 6  2.30118449004901  2.73913327982798  0.46165053835384
 6 -2.66318686408641 -3.28019154565457 -0.80738208830883
 6  1.24364591309131  0.49657099869987 -0.03119820282028
 6 -1.35483365646565 -1.10550912291229 -0.37802650775078
 6  1.14396876907691 -0.90353530073007 -0.40329784948495
 6  0.04187472707271 -1.54806104590459 -0.47944170017002
 1  13.89241934773477 -0.08619619011901  0.62744078697870
 1  14.13132014581458  0.24881650595060 -1.09402294069407
 1 -12.23315968096809  2.14734712491249  1.99814337913791
 1 -13.69989084668467  0.91079057135714  2.29583602170217
 1  14.37939856185619 -2.09917073477348 -0.48800224602460
 1  12.96171205290529 -1.96315021502150 -1.37665378867887
 1 -13.93240662886289  2.98336169616962  0.84891592919292
 1 -14.07252203600360  1.73733340754075 -0.25246926902690
 1  12.94018598239824 -2.08760126672667  1.91621350335034
 1  12.27376483098310 -3.05687938003800  0.74226108170817
 1 -11.69890968306831  3.51210893159316  0.25211172817282
 1 -12.57082329622962  3.22839634743474 -1.24546844804480
 1  11.95101847234723 -0.51968504580458 -2.44528266096610
 1  12.18918579927993  1.26528118941894 -2.70252682668267
 1  10.59302687398740  0.76807991969197 -2.15354607410741
 1  12.88436939103910  2.23787068896890  0.76027336783678
 1  11.65251365826583  2.67454736563656 -0.32259641664166
 1  13.14580643694369  2.25986625652565 -1.11887415851585
 1 -13.65486471717172 -0.44481849084908 -0.63401950265027
 1 -13.72897507010701 -1.36820262446245  1.22726994769477
 1 -12.64128173137314 -1.85699410431043 -0.46386226872687
 1 -10.60396288718872 -0.08793443284328  2.78270792989299
 1 -11.07536406180618 -1.78497949864987  2.03384740094009
 1 -12.32331639563956 -0.89705417331733  3.01943047114711
 1  10.04173758035804  1.87269212931293  0.40786669456946
 1 -10.03051749644964 -1.52552766276628 -0.10538691669167
 1  9.42143622112211 -1.07912550725072  2.29845360296030
 1  10.69920073417342 -2.16851304920492  2.58062949294930
 1  9.51869393659366 -2.52145199519952  1.27303692529253
 1 -9.52199923522352  0.99669198179818 -2.39920241714171
 1 -9.23116792169217  2.69631315331533 -1.67969801600160
 1 -10.61338160316032  2.30283528892889 -2.93239321262126
 1  8.25256084688469 -0.58591937213721  0.12794584418442
 1 -7.98018141334133  0.65840003410341 -0.04474812731273
 1  8.45804903700370  2.74940997689769  1.51886126862686
 1  6.59969184988499  3.20652835703570  1.04060664036404
 1  8.17259149684969  3.16020468246825 -0.21813503640364
 1 -8.92165311751175 -2.88354541364136 -1.25049174277428
 1 -8.47737872617262 -3.31715490279028  0.29462560186019
 1 -6.94049860246025 -3.30251290259026 -0.94138302350235
 1  6.35399626412641 -0.42648787558756  0.02454043734373
 1 -6.13367535213521  0.12193413191319 -0.31162143894389
 1  4.94319767706771  2.44089253335334  0.68214112091209
 1 -4.98254835513551 -2.82652616901690 -0.59132127322732
 1  4.12951321802180 -0.34026859675968 -0.16512687428743
 1 -3.96262389358936 -0.01871554165417 -0.24963683038304
 1  2.75872657205721  2.84272466856686  1.37485614091409
 1  1.24949215001500  3.09374010581058  0.51986171367137
 1  2.78831589038904  3.36137661116112 -0.28179214881488
 1 -3.34721659125913 -3.32284063996400 -1.69355436623662
 1 -3.01520312611261 -3.95367736063606 -0.02662801140114
 1 -1.59533050435044 -3.62402273667367 -1.30325255165517
 1  0.42078447924793  1.09397531273127  0.04332497769777
 1 -1.25645673427343 -0.07775978877888  0.06432870677068
 1  1.98817736223622 -1.58822787248725 -0.39284884908491
 1  0.10594110491049 -2.60649569186919 -0.49118997989799

