%nproc=4
%Mem=2GB
# td=(NStates=1) B3LYP/6-31G(d,p) 

TD

0 1
 6  12.03407775037504  0.40192079257926 -1.02039815871587
 6 -12.05583789788979 -0.13278832043204  0.74886406530653
 6  13.34986439913991 -0.49150881088109 -0.87364336333633
 6 -12.95602210211021  0.97351174267427  1.25205591999200
 6  12.89663197739774 -2.02381805420542 -0.71989374817482
 6 -13.44502909900990  1.86563507560756  0.00003037013701
 6  10.98232002590259 -0.10975671117112  0.20404794259426
 6 -10.97167483528353  0.33629351165117 -0.20391802660266
 6  12.16908134553455 -2.24719701370137  0.55333931023102
 6 -12.12543242584258  2.58767907610761 -0.64999333523352
 6  11.13200290829083 -1.23887594209421  0.88664523292329
 6 -11.07483227742774  1.52565818761876 -0.89132800650065
 6  11.50948153585359  0.35940706580658 -2.46534501310131
 6  12.49273268666867  1.86737079217922 -0.58368988798880
 6 -12.92028961976198 -1.26509362806281  0.13458728862886
 6 -11.52776164416442 -0.66676985058506  2.03785193339334
 6  9.83335139773977  0.80843695729573  0.49414141464146
 6 -9.90655046194619 -0.59038158025803 -0.40774486228623
 6  10.12898707500750 -1.59107891959196  2.00906354125413
 6 -9.95573854405441  2.14503624272427 -1.88738020292029
 6  8.54519075877588  0.55877583378338  0.24325253145315
 6 -8.58628158655866 -0.36749661496150 -0.30398672157216
 6  7.41652022022202  1.40936973727373  0.43988660126013
 6 -7.41960085398540 -1.32839131423142 -0.44514491139114
 6  7.67551060076008  2.85879851705170  0.77087952495250
 6 -7.70490767896790 -2.76265627672767 -0.89202648024802
 6  6.16470037153715  0.88441283028303  0.24862702170217
 6 -6.12151076097610 -0.87238806140614 -0.25526763846385
 6  4.90290094079408  1.49322165406541  0.51328098709871
 6 -4.94285389718972 -1.55368134593459 -0.41358273987399
 6  3.66944565616562  0.83761132633263  0.44875682498250
 6 -3.72908829402940 -1.04567520022002 -0.08275071277128
 6  2.39661296269627  1.37095780348035  0.57277176507651
 6 -2.48976797619762 -1.73452851155116 -0.16931021112111
 6  2.28048241984198  2.89537890439044  0.96001037433743
 6 -2.45107565296530 -3.19506303280328 -0.54581593169317
 6  1.24736628512851  0.66530787238724  0.38580349734973
 6 -1.35708388148815 -0.95248382038204  0.04234552945295
 6  1.13024739693969 -0.69952489968997  0.04282676297630
 6 -0.03443290369037 -1.39465570537054 -0.10606436243624
 1  13.70151025682568 -0.02716028652865 -0.05414737183718
 1  13.90409742354236 -0.30614899059906 -1.79294283268327
 1 -12.28361472647265  1.61727411761176  1.88924248904891
 1 -13.78474933253325  0.61556104840484  1.71472791089109
 1  13.70778140014001 -2.76272709040904 -0.75976942274227
 1  12.22654853655366 -2.28307220722072 -1.53788991229123
 1 -13.96143953215322  2.72364572457246  0.42830386798680
 1 -14.10118490229023  1.55958563276328 -0.76979100120012
 1  13.06098806260626 -2.10929343594359  1.34611649364937
 1  11.61602905740574 -3.35592928502850  0.74077093269327
 1 -11.74755454755476  3.32046976767677 -0.07989147214721
 1 -12.55456167006701  3.20411391919192 -1.64528843004300
 1  11.28111148164816 -0.66028910621062 -2.68366649934994
 1  12.26828370907091  0.83407806910691 -3.15817239123912
 1  10.67390496179618  0.95138825052505 -2.70343106260626
 1  12.99969092319232  2.02488939083908  0.34687202770277
 1  11.52388079497950  2.67131704260426 -0.55841999899990
 1  13.18798065436544  2.24663493339334 -1.21412368346835
 1 -13.55714494519452 -0.78246225522552 -0.68166426712671
 1 -13.72408458105810 -1.71518732293229  0.73276049674968
 1 -12.25847345054506 -2.00728913381338 -0.14949083158316
 1 -11.04550704160416  0.14606896749675  2.62221188028803
 1 -10.86696322172217 -1.48490949164916  1.63754777097710
 1 -12.48639270327033 -1.03797826572657  2.68974750285028
 1  10.06140954755476  1.82412727282728  0.79827573547355
 1 -10.31874631933193 -1.62892800280028 -0.78848522652265
 1  9.73514759225923 -0.84766236093609  2.47824158175818
 1  10.55232604670467 -2.21364756265627  2.79675110511051
 1  9.34955702290229 -2.06026587658766  1.54635425702570
 1 -9.46382341764176  1.23230554315432 -2.25113761066107
 1 -9.29901470637064  2.70274379637964 -1.39032907910791
 1 -10.78556882188219  2.78562356775678 -2.59811978527853
 1  8.24978056885689 -0.37720850105010 -0.05140209060906
 1 -8.06779017421742  0.74422861696170  0.01467781528153
 1  8.06904013611361  3.00443547944794  1.86385576807681
 1  6.76184806550655  3.28871657585759  1.03884646434644
 1  8.30637487518752  3.31489015101510  0.03826060316032
 1 -8.16208716091609 -2.76697375647565 -1.90438713231323
 1 -8.48294928322832 -3.07482066936694 -0.23281714241424
 1 -6.73546809940994 -3.48990164146415 -0.78102698789879
 1  6.00280114461446 -0.11782700950095 -0.26320833753375
 1 -6.21356334093409  0.13334527302730  0.05114483768377
 1  4.74121747904791  2.54550299439944  0.68696160296030
 1 -4.89269937023702 -2.60099361576158 -0.95427756885689
 1  3.65015528222822 -0.22938750865086  0.10034967336734
 1 -3.79552718391839 -0.02442611271127  0.12339047234723
 1  2.90660135953595  3.23169356545655  1.77124577987799
 1  1.36214341514151  3.34810554235424  1.44827455495550
 1  2.72773983278328  3.68368884238424  0.07194322472247
 1 -2.89157102670267 -3.53702205810581 -1.49602461326133
 1 -2.93688529432943 -3.80330232313231  0.18284293569357
 1 -1.41671264256426 -3.44769510391039 -0.26965919231923
 1  0.32850525132513  1.25275119031903  0.45479612481248
 1 -1.44659574817482  0.16085407260726  0.14144641854185
 1  2.06703524802480 -1.05876492619262 -0.20132969716972
 1 -0.00942043124312 -2.54521956425643 -0.26059692059206

