%nproc=4
%Mem=2GB
# td=(NStates=1) B3LYP/6-31G(d,p) 

TD

0 1
 6  12.18067240984098  0.54473507400740 -0.69832595149515
 6 -12.08965127922792 -0.10351539313931  0.90621980088009
 6  13.44125353805381 -0.34677433743374 -0.75474147314731
 6 -12.96884338423842  1.09509390089009  1.42638335273527
 6  13.23190550475048 -1.83121879427943 -0.66294805360536
 6 -13.38202279837984  2.03276178827883  0.26526689378938
 6  11.02509430333033 -0.05252098759876  0.29668720652065
 6 -11.10404807260726  0.37939782208221 -0.17872550735074
 6  12.41475591299130 -2.09343163716372  0.56774075037504
 6 -12.16346622922292  2.61785209340934 -0.49683801970197
 6  11.13096280428043 -1.12612466696670  0.97768433683368
 6 -11.10766556075608  1.57330295209521 -0.92084095779578
 6  11.69978056575658  0.58188931403140 -2.07272575117512
 6  12.61744515791579  1.93028708380838 -0.17627914691469
 6 -13.04616220702070 -1.10344746344634  0.30294412431243
 6 -11.40913978197820 -0.74137731133113  2.11413956215622
 6  9.87210527312731  0.89350546414641  0.31997399789979
 6 -9.90341014791479 -0.53738628072807 -0.36071015881588
 6  10.06962113841384 -1.79101891359136  1.83003563846385
 6 -10.18636160636064  1.94305604470447 -2.07788925382538
 6  8.54420065976598  0.45037499369937  0.34496270247025
 6 -8.60956391479148 -0.27479734503450 -0.49774609750975
 6  7.40879944814481  1.27377617791779  0.41840445304530
 6 -7.54463335723572 -1.24965344044404 -0.47879827672767
 6  7.63419646934693  2.72590522772277  0.65109754675468
 6 -7.93602079027903 -2.71298130923092 -0.59761703930393
 6  6.20387428892889  0.80305469446945  0.31334349334933
 6 -6.20368897879788 -0.80987180978098 -0.45204731643164
 6  4.82358300900090  1.39966229812981  0.41353101210121
 6 -5.07899751155116 -1.55369134693469 -0.50097147874787
 6  3.71309002060206  0.78934649984998  0.19958190749075
 6 -3.80726611181118 -1.03097373007301 -0.21740417811781
 6  2.46446974837484  1.26031673937394  0.34460894879488
 6 -2.52182118151815 -1.69797485618562 -0.29201248134813
 6  2.33834820642064  2.81049041554155  0.72738711201120
 6 -2.56514706010601 -3.25979950645065 -0.25600695079508
 6  1.26607815631563  0.57308865046505  0.17190210721072
 6 -1.36642481558156 -1.05366393839384 -0.28269697479748
 6  1.13730810301030 -0.86115106230623 -0.16114363406341
 6 -0.05420488088809 -1.58586482628263 -0.45402915891589
 1  14.30936104190419 -0.09130670117012  0.00143818671867
 1  13.92991000480048 -0.23317169286929 -1.78241177957796
 1 -12.36856322132213  1.66789918011801  2.19451301610161
 1 -13.88454931253125  0.69494898719872  1.76407284538454
 1  14.19375999799980 -2.35802662036204 -0.75128857465747
 1  12.56507238893889 -2.15116901690169 -1.73161928522852
 1 -14.23934732293229  2.55902926292629  0.66352739033903
 1 -13.94444922872287  1.28593826802680 -0.47862188428843
 1  12.97902986678668 -2.17768027462746  1.48209009100910
 1  11.83642109660966 -3.16069976207621  0.66549340494049
 1 -11.75600539263926  3.31026874757476  0.11892840984098
 1 -12.71068728262826  3.08518202600260 -1.39718361956196
 1  11.36848021852185 -0.33858693599360 -2.53224135683568
 1  12.55129200990099  0.80048470977098 -2.87141371537154
 1  11.02220979227923  1.20569368106811 -2.17168788828883
 1  13.09395034913491  2.19545644754476  0.92556989748975
 1  11.88182658955895  2.65038494939494 -0.25481963896390
 1  13.57938979527953  2.54686495639564 -0.91851412251225
 1 -13.55905513621362 -0.66020002900290 -0.59685578627863
 1 -13.72086425902590 -1.54115992019202  0.91685890659066
 1 -12.31160876407641 -1.98251665656566  0.02454657215722
 1 -10.51524401530153 -0.08579421882188  2.37740739983998
 1 -10.83656018141814 -1.67385838653865  2.01580559675968
 1 -12.11433549754975 -0.78671313921392  3.08887741584158
 1  10.09749315591559  2.00090495059506  0.27201310921092
 1 -9.97899234393439 -1.56937204720472 -0.25435181318132
 1  9.24934901240124 -1.09065666036604  2.10024378197820
 1  10.65134594869487 -2.12895909380938  2.76745817581758
 1  9.69890195739574 -2.60081993199320  1.31988160976098
 1 -9.56779381468147  1.26905921852185 -2.45768826572657
 1 -9.57768257315731  2.95475899789979 -1.92688273447345
 1 -10.72275254025403  2.11307631303130 -3.01560153345335
 1  8.45946153695369 -0.69159994019402  0.27195024462446
 1 -8.42176557175718  0.82481667576758 -0.16828048054805
 1  7.89222245434543  2.88102313821382  1.77090647314731
 1  6.59058093879388  3.22880058425843  0.51379395909591
 1  8.55731996969697  3.07447610961096  0.04255103220322
 1 -8.50366131833183 -3.07215427452745 -1.49759645324532
 1 -8.59194018231823 -3.14883807110711  0.21804794409441
 1 -7.09997455005501 -3.35610826212621 -0.42892177737774
 1  5.98331919641964 -0.18047327412741  0.03453143644364
 1 -6.18724070867087  0.37576951545155 -0.42287256405641
 1  4.79571292859286  2.41401984608461  0.64353726052605
 1 -4.98358845914591 -2.62664618101810 -0.76267840894089
 1  3.92397266396640 -0.36870144004400 -0.12480284188419
 1 -3.95976360756076  0.03624995489549  0.03462159545955
 1  2.87954865426543  3.12546294239424  1.59977863316332
 1  1.33134033483348  3.07756848864887  0.91261098859886
 1  2.68888594739474  3.15311578507851 -0.24828879847985
 1 -2.93135500510051 -3.80008836473647 -1.31621663246325
 1 -3.26804841064106 -3.58451044394439  0.64648930033003
 1 -1.64905587688769 -3.70096043044304 -0.28054028042804
 1  0.19049144994500  1.07424333953395  0.29998064326433
 1 -1.51275236383638  0.01994998219822 -0.29532725882588
 1  2.13143168766877 -1.38963801350135 -0.09255882008201
 1  0.09444995579558 -2.67100214251425 -0.35201606250625

