%nproc=4
%Mem=2GB
# td=(NStates=1) B3LYP/6-31G(d,p) 

TD

0 1
 6  12.12681702430243  0.53597419791979 -0.58306442534253
 6 -12.13073538763876 -0.10760580218022  0.82007118601860
 6  13.48066747944794 -0.24346400640064 -0.44315031403140
 6 -13.10705720562056  1.06113050455046  1.28930964536454
 6  13.36731904610461 -1.78045371777178 -0.37243900270027
 6 -13.42439703580358  2.05410392249225  0.24596496359636
 6  11.07247904180418 -0.08245398089809  0.26259379717972
 6 -11.05154282208221  0.36091597389739 -0.08147578237824
 6  12.54908934633463 -2.04272656665667  0.77931190749075
 6 -12.14485436803680  2.58817912611261 -0.29332766866687
 6  11.27455716371637 -1.19589164366437  0.95513208160816
 6 -11.01625641984198  1.61790741254125 -0.64084295799580
 6  11.63454404210421  0.41183230833083 -2.09589806840684
 6  12.36481989538954  2.00930498559856 -0.34744626362636
 6 -13.07635522632263 -1.23796091479148  0.32396622652265
 6 -11.43949281728173 -0.72498567216722  2.16297444564456
 6  9.85827388998900  0.77293340694069  0.36226822732273
 6 -10.01332113901390 -0.68663120522052 -0.35371945974597
 6  10.29996417271727 -1.79536934863486  1.90693332823282
 6 -10.07094006420642  2.08294003310331 -1.64411587648765
 6  8.62478871857186  0.31430138633863  0.33373157935794
 6 -8.66159911831183 -0.38430829612961 -0.34087040994099
 6  7.44771333953395  1.14797359765977  0.49438205080508
 6 -7.57423631753175 -1.29498797389739 -0.38733913081308
 6  7.71156420612061  2.63685632283228  0.82096453345335
 6 -7.88349553775378 -2.67275728682868 -0.59288656625663
 6  6.16622052355236  0.64613900290029  0.24556671567157
 6 -6.30222883278328 -0.88526934953495 -0.27972008370837
 6  4.95550620132013  1.32805513741374  0.28654831383138
 6 -5.12940255205521 -1.60172615041504 -0.39262064366437
 6  3.75456416801680  0.73357092229223  0.13421537083708
 6 -3.88461384658466 -0.96205683838384 -0.42392483018302
 6  2.44695799719972  1.41730243794379  0.08179266716672
 6 -2.61778077747775 -1.67937299599960 -0.56895017511751
 6  2.36976134773477  3.01358072457246  0.09628400170017
 6 -2.67611815721572 -3.28044157065707 -0.61274262436244
 6  1.26597814631463  0.77461880348035 -0.13443852685269
 6 -1.42956112921292 -0.99523809580958 -0.41427013211321
 6  1.10733510571057 -0.68411335853585 -0.31960948064806
 6 -0.06265572597260 -1.44372061186119 -0.51704546054605
 1  13.77463756955696  0.22439486898690  0.42857089999000
 1  14.08794580838084 -0.12855123082308 -1.34835837423742
 1 -12.56864322932293  1.57070946114611  2.08717228202820
 1 -13.91681253885389  0.58712820512051  1.82135857395740
 1  14.22640326232623 -2.35132595029503 -0.25886933273327
 1  12.79509539123912 -2.09940384038404 -1.33092921622162
 1 -14.18485187338734  2.92941630163016  0.57335837343734
 1 -14.01083586738674  1.41168084228423 -0.51515553765376
 1  13.11140310411041 -2.03319582618262  1.66132801480148
 1  12.09200665516552 -3.17898159025903  0.95798265386539
 1 -11.74905469756976  3.34969268996900  0.44665118211821
 1 -12.37247346124613  3.26342985078508 -1.08531243244324
 1  11.24309768026803 -0.63947702500250 -2.20268840154015
 1  12.46194307500750  0.85647030833083 -2.74337091109111
 1  10.85740331163116  1.20686379807981 -2.13351407090709
 1  12.56416737083708  2.28513541544154  0.70136747724772
 1  11.45376378327833  2.85911582248225 -0.51418557555756
 1  13.16666852315231  2.43539380928093 -0.91123339443944
 1 -13.61380061076108 -0.78719272827283 -0.62517861856186
 1 -13.51850402300230 -1.56041184538454  0.99502672337234
 1 -12.47655525872587 -2.22574097899790  0.08399251675168
 1 -10.74817730863086 -0.07603324272427  2.57850750985099
 1 -11.16270279567957 -1.72004300500050  1.98254227042704
 1 -12.41267533153315 -0.46152061996200  2.98349687778778
 1  9.98095150175017  1.96101096119612  0.48990489838984
 1 -10.31100554525453 -1.82594770477048 -0.70100647864787
 1  9.59866394389439 -1.08587618231823  2.34562832043204
 1  10.99537035113511 -2.03172937083708  3.00860229022902
 1  9.85804787198720 -2.67800765076508  1.45442506410641
 1 -9.30462749804980  1.33524583718372 -1.93799629652965
 1 -9.38602340724072  2.96376989898990 -1.34160420662066
 1 -10.53949421442144  2.29416442184218 -2.58344831813181
 1  8.50382597339734 -0.59682046224622  0.28770181978198
 1 -8.37074046924693  0.76811100520052 -0.17297094959496
 1  8.52204543664366  2.81101613751375  1.70535991849185
 1  6.78305018571857  3.07546525072507  0.88188076777678
 1  8.39926416411641  2.89985864786479 -0.09934315721572
 1 -8.60984193639364 -3.11713877297730 -1.34027072067207
 1 -8.33997498579858 -3.07070025732573  0.43744988428843
 1 -6.85857040964096 -3.28560121142114 -0.82023090829083
 1  6.03211407590759 -0.43633886068607  0.00159814311431
 1 -6.41285326992699  0.17466940544054  0.19023874707471
 1  4.93817717501750  2.40219866396640  0.77070997779778
 1 -5.39275937623762 -2.62121563796380 -0.67454959605961
 1  3.70040030673067 -0.48211278117812 -0.10159052065207
 1 -3.60791842304230  0.00244657455746 -0.11056292299230
 1  2.62766346574657  3.41645204130413  1.11343999929993
 1  1.17926512731273  3.07857858965897  0.07102683018302
 1  2.90595765456546  3.61998247174717 -0.80411438103810
 1 -2.88045991559156 -3.62270062596260 -1.63897890869087
 1 -3.16309791559156 -3.73463545644564  0.13764841624162
 1 -1.51481245254525 -3.54691502590259 -0.44624685108511
 1  0.28550095089509  1.39606552175217 -0.03769312411241
 1 -1.38262935153515  0.19246723392339 -0.27947567366737
 1  1.94103264776478 -1.33614266396640 -0.33734329852985
 1  0.04896540734073 -2.50493553585359 -0.54197505840584

