%nproc=4
%Mem=2GB
# td=(NStates=1) B3LYP/6-31G(d,p) 

TD

0 1
 6  12.14123846644664  0.39760036053605 -0.67926404530453
 6 -12.05388770287029 -0.12527756935694  1.00713989288929
 6  13.41854126682668 -0.47716737673767 -0.76951295029503
 6 -13.07999449934993  1.05382977447745  1.43275398979898
 6  13.03182549674967 -1.96945261766177 -0.59839159795980
 6 -13.55494009010901  1.81780029212921  0.22058242534253
 6  11.02579437333733  0.10669493399340  0.43308084588459
 6 -11.00172784058406  0.45761564386439 -0.00719835463546
 6  12.35270970837084 -2.17745003900390  0.77485146144614
 6 -12.37272715531553  2.48080838903890 -0.54332266816682
 6  11.23061276927693 -1.08939099359936  1.05358192659266
 6 -11.15265005920592  1.69807542934293 -0.71863073677368
 6  11.35825641334134  0.22454357945795 -2.02225070367037
 6  12.76438985238524  1.81534558965897 -0.46560807980798
 6 -12.95101269206921 -1.27746486518652  0.29777360726073
 6 -11.44602347034703 -0.68442161576158  2.21756990519052
 6  9.93779184178418  0.97571368496850  0.55486748724872
 6 -9.86213602050205 -0.52272481458146 -0.23130721852185
 6  10.22313648994899 -1.63379319101910  2.12446508140814
 6 -10.17601057125713  2.10912265136514 -1.78415988088809
 6  8.60585682538254  0.59788974517452  0.22951115731573
 6 -8.53758671707171 -0.27212707800780 -0.33086940984098
 6  7.39448801700170  1.42259105940594  0.35704831743174
 6 -7.38877777167717 -1.29958843394339 -0.53271366826683
 6  7.57534058375838  2.90758339553955  0.60838327532753
 6 -7.88997618581858 -2.64527453855386 -0.76166344394439
 6  6.20383428492849  0.84233862286229  0.30887304630463
 6 -6.15747435733573 -0.78396921952195 -0.43956606830683
 6  4.89764041474147  1.47349968186819  0.35799545854585
 6 -5.02455206700670 -1.59028500630063 -0.53900528212821
 6  3.73350206180618  0.81541910711071  0.04389633893389
 6 -3.76250163536354 -1.03901453415342 -0.49329176687669
 6  2.39328262966297  1.31907261496150  0.33712820072007
 6 -2.45100409980998 -1.73205826452645 -0.44448772887289
 6  2.28233260486049  2.83388275477548  0.52425679897990
 6 -2.50039058445845 -3.28177170367037 -0.90302165226523
 6  1.30259180768077  0.57842918451845  0.10540545754575
 6 -1.27088526162616 -1.04970354235424 -0.24673337843784
 6  1.17197156935694 -0.85068001520152 -0.09444696439644
 6  0.02660319991999 -1.52897913771377 -0.27068082408241
 1  14.11572167796780 -0.37964553505351  0.03225126802680
 1  13.90084709850985 -0.39316769246925 -1.75682922132213
 1 -12.52281864686469  1.73478586878688  1.99690325512551
 1 -13.95378623622362  0.69589908220822  1.91994843294329
 1  14.00317093909391 -2.56371718941894 -0.56321976777678
 1  12.28185406710671 -2.42462636263626 -1.40432655595560
 1 -14.25850923912391  2.74191755175518  0.11867290489049
 1 -13.87133191699170  1.17926760096010 -0.43340736283628
 1  12.96678864266427 -2.28381088768877  1.68710059205921
 1  11.73494094859486 -3.13174686678668  0.69886674227423
 1 -12.07391718381838  3.21156887758776  0.14669118611861
 1 -12.56336255015502  3.06172968076808 -1.47878177937794
 1  11.06912028252825 -0.80462353965397 -2.23983211591159
 1  11.81053793449345  0.53594825612561 -2.95645221922192
 1  10.39139671097110  0.79939305100510 -1.99108982848285
 1  13.53141409550955  1.74290119201920  0.50039738023802
 1  11.79004741164116  2.59542945384538 -0.31556571357136
 1  13.37529938623862  2.35692596249625 -1.29201147224722
 1 -13.48139737043704 -0.84784879387939 -0.62824892559256
 1 -13.80868304090409 -1.41555735993599  0.91220844154415
 1 -12.47092469566957 -2.12389079397940  0.10745486298630
 1 -11.13358584948495  0.18144250485049  2.77213687278728
 1 -10.73025955135514 -1.46529753045305  2.25696971317132
 1 -12.23406747074707 -1.21273574147415  2.96509503760376
 1  10.15060846744674  1.99667452755276  0.75914182208221
 1 -10.23288773347335 -1.63920903090309 -0.41238761676168
 1  9.31479555705571 -1.03523111781178  2.58064182178218
 1  10.76023683778378 -1.92529872777278  3.05301673167317
 1  9.65415748294830 -2.80807065706571  1.73095271687169
 1 -9.27131416671667  1.31933424602460 -1.98054055095510
 1 -9.70217502240224  3.00216373837384 -1.37874792099210
 1 -10.69891015601560  2.51780678607861 -2.77217719101910
 1  8.40896648744874 -0.45818659885989 -0.03325027542754
 1 -8.25449884508451  0.74189838393839 -0.07592124462446
 1  8.13591682378238  2.95731076697670  1.49781916441644
 1  6.64436631733173  3.67045474967497  0.78010058975898
 1  8.12732697039704  3.35116377837784 -0.16229945284528
 1 -8.65424637683769 -2.57253431253125 -1.52889958355836
 1 -8.21651263956396 -3.10131331863186  0.17533367266727
 1 -7.13014756735674 -3.52736538783878 -1.39778866406641
 1  5.89542040654065 -0.14967019381938  0.12488047134713
 1 -6.01632361696169  0.25411735023502 -0.23822409920992
 1  4.94094745204520  2.41137958205821  0.78846175297530
 1 -5.24959505980598 -2.59180269666967 -0.92111425252525
 1  3.81612187888789 -0.16957152705270 -0.39990035163516
 1 -3.76604423562356  0.04020034993499 -0.41120298699870
 1  2.91497219661966  3.34497489358936  1.44451310661066
 1  1.15989319011901  3.11937266906691  0.73567329482948
 1  2.66506356515652  3.43939441294129 -0.41471544114411
 1 -3.11995386498650 -3.14288264416442 -1.81967697849785
 1 -3.20810241604160 -3.83710570347035 -0.30564591319132
 1 -1.42599357065707 -3.60260059445945 -1.00135236163616
 1  0.37464986578658  1.15716163136314  0.26512715791579
 1 -1.40565165376538  0.02151013821382  0.02438471237124
 1  2.02520106460646 -1.51107015671567 -0.26252581678168
 1  0.01627213801380 -2.66698174047405 -0.58847970887089

