%nproc=4
%Mem=2GB
# td=(NStates=1) B3LYP/6-31G(d,p) 

TD

0 1
 6  12.08683302590259  0.66008660916092 -0.74894101300130
 6 -12.02459477357736  0.02638759715972  0.80730990989099
 6  13.43403281598160 -0.25877553755376 -0.55795179417942
 6 -12.99974647454746  1.18028241974197  1.32917363176318
 6  13.01737405160516 -1.67757342974297 -0.60611237003700
 6 -13.39205380148015  2.04389290139014  0.10033040014001
 6  11.05896769066907  0.06315057955796  0.37051458925893
 6 -10.96645431323132  0.51257113941394 -0.12633026782678
 6  12.32637707510751 -2.09273156715672  0.66649062536254
 6 -12.08157804040404  2.69136944514451 -0.51093942984298
 6  11.30668037603760 -1.16313836833683  1.03050961936194
 6 -10.89194398859886  1.70789641144114 -0.68810768446845
 6  11.62217280498050  0.78669979507951 -2.09730820942094
 6  12.57905131853185  2.11900595569557 -0.26212773177318
 6 -12.91122871367137 -1.11300841954195  0.23393722362236
 6 -11.41578044604460 -0.48733190679068  2.18778692689269
 6  9.79013707630763  0.91755786938694  0.49322132263226
 6 -9.96046585348535 -0.54852739483948 -0.28202229002900
 6  10.34029820612061 -1.69109892159216  2.07863049794980
 6 -9.90527349754976  2.22639437853785 -1.81168263316332
 6  8.58991523122312  0.48360831703170  0.22994120032003
 6 -8.62096505490549 -0.41438130343034 -0.15346166906691
 6  7.37493606180618  1.30672947324732  0.29724233683368
 6 -7.58684757865787 -1.26981545664566 -0.32207260416042
 6  7.56473952365237  2.80578321552155  0.63364580158016
 6 -7.86162335053505 -2.73963397449745 -0.66529380698070
 6  6.11908581008101  0.66099048804880  0.15311747074707
 6 -6.31248985888589 -0.86590741334133 -0.15060717241724
 6  4.88647929862986  1.36629896179618  0.28226788578858
 6 -5.13864347614761 -1.63143912171217 -0.42555393699370
 6  3.69440815241524  0.56117368256826  0.17246919621962
 6 -3.83303868906891 -1.19522015471547 -0.46002844054405
 6  2.33812711411141  0.99773048074807  0.28599308720872
 6 -2.55905490489049 -1.91834689338934 -0.56188946904690
 6  2.20638501010101  2.61320068656866  0.46487086038604
 6 -2.63496404180418 -3.43751727822782 -0.70217156725673
 6  1.30294184268427  0.30308164976498  0.21243616061606
 6 -1.37359553265327 -1.16849542154215 -0.31907061216122
 6  1.07011138333833 -1.04314926212621 -0.23934145384538
 6 -0.11152061246125 -1.74773101290129 -0.31504526052605
 1  13.91072117791779 -0.00867843834383  0.36022406530653
 1  14.06577359115912 -0.11068944464446 -1.44135767416742
 1 -12.62437880288029  1.80387277747775  1.97978154295430
 1 -13.82295315291529  0.73642313461346  1.80507694579458
 1  13.75150577257726 -2.38534935263526 -0.62678612441244
 1  12.53008889058906 -1.90430433043304 -1.47679380268027
 1 -14.09054244244424  2.88836219621962  0.29313035063506
 1 -13.95320010381038  1.47238691289129 -0.70553457555756
 1  13.02790475427543 -2.12990549714972  1.37628951095110
 1  11.76568402290229 -3.09246293839384  0.53300015561556
 1 -11.73910370247025  3.49041676237624  0.39490600760076
 1 -12.15417163106311  3.16415992379238 -1.62490639183918
 1  11.31826519701970 -0.20595367266727 -2.50776890959096
 1  12.24851173187319  1.20831549284928 -3.00326690069007
 1  10.66333390469047  1.35918903060306 -2.10346106560656
 1  13.09267022112211  2.18863576547655  0.67342468296830
 1  11.82872127902790  2.88287819871987 -0.43914807180718
 1  13.47611946824683  2.20088035793579 -0.91796406750675
 1 -13.35919515021502 -0.73557756675668 -0.68710481118112
 1 -13.56957913051305 -1.63615942014201  1.00987820852085
 1 -12.22453005620562 -2.04627303220322 -0.10877676017602
 1 -10.90852334323432  0.33497785838584  2.82212187128713
 1 -10.56228275367537 -1.21024202490249  2.06366038223822
 1 -12.14925898989899 -0.79501396929693  2.84303283138314
 1  9.97689109570957  1.89985484558456  0.55672158005801
 1 -10.65047949264926 -1.47142225222522 -0.40203658165817
 1  9.60410448794880 -0.89805740044004  2.40952471007101
 1  10.87927874197420 -1.96940313821382  2.83508493849385
 1  9.50343241044104 -2.33225307530753  1.74765438703870
 1 -9.28946598189819  1.33004531713171 -2.11791428832883
 1 -9.37754255915591  3.10859438143814 -1.33871391759176
 1 -10.55355562056206  2.54156916231623 -2.70397037033703
 1  8.27252284308431 -0.42130291049105  0.10106315591559
 1 -8.04389778497850  0.43346754085409  0.20409675717572
 1  7.78566179827983  2.84021905780578  1.65776515901590
 1  6.69237111781178  3.30873857805781  0.51050363006301
 1  8.21101533923392  3.32749141114111 -0.18336155905591
 1 -8.48296924912491 -2.72119917901790 -1.47487418101810
 1 -8.56202719101910 -3.27258044534453  0.04759089838984
 1 -6.93398795139514 -3.29263191449145 -0.78275716091609
 1  6.23272413691369 -0.40495572237224 -0.10374239093909
 1 -6.22339432403240  0.20994293279328 -0.01419169596960
 1  4.81982533983398  2.42021046514651  0.36002890969097
 1 -5.39622972327233 -2.66249976637664 -0.63937607870787
 1  3.89243951065107 -0.49551412131213  0.17581722012201
 1 -3.56504413561356 -0.06959062916292 -0.33941580828083
 1  2.78884958435844  3.05781617771777  1.28027668296830
 1  1.25147234803480  2.95149588138814  0.65733546104611
 1  2.60220727952795  3.16997747124712 -0.43407737733773
 1 -3.21251312091209 -3.80462881878188 -1.50736574737474
 1 -3.14700630643064 -3.99745173807381  0.11107575897590
 1 -1.60492146344634 -3.85669600400040 -0.80122234863486
 1  0.34307670847085  1.07367328252825  0.35607625282528
 1 -1.50031111971197 -0.01069308210821 -0.23531125722572
 1  2.03150169466947 -1.66572562226223 -0.27059662386239
 1  0.15339585038504 -2.85522056435644 -0.22209307020702

