%nproc=4
%Mem=2GB
# td=(NStates=1) B3LYP/6-31G(d,p) 

TD

0 1
 6  12.11285562816282  0.60154075457546 -0.71977809670967
 6 -12.27260957505751 -0.06727176877688  0.71660083898390
 6  13.36768618131813 -0.39615927592759 -0.68572457145715
 6 -13.18649514941494  1.11001539303930  1.14699541394139
 6  12.97758007220722 -1.85332100450045 -0.63393515231523
 6 -13.55119971607161  1.89995850795080 -0.17685731863186
 6  10.93825561946195  0.02849711421142  0.24046158395840
 6 -11.01088875667567  0.38181806410641 -0.14980261506151
 6  12.23586802420242 -2.24364665866587  0.61345532183218
 6 -12.19033891649165  2.57062737093709 -0.49120745664566
 6  11.04551425942594 -1.20399245374537  0.79314588298830
 6 -10.95829062326233  1.58032365416542 -0.70409928362836
 6  11.50948153585359  0.57212833793379 -2.15074355295530
 6  12.65896931033103  1.98385244034403 -0.20771229022902
 6 -13.00793838463846 -1.22480959965997 -0.13758992909291
 6 -11.73521238923892 -0.76391956555656  2.05589373757376
 6  9.81320938353836  0.90231634523452  0.39818181868187
 6 -9.87076688358836 -0.46972951505151 -0.29344343214321
 6  10.04776895319532 -1.66928674037404  1.90249288418842
 6 -9.76468943914391  2.19546128522852 -1.50021148604860
 6  8.55419165886589  0.45505546174617  0.15987419361936
 6 -8.57313027142714 -0.29288915421542 -0.08207453035304
 6  7.35985455365537  1.27882668296830  0.28774138673867
 6 -7.48181707560756 -1.30851932703270 -0.25096549344934
 6  7.61897494719472  2.71458409560956  0.53903634063406
 6 -7.82772996119612 -2.69473948504850 -0.49857713531353
 6  6.25262916441644  0.75203959295930  0.19792195119512
 6 -6.15488409830983 -0.82934375697570 -0.10108221992199
 6  4.96429708040804  1.38488081998200  0.30052971197120
 6 -5.01946155795580 -1.65084106190619 -0.34826620822082
 6  3.76985569716972  0.66089365456546  0.21824377367737
 6 -3.77566295149515 -1.12996362906291 -0.19950238793879
 6  2.47943124452445  1.33013372107211  0.22927741564156
 6 -2.47178617801780 -1.81565662436244 -0.25970925102510
 6  2.41775614721472  2.77325669216922  0.58556292959296
 6 -2.45354589999000 -3.21251477797780 -0.62735408550855
 6  1.30819236773677  0.62652399399940  0.22934785178518
 6 -1.29535770887089 -1.02453102510251 -0.11170987608761
 6  1.10821519371937 -0.75501044824482 -0.08208572827283
 6  0.05794633423342 -1.49429566936694 -0.22884664066407
 1  13.85469557535754 -0.08835640614061  0.45270331323132
 1  14.09044605840584 -0.17245562126213 -1.41685522392239
 1 -12.78473483848385  1.62539492969297  2.02112567736774
 1 -14.19730058765877  0.56104559685969  1.39744618271827
 1  14.00865148714872 -2.42016283398340 -0.69154260006001
 1  12.25968184988499 -1.95710961096110 -1.49368549184918
 1 -14.35612900110011  2.62187554755476  0.05596663426343
 1 -13.80205498929893  1.13169284348435 -1.08200222232223
 1  12.76165812961296 -2.25651815841584  1.61142302430243
 1  11.71575903040304 -3.13328702080208  0.65704255985599
 1 -12.00248004010401  3.42520024072407  0.23312982998300
 1 -12.21704791869187  3.23693720152015 -1.53116701790179
 1  11.32213558405841 -0.36576965426543 -2.56484461716172
 1  12.19826670737074  0.97766242754275 -2.91733830783078
 1  10.57028459975997  1.09686279797980 -2.25796651615162
 1  12.87163811791179  1.97361426332633  0.70623796429643
 1  11.93772217911791  2.77224713561356 -0.43092724972497
 1  13.59915177147715  2.42594286418642 -0.73760603170317
 1 -13.49096832753275 -0.87594160316032 -1.04247034773477
 1 -13.81792396499650 -1.70491629582958  0.44645186588659
 1 -12.14915251845185 -1.90950935583558 -0.42780866336634
 1 -11.14195668656866  0.06580094069407  2.67634729382938
 1 -11.22140866626663 -1.70944194489449  1.89064308050805
 1 -12.57589165316532 -0.87130159805981  2.61898042614261
 1  10.00346375297530  1.94792965306531  0.85459136703670
 1 -10.10225467016702 -1.60274538453845 -0.53191956995700
 1  9.51956603410341 -0.71414900960096  2.18293205080508
 1  10.80878169226923 -2.13514971287129  2.52886431643164
 1  9.33825589278928 -2.42460231023102  1.62354197579758
 1 -9.10686772207221  1.35804811741174 -1.97703019991999
 1 -8.96643144804480  2.82850637263726 -0.85026507270727
 1 -10.14923518851885  2.86481148654865 -2.23763373667367
 1  8.51767735853585 -0.67100788098810 -0.22058900930093
 1 -8.21511490669067  0.63355754985499  0.12569891739174
 1  8.38482171427143  2.90088512441244  1.51244062656266
 1  6.78143002370237  3.36083378757876  0.66256883658366
 1  8.31267550525052  3.12812147414741 -0.19464268716872
 1 -8.20869182138214 -2.90146720582058 -1.51904859845985
 1 -8.57054804310431 -3.01985517281728  0.20835697499750
 1 -6.90885543814381 -3.31403405470547 -0.43247213241324
 1  6.27078794329433 -0.32782800960096 -0.02738475517552
 1 -6.13954593919392  0.35185712421242  0.12129185238524
 1  5.17157051435144  2.38133657775778  0.80798370517052
 1 -4.94250435073507 -2.63307682408241 -0.33240538163816
 1  4.09118938563856 -0.34075864576458 -0.33040340194019
 1 -3.59905753695370 -0.03857752785278 -0.02236410311031
 1  2.98921962136214  3.00162055815582  1.56665532083208
 1  1.32522972377238  2.94786551835184  0.53992371987199
 1  2.94472153095310  3.19714018751875 -0.20554452405240
 1 -2.85620749034903 -3.22763111901190 -1.76507151795180
 1 -3.09470107590759 -3.88867085998600 -0.11178652725273
 1 -1.38874984628463 -3.75545587998800 -0.47737996439644
 1  0.37679007980798  1.19882579777978  0.44468511371137
 1 -1.44213530213021  0.12418040524052  0.25044731863186
 1  2.11518006250625 -1.38330738043804 -0.05912547674767
 1  0.14044455525553 -2.53159820212021 -0.53489435033503

