%nproc=4
%Mem=2GB
# td=(NStates=1) B3LYP/6-31G(d,p) 

TD

0 1
 6  12.07079142174217  0.48592919341934 -0.71973809270927
 6 -12.06918923302330 -0.09638468006801  0.89646882578258
 6  13.37835724842484 -0.29042870287029 -0.60422642164216
 6 -13.03232973287329  1.12919731123112  1.26594730913091
 6  13.25104741894189 -1.78795446784678 -0.56103786258626
 6 -13.50166476257626  1.93729224132413  0.07367773487349
 6  10.97158895279528 -0.04545028052805  0.17313485128513
 6 -10.98263593139314  0.39148903120312 -0.03786142094209
 6  12.41700613801380 -2.07193948794880  0.73456743304330
 6 -12.16261614421442  2.62036234443444 -0.54134247014701
 6  11.17671737973797 -1.15894794929493  0.91031760016002
 6 -11.00844563876388  1.66969259105911 -0.75152402610261
 6  11.67239782748275  0.41760288538854 -2.25038351695170
 6  12.42314572797280  2.05354941004100 -0.36817833683368
 6 -13.05427301810181 -1.11911903060306  0.13375720562056
 6 -11.38708757675768 -0.70660383398340  2.15693384158416
 6  9.80530859345935  0.82262837643764  0.28552055255526
 6 -9.83891369826983 -0.56454899699970 -0.29287337513751
 6  10.23487766406641 -1.68517832953295  2.01741437633763
 6 -9.93872684288429  2.19306104520452 -1.58346981188119
 6  8.47556379607961  0.42267222342234  0.31425963216322
 6 -8.53035599399940 -0.29624949024902 -0.41394771767177
 6  7.31051962016202  1.25821462176218  0.51104371697170
 6 -7.53226212011201 -1.30102857795780 -0.43231362826283
 6  7.69469251895190  2.66057869506951  0.78640107710771
 6 -7.96242343054305 -2.79579959105911 -0.52926020362036
 6  6.09056295779578  0.75450983998400  0.33941610061006
 6 -6.19131774167417 -0.85536635923592 -0.39474158585859
 6  4.84560521122112  1.39581191309131  0.40551021002100
 6 -5.03531314311431 -1.58089406720672 -0.41179256085609
 6  3.64907361896190  0.72948051325133  0.29765171447145
 6 -3.74846023122312 -1.05625625832583 -0.28013045074507
 6  2.36883018441844  1.33874458215822  0.18641312921292
 6 -2.53860285968597 -1.75943100180018 -0.28344162426243
 6  2.25080945254525  2.76895626212621  0.46539091239124
 6 -2.52221276667667 -3.29604313081308 -0.65312666276628
 6  1.20113166166617  0.58805014661466  0.01909682668267
 6 -1.32229040214021 -1.04441301330133 -0.24276298139814
 6  1.09705407760776 -0.81340628782878 -0.29715723542354
 6 -0.02933239363936 -1.61759799959996 -0.39905366136614
 1  13.99836994279428 -0.08422599309931  0.40249829272927
 1  14.15125213901390 -0.02380075577558 -1.33261680008001
 1 -12.32536890189019  1.61664405460546  1.81895546034603
 1 -13.75767662526253  0.60425991829183  1.96162260036004
 1  14.25592621462146 -2.30796161386139 -0.39849329512951
 1  12.83837971967197 -2.18062196219622 -1.39463558685869
 1 -13.98205159335934  2.85056841684168  0.49338037563756
 1 -13.85880066386639  1.17209688388839 -0.79206322842284
 1  12.97556952075207 -1.98055056165617  1.53826570857086
 1  12.02258971347135 -3.03951764386439  0.64717157275727
 1 -12.03849364146415  3.49364708540854 -0.01180466346635
 1 -12.45555176907691  2.91473498129813 -1.50105400660066
 1  11.57225059555956 -0.65116819411941 -2.49321745444544
 1  12.47150403110311  0.93178784008401 -2.94570114411441
 1  10.74149172047205  0.94765787748775 -2.39231995149515
 1  12.48348930303030  2.13995089698970  0.72535987648765
 1  11.74919332623262  2.65715562646265 -0.72139629662966
 1  13.36640849714972  2.36529679957996 -0.74806707780778
 1 -13.33297252795280 -0.39107311631163 -0.79866596729673
 1 -13.62432460506051 -1.61732753695369  0.74838205890589
 1 -12.33839144234424 -1.88793719861986 -0.28178406090609
 1 -10.42281477237724 -0.25623126252625  2.62962262136214
 1 -11.01451797719772 -1.71182218291829  1.99922393859386
 1 -12.30142420642064 -0.62732720062006  2.90415894399440
 1  10.04461786838684  1.93103796389639  0.11231713961396
 1 -10.17041148584858 -1.62542765276528 -0.20366674467447
 1  9.38209228672867 -0.85694328902890  2.30269402700270
 1  10.91796261036104 -2.09935613351335  2.76495792579258
 1  9.68508057525753 -2.58188803880388  1.58498812041204
 1 -9.28340537583758  1.39047135973597 -1.98451094799480
 1 -9.33131793669367  2.72368589058906 -1.07517756395640
 1 -10.39181944694469  2.72591759715972 -2.60841081438144
 1  8.16938252905290 -0.62961374157416  0.17351040064006
 1 -8.04367776297630  0.59130332443244 -0.41905555805581
 1  8.34950818291829  2.84871990789079  1.78983836633663
 1  6.85545742644264  3.25861356555656  1.22962554225423
 1  8.22180641834183  3.36916557855786  0.05329210631063
 1 -8.91064201640164 -2.85606266536654 -1.33856054965497
 1 -8.30436142444244 -3.36092928022802  0.33746988628863
 1 -7.07931248384839 -3.40786343764376 -0.85546443164316
 1  6.07974883938394 -0.29267449424942  0.13574155745575
 1 -6.11781376597660  0.28181011951195 -0.49235951275127
 1  4.96655001230123  2.54796324042404  0.44563747054705
 1 -5.03680378067807 -2.71471498789879 -0.39158129922992
 1  3.70687095379538 -0.45951052095210  0.22665230363036
 1 -3.70863849504951  0.03015934583458 -0.15541740844084
 1  2.51295199459946  3.29127952405241  1.27030568586859
 1  1.21393859465947  3.17182791459146  0.67185691319132
 1  2.75558261706171  3.37548802230223 -0.42350632023202
 1 -3.43727559715972 -3.41629998589859 -1.34686969776978
 1 -2.98318992479248 -3.71725371827183  0.21323597499750
 1 -1.58977994929493 -3.69444977937794 -0.95724795119512
 1  0.29122152295230  1.23649956515652  0.18072871807181
 1 -1.49370045864586  0.19577756495650 -0.10414814091409
 1  2.18629717421742 -1.25495454515451 -0.30169973417342
 1  0.03953446424642 -2.76881192349235 -0.30454131503150

