%nproc=4
%Mem=2GB
# td=(NStates=1) B3LYP/6-31G(d,p) 

TD

0 1
 6  12.15186952955295  0.53688428892889 -0.80417653655366
 6 -12.10633294739474 -0.04276931853185  0.70326950585059
 6  13.42735214791479 -0.26517617761776 -0.71397739673967
 6 -12.94205070497050  1.18663305480548  1.23118383278328
 6  13.19542185638564 -1.85323099549955 -0.55727748654865
 6 -13.34552914901490  2.04273278537854  0.17050741784178
 6  11.07307910181018  0.11083534803480  0.24238177597760
 6 -11.09527719551955  0.42066194849485 -0.10523815861586
 6  12.45448988638864 -2.07619991399140  0.64031800810081
 6 -12.14619450205021  2.66938724692469 -0.57294563046305
 6  11.25200490849085 -1.16630868536854  0.83166973537354
 6 -11.13598839303930  1.70017563936394 -0.69897877157716
 6  11.53116370407041  0.47411853695370 -2.16737521612161
 6  12.61227464086409  2.06264031913191 -0.45591711071107
 6 -12.92852044284428 -1.02670978967897 -0.16222239233923
 6 -11.67460632863286 -0.84629780338034  1.97575572377238
 6  9.88379644224423  0.99263537713771  0.45706770727073
 6 -9.87380718761876 -0.46936947904790 -0.26007009480948
 6  10.18304248054806 -1.54651446314631  1.92611524642464
 6 -9.94573754395440  2.22271401050105 -1.61017248214822
 6  8.55642188188819  0.44652460866087  0.32061026722672
 6 -8.51491444984498 -0.26060592589259 -0.22850917381738
 6  7.39723829202920  1.34753355365537  0.34981759435944
 6 -7.52459135303530 -1.24049252435244 -0.39942033893389
 6  7.60594364406441  2.78519115631563  0.76777921492149
 6 -7.81873906210621 -2.76733674477448 -0.51409868746875
 6  6.15110901240124  0.73834822382238  0.20225238423842
 6 -6.28647725762576 -0.89536035863586 -0.30214232593259
 6  4.86706735743574  1.32867519941994  0.36695635463546
 6 -5.09191880368037 -1.62509848764877 -0.39370075167517
 6  3.68406711831183  0.59500706590659  0.23119506880688
 6 -3.80464584978498 -1.14410504320432 -0.24663710141014
 6  2.34925822722272  1.16220692839284  0.32904739263926
 6 -2.57527652705271 -1.86953201190119 -0.35466874697470
 6  2.26512088368837  2.69955932243224  0.56072044534453
 6 -2.62427297269727 -3.33731725822582 -0.54228557865787
 6  1.24118566706671  0.40796213781378  0.28755367236724
 6 -1.41126930003000 -1.15444401640164 -0.16218492359236
 6  1.11944631683168 -0.91271621882188 -0.06430395009501
 6  0.02367290689069 -1.69375561536154 -0.25075883188319
 1  14.00904100990099  0.24729715921592  0.18790683358336
 1  13.99545655945595 -0.13019139483948 -1.56203974237424
 1 -12.37556392139214  1.78949133933393  2.08211177597760
 1 -13.79608046564656  0.76766625892589  1.62540897899790
 1  14.24030465246525 -2.22767358505851 -0.56839028482848
 1  12.66903278497850 -2.08416231623162 -1.53247937123712
 1 -13.77282067026703  3.15828918891889  0.68453949154915
 1 -14.10599538333834  1.55489516371637 -0.41090511261126
 1  12.98818078187819 -2.05425793239324  1.57758964096410
 1  12.08399585408541 -3.00625431753175  0.51572842844284
 1 -11.67195698779878  3.53187090779078 -0.11069455245525
 1 -12.38279449334934  2.94135764356436 -1.56021992319232
 1  11.24382775327533 -0.60359343664366 -2.30096822952295
 1  12.22025890659066  0.75631029232923 -3.07585415941594
 1  10.60847841914191  1.03824693639364 -1.98730945044505
 1  12.67383833793379  2.37384428632863  0.54761210171017
 1  11.75531393829383  2.48695860676068 -0.95955011201120
 1  13.39005086138614  2.53528379827983 -1.08770104120412
 1 -13.56257548824883 -0.57506151515151 -0.82057815851585
 1 -13.74264643724372 -1.49449525372537  0.52948016871687
 1 -12.38225582878288 -1.80134853975398 -0.57729361186119
 1 -10.76277876877688 -0.47875351475148  2.40028968806881
 1 -11.18793531893189 -1.76037703840384  1.54371838803880
 1 -12.57288135213521 -1.04972944084408  2.55228375647565
 1  10.10263366996700  2.09229408950895  0.76405231313131
 1 -10.21476592129213 -1.44587969796980 -0.35636201420142
 1  9.27771184868487 -0.75063265796580  2.06676043364336
 1  10.61231204530453 -1.62368856675668  3.08758018801880
 1  9.69183125032503 -2.71226107610761  1.64909453105311
 1 -9.22151918721872  1.16164847744774 -1.68637113401340
 1 -9.35256006090609  3.04684820682068 -0.89716976317632
 1 -10.22560282528253  2.64922992839284 -2.30379035233523
 1  8.24620021082108 -0.54983576377638  0.14305735533553
 1 -8.33177657285729  0.91899609370937 -0.13016666916692
 1  8.15124835693569  2.87011204710471  1.54948433093309
 1  6.61260314101410  3.41570927512751  1.03243582328233
 1  8.09401363906391  3.10547920992099 -0.14026724962496
 1 -8.58199915211521 -2.99897695679568 -1.45694238783878
 1 -8.30130111841184 -3.15747893519352  0.40558669796980
 1 -7.03512806540654 -3.44379703100310 -1.03070195539554
 1  6.27791865636564 -0.28619384618462 -0.15710772747275
 1 -5.99390137473747  0.05508744724472 -0.10228050485048
 1  4.66143950125012  2.42454089818982  0.62748565536554
 1 -5.21430153045304 -2.70561407780778 -0.57839998109811
 1  3.84138440514051 -0.25247981788179 -0.12059242084208
 1 -3.54195182638264 -0.21842551265127 -0.04085595229523
 1  2.76658735813581  2.98498889498950  1.46385504080408
 1  1.25059226002600  3.08711944374437  0.59479920742074
 1  2.83174023282328  3.24402487598760 -0.24510848044804
 1 -3.28590045964596 -3.75311366726673 -1.26952196299630
 1 -3.12293389918992 -3.63222521542154  0.36625127652765
 1 -1.53837480878088 -3.87910824522452 -0.44515674207421
 1  0.08368076887689  0.86714262946295  0.17668831403140
 1 -1.58301939053905 -0.21242325512551  0.13369564346435
 1  1.99664820932093 -1.48298734843484 -0.24072363656366
 1  0.10963147394739 -2.65643068536854 -0.32256311721172

