%nproc=4
%Mem=2GB
# td=(NStates=1) B3LYP/6-31G(d,p) 

TD

0 1
 6  12.20623496609661  0.51480208070807 -0.50233635253525
 6 -12.06244855895589 -0.05950099169917  1.00067924682468
 6  13.47273668636864 -0.29494915491549 -0.30351635063506
 6 -13.04396089598960  1.15954034553455  1.44698541294129
 6  13.20810312451245 -1.82920859325933 -0.40567232603260
 6 -13.44279887598760  2.02457096919692  0.28443881098110
 6  11.03657545144515  0.02985725022502  0.39401693949395
 6 -11.01651931973197  0.50133001530153  0.08218058325833
 6  12.21460589798980 -2.11916421042104  0.75363934023402
 6 -12.23198308090809  2.63428373657366 -0.36544488038804
 6  11.02694240224022 -1.20027208170817  1.01794836323632
 6 -11.03499829402940  1.67435305710571 -0.51966083978398
 6  11.73863445114512  0.48182930803080 -1.82209068766877
 6  12.60106351975198  2.04022807790779 -0.24949646864686
 6 -12.91457904870487 -1.08754587328733  0.22067589748975
 6 -11.40259912791279 -0.65244841844184  2.26865501370137
 6  9.88936699929993  0.92002811641164  0.34986698719872
 6 -9.85641544844484 -0.46509905200520 -0.27029111691169
 6  10.10669484578458 -1.67078689038904  2.07160979587959
 6 -10.00380335053505  2.17009874897490 -1.54877634253425
 6  8.60277651735174  0.61844180038004  0.25765397159716
 6 -8.56291925032503 -0.26418628392839 -0.17597392029203
 6  7.34717328552855  1.43830263056306  0.33528614121412
 6 -7.55307420132013 -1.28797727282728 -0.42843324022402
 6  7.48687173687369  2.85972861006101  0.47995043204320
 6 -7.89771695989599 -2.66274628572857 -0.90145742334233
 6  6.11765566706671  0.77392178117812  0.07470962996300
 6 -6.23488209810981 -0.94698552115212 -0.41839395109511
 6  4.81862251295130  1.40212254415442  0.15014467346735
 6 -5.00023963576358 -1.74813079087909 -0.51538291989199
 6  3.57496620822082  0.60884845004500  0.04537648694870
 6 -3.71741712691269 -1.20329096179618 -0.37458989668967
 6  2.45043834523452  1.18149885758576 -0.08459397149715
 6 -2.45960495989599 -2.00124518321832 -0.47393067316732
 6  2.31069544114411  2.75813518001800  0.16014038733873
 6 -2.49632017741774 -3.44426795329533 -0.84979632973297
 6  1.24709625812581  0.55244658625863 -0.15058014101410
 6 -1.39089726282628 -1.17994656665667 -0.35010371547155
 6  1.19180355255526 -0.93571851905191 -0.32076959665967
 6 -0.03127258765877 -1.72808904870487 -0.38256201220122
 1  14.00721082688269  0.09118154765477  0.49331737463746
 1  14.19176619041904 -0.12391076677668 -1.14221776017602
 1 -12.39218558355835  1.98839122932293  1.89770333513351
 1 -13.74854571217122  0.60609010131013  2.14368080618062
 1  13.93469409140914 -2.30257107480748 -0.33180662646265
 1  12.59046492819282 -1.93609750975097 -1.28489461276128
 1 -14.31012440064006  2.84256761676168  0.44059509710971
 1 -14.03727851165117  1.50826050025003 -0.42679670177018
 1  12.93676564036404 -2.11540404700470  1.65233711571157
 1  11.85301275577558 -3.10503419551955  0.86775363096310
 1 -11.83002279437944  3.44286200690069  0.24697121412141
 1 -12.46531274517452  3.16838034583458 -1.28766266746675
 1  11.53829720022002 -0.80591366866687 -2.16617475017502
 1  12.38649553025303  0.85512017331733 -2.67782435643564
 1  10.82249982128213  1.05835894759476 -1.81921264076408
 1  12.92049300340034  2.21851875377538  0.73850119061906
 1  11.82782118901890  2.77002691359136 -0.09634379137914
 1  13.37272912921292  2.40767103700370 -0.90891316241624
 1 -13.46902613331333 -0.58239224822482 -0.57474357505751
 1 -13.60230240284028 -1.45905170937094  1.09481670237024
 1 -12.33845144834484 -1.96045445034503 -0.01053693619362
 1 -10.97289978087809  0.07747210781078  2.88319797889789
 1 -10.98603512891289 -1.67817881858186  1.96896091229123
 1 -12.04673873787379 -1.08805327322732  2.88593712181218
 1  10.13281668826883  1.97024188428843  0.26398230613061
 1 -10.04459890459046 -1.36381149114911 -0.35111148914891
 1  9.17996207370737 -0.87856545124512  2.40520427802780
 1  10.73235404950495 -1.90524672257226  3.02658408840884
 1  9.40222228942894 -2.55352520252025  1.88193781538154
 1 -9.50687772307231  1.38814112671267 -2.07769026592659
 1 -9.38321312621262  2.97044056605661 -0.89149919611961
 1 -10.67639790479048  2.75540054545455 -2.26197617091709
 1  8.43690928172817 -0.43488426862686  0.06837988758876
 1 -8.13680707590759  0.92525671977198 -0.20174382688269
 1  8.00022325442544  3.18580361626163  1.44175355785579
 1  6.55627750845085  3.31387909210921  0.47440001970197
 1  8.00866510421042  3.40277893989399 -0.15426864976498
 1 -8.58612956515652 -2.48205526462646 -1.77074376797680
 1 -8.42953394169417 -3.18499168646865 -0.20394425512551
 1 -7.05552010461046 -3.35375802710271 -1.19208809400940
 1  6.10805166966697 -0.19463469026903 -0.15386740344034
 1 -6.04441642624262  0.03696563506351 -0.03256353315332
 1  5.02297565486549  2.41979042314232  0.13079598639864
 1 -4.94785488578858 -2.79181269766977 -0.95500764186419
 1  3.77115738243824 -0.40994556445645 -0.04759512111211
 1 -3.51152878407841 -0.05748941904190 -0.09819168586859
 1  2.77390809020902  3.05936633273327  0.94771342664266
 1  1.27762496329633  3.13254398619862  0.05939566706671
 1  2.85450250905091  3.55451592509251 -0.49880384998500
 1 -2.60104197379738 -3.87646600250025 -1.91301631243124
 1 -3.19554115991599 -4.02978497139714 -0.18059340794079
 1 -1.42110308160816 -3.88941927632763 -0.44285651205121
 1  0.38483088388839  1.18683459865987 -0.40814016881688
 1 -1.62795388398840 -0.20306231903190 -0.03627135323532
 1  1.97426597109711 -1.79165821552155 -0.48405796999700
 1  0.14811532233223 -2.65593063536354 -0.67781864276428

