%nproc=4
%Mem=2GB
# td=(NStates=1) B3LYP/6-31G(d,p) 

TD

0 1
 6  12.23708805140514  0.55357595809581 -0.78914503340334
 6 -12.09426174027403 -0.04682972457246  0.93283246214621
 6  13.43065247794780 -0.35467512751275 -0.72638863786379
 6 -13.03208970887089  1.09285367686769  1.27604831923192
 6  13.01878419261926 -1.84631030343034 -0.65637739653965
 6 -13.37156175227523  1.98556706880688  0.11483185028503
 6  11.08831062496250 -0.01378711421142  0.19419695749575
 6 -10.99606727452745  0.44366424872487 -0.07698533333333
 6  12.38415285268527 -2.04939723372337  0.61725570187019
 6 -12.18654853745375  2.61671197939794 -0.54722305820582
 6  11.21465117311731 -1.17265932043204  0.95339190759076
 6 -11.06817161136114  1.65026064786479 -0.78628750245025
 6  11.66652724042404  0.52865399049905 -2.16920539913991
 6  12.63814722812281  1.97727178227823 -0.42997451645165
 6 -13.07670526132613 -1.06267338603860  0.07017084698470
 6 -11.41499036703670 -0.74498767236724  2.17014516271627
 6  9.87150521312131  0.82966908050805  0.25177717821782
 6 -9.94715452235223 -0.53372591469147 -0.41345543334333
 6  10.32224640094009 -1.49252906460646  2.07548018291829
 6 -10.17282025222522  2.02189392849285 -1.81578304320432
 6  8.53750999069907  0.36979693589359  0.37526573277328
 6 -8.60605356375638 -0.30924078937894 -0.35245156805681
 6  7.39371793999400  1.35698449874987  0.49278189078908
 6 -7.55644453835384 -1.28673714881488 -0.51245164206421
 6  7.67003005270527  2.88718135533553  0.66611904890489
 6 -7.92928011621162 -2.70098010911091 -0.71724900250025
 6  6.18723262476248  0.71847623662366  0.41033319231923
 6 -6.22994160406041 -0.84551537413741 -0.30704281598160
 6  4.92484313501350  1.36688902080208  0.55384504350435
 6 -5.05840545234523 -1.59807578537854 -0.46690807240724
 6  3.78748746034603  0.62500006520652  0.32284423372337
 6 -3.80965635083508 -1.05815644834483 -0.23041547924792
 6  2.39592289368937  1.15617632533253  0.27753224112411
 6 -2.54172317171717 -1.82746780548055 -0.34946822692269
 6  2.29947431903190  2.64996436293629  0.61277565086509
 6 -2.63688423382338 -3.25997952445245 -0.57306865696570
 6  1.22811435993599  0.53484482608261  0.13608852585259
 6 -1.40020819391939 -1.07620619261926 -0.16054475957596
 6  1.08337270947095 -0.86385133233323 -0.04190170987099
 6 -0.02615207560756 -1.52585882568257 -0.25434919091909
 1  13.96584669046905 -0.12791036153615  0.17928597149715
 1  14.00790780458046 -0.32880125582558 -1.51788532693269
 1 -12.45063142814281  1.41922431263126  2.10955452025203
 1 -13.87041789938994  0.47085657795780  1.83536997509751
 1  13.99290991299130 -2.57720853855386 -0.63391683748375
 1  12.64299018071807 -1.95170907090709 -1.64665078837884
 1 -14.10523391159116  2.66269962996300  0.45072611021102
 1 -14.15734051785179  1.19794946914691 -0.56146016811681
 1  13.06622858665867 -1.92819532613261  1.36945882788279
 1  11.80611806630663 -3.04246793889389  0.77362421802180
 1 -11.90347013911391  3.40773849454945  0.32066858385839
 1 -12.61401761566157  3.27940144794479 -1.34846874807481
 1  11.57785115561556 -0.52062513981398 -2.90816894959496
 1  12.46446332703270  0.89372403370337 -2.66812338633863
 1  10.60854842614261  1.07203031473147 -2.61411213071307
 1  13.09210016411641  2.34541144304430  0.69661700220022
 1  11.83344175107511  2.57182709360936 -0.46304046104610
 1  13.46020787708771  2.35937620752075 -1.23267553865387
 1 -13.53974320502050 -0.66983099209921 -0.74541064176418
 1 -13.81666383898390 -1.35947175137514  0.82486970767077
 1 -12.44782238543855 -2.05137354225423 -0.23667955045505
 1 -10.62821531243124 -0.04957059645965  2.36568622772277
 1 -10.76628315371537 -1.69819081978198  1.86859087528753
 1 -12.18819288328833 -0.85191965986599  2.87707623572357
 1  10.08387179377938  1.82776763686369  0.34505041294129
 1 -10.38934337903790 -1.65550066006601 -0.17427380538054
 1  9.44087816531653 -0.76467406210621  2.38567232483248
 1  11.10094090819082 -1.88734493239324  2.83162459245925
 1  9.87956002320232 -2.66945679567957  1.89320894249425
 1 -9.73180021532153  1.22984529712971 -2.19622211911191
 1 -9.47363216811681  2.73472699469947 -1.36637668386839
 1 -10.83068333333333  2.65384038943894 -2.73386335963596
 1  8.25845143594359 -0.79589036923692  0.17300034963496
 1 -8.44872826802680  0.73308750285028 -0.06326997949795
 1  8.34435766786679  3.25031006690669  1.53057243974397
 1  6.76032791349135  3.19797750195020  0.90136271597160
 1  8.20774501220122  3.24281294329433 -0.30410363326333
 1 -8.64187513971397 -2.78042510161016 -1.61443813741374
 1 -8.63128411671167 -3.21550473777378 -0.16277013771377
 1 -7.25390994359436 -3.32557520882088 -0.78003688888889
 1  6.17106797129713 -0.27910313711371  0.20678866216622
 1 -6.14722670727073  0.31475341384138 -0.26426670347035
 1  4.78415177247725  2.39517796189619  0.77512041884188
 1 -5.37595769606961 -2.68904242064206 -0.60403254435444
 1  3.98209847654765 -0.45800036993699  0.11816145454545
 1 -3.75852348354836  0.08525485538554 -0.11587345404540
 1  3.00851155055505  2.91848224432443  1.37672632793279
 1  1.24125132593259  2.99150988278828  0.60291001850185
 1  2.58332539133913  3.28372884638464 -0.41469543914391
 1 -3.10794266386639 -3.43947230313031 -1.53000801160116
 1 -3.30518212401240 -3.59504149704971  0.20582523392339
 1 -1.62607357865787 -3.64499483388339 -0.65778800520052
 1  0.30900330113011  1.27860377557756 -0.07472682748275
 1 -1.55224631323132 -0.01565357815782 -0.02546027212721
 1  2.04008255275528 -1.28737778747875 -0.11138070227023
 1 -0.00060955015502 -2.55804084638464 -0.39293015391539

