%nproc=4
%Mem=2GB
# td=(NStates=1) B3LYP/6-31G(d,p) 

TD

0 1
 6  12.10019436203620  0.57885848634863 -0.64804092299230
 6 -12.03996631073107  0.10443540194019  1.00363954285429
 6  13.41732114481448 -0.30323998399840 -0.51877787678768
 6 -12.86871337123712  1.39822421392139  1.46967768216822
 6  13.15159747394739 -1.73730940334033 -0.54332609140914
 6 -13.40046464256426  2.21015952805281  0.26007637473747
 6  11.00671246514652  0.02889715421542  0.33024056185619
 6 -10.99324699249925  0.40594047634763 -0.05236287108711
 6  12.23103754115412 -2.05513780778078  0.66542051835184
 6 -12.08245812841284  2.59489979817982 -0.60433876977698
 6  11.08394810281028 -1.20302235673567  0.95555212361236
 6 -10.97217201140114  1.54848046984698 -0.82878175187519
 6  11.66784737243725  0.53658478357836 -2.15534401300130
 6  12.46995040844084  2.03084713981398 -0.17808932793279
 6 -13.07990558135814 -1.07233435213521  0.41321515141514
 6 -11.36111497949795 -0.40983415701570  2.34665281348135
 6  9.80236829942994  0.91303741734173  0.44231623212321
 6 -9.90397020392039 -0.63686622872287 -0.26786087388739
 6  10.13258743504350 -1.58543835553555  1.90584321922192
 6 -10.04105707590759  1.78565030413041 -1.95920738563856
 6  8.50878711841184  0.52528248444844  0.26631483768377
 6 -8.57332029042904 -0.44783464876488 -0.20057638053805
 6  7.33269183738374  1.31564036433643  0.32339495209521
 6 -7.45740463436344 -1.37225570067007 -0.38781917881788
 6  7.58646169586959  2.77305994319432  0.71716415341534
 6 -7.84392158035804 -2.73713372447245 -0.70689796739674
 6  6.14280818231823  0.74406879587959  0.29239139813981
 6 -6.21643025292529 -0.90575139773977 -0.28076018771877
 6  4.87715836653665  1.42838517041704  0.24162382138214
 6 -5.00487009880988 -1.70939691749175 -0.53182456405641
 6  3.70305901750175  0.58342590779078  0.26376832613261
 6 -3.76606199139914 -1.18802943564356 -0.43891632933293
 6  2.33717701910191  1.17324803250325  0.29807429532953
 6 -2.47779677907791 -1.81783684238424 -0.56555983608361
 6  2.18141251285129  2.64895426192619  0.60827520082008
 6 -2.50413095849585 -3.32526605310531 -1.03980533063306
 6  1.24106565506551  0.40051139273927  0.10693561056106
 6 -1.34575274837484 -1.11590016201620 -0.44175288038804
 6  1.17207157935794 -0.99327427462746 -0.13649116881688
 6  0.00845138473847 -1.67450369016902 -0.45037879387939
 1  13.89087919371937  0.05030746024602  0.36262430533053
 1  14.14794180798080  0.02913453775378 -1.39294283268327
 1 -12.05686205120512  2.05786817701770  1.98283184798480
 1 -13.78988984658466  1.22554204650465  2.30047648574857
 1  14.08074869686969 -2.30035085278528 -0.37022046784678
 1  12.70141602330233 -2.28402230223022 -1.32607873117312
 1 -13.82531591979198  3.06683004300430  0.67742878047805
 1 -14.09069385318532  1.53732340654065 -0.41148517061706
 1  12.68504046784678 -2.03512601920192  1.67120900290029
 1  12.04637209170917 -3.29537322942294  0.52039889548955
 1 -11.76706649874987  3.62752047274727 -0.36308979197920
 1 -12.60740695459546  2.96047955575558 -1.65469937113711
 1  11.29431280178018 -0.37680075737574 -2.31594972767277
 1  12.55835271597160  0.81363602490249 -2.70363693769377
 1  10.70580815211521  1.21979509120912 -2.47092781228123
 1  12.98672962706271  1.99719662156216  0.73791113161316
 1  11.48687709460946  2.81248115901590 -0.16658081508151
 1  13.35983784008401  2.65187545744574 -0.85020729182918
 1 -13.63526275697570 -0.67342135113511 -0.41130723142314
 1 -13.76138831143114 -1.40764656885689  1.31938915961596
 1 -12.49783738693869 -1.73003140804080 -0.10762664516452
 1 -10.78826131703170  0.43115747634763  2.89508916801680
 1 -10.74124064946495 -1.35835683638364  2.20147416361636
 1 -12.18438250225022 -0.73163763166317  2.90397892599260
 1  9.80695410201020  2.32528738883888  0.50206611451145
 1 -10.23730817551755 -1.55760087008701 -0.32770914891489
 1  9.49401347884788 -0.77352494719472  2.36427018461846
 1  10.85489630373037 -2.07521371927193  2.63120455045504
 1  9.31794386158616 -2.26168601860186  1.52418203980398
 1 -9.46281331663166  0.89669198179818 -2.26377887478748
 1 -9.53368817371737  2.71504502650265 -1.85458550475048
 1 -10.68515878087809  2.32799780518052 -2.79735970927093
 1  8.44515010581058 -0.49325010521052  0.04142719231923
 1 -8.24175757095710  0.65364955905591 -0.14153780628063
 1  8.20856408850885  2.91823685958596  1.62344172667267
 1  6.56221810251025  3.27104480868087  0.95410799049905
 1  8.16843108080808  3.42339100110011 -0.19330255315532
 1 -8.47768872107211 -2.96449350845085 -1.63384007760776
 1 -8.48898988728873 -3.05962915021502  0.11300744004400
 1 -6.90506505910591 -3.27259991129113 -0.85950483568357
 1  6.09838070257026 -0.27341256805681  0.01088907220722
 1 -5.87361934653465  0.25318725722572 -0.12801307810781
 1  4.78967232453245  2.45420386448645  0.59827273407341
 1 -5.09680978127813 -2.64967848424842 -0.79429157025703
 1  3.78965923262326 -0.52483705360536 -0.18709907150715
 1 -3.50450808200820 -0.16245991609161 -0.20864273097310
 1  2.39464016341634  2.98498889498950  1.49335799109911
 1  0.98262546334633  2.74392512431243  0.74051377887789
 1  2.32871993079308  3.47096757025703 -0.08624259385939
 1 -2.94139600920092 -3.47894625052505 -2.06331134193419
 1 -3.26034764056406 -3.87762975587559 -0.26305165376538
 1 -1.40111108240824 -3.79568990339034 -0.76751897829783
 1  0.27715011581158  1.12570848604860  0.18472911811181
 1 -1.30432152075208 -0.08591060386039 -0.14056178227823
 1  2.19201774627463 -1.44551360106011 -0.17240680488049
 1  0.05139565036504 -2.67768281058106 -0.61311217211721

