%nproc=4
%Mem=2GB
# td=(NStates=1) B3LYP/6-31G(d,p) 

TD

0 1
 6  12.17287162976297  0.46383698419842 -0.64950106900690
 6 -12.14747706180618 -0.03453849544954  0.84697387628763
 6  13.51415082778278 -0.45858551855186 -0.74312031103110
 6 -13.05260176007601  1.17184157565757  1.20705141954195
 6  13.14578689288929 -1.91936760916092 -0.66800855965597
 6 -13.31598619471947  2.13177168926893  0.03995436253625
 6  11.03664545844584  0.02425669016902  0.18795633343334
 6 -11.01229889768977  0.43109299159916 -0.08909654445445
 6  12.33587802520252 -2.07645993999400  0.63785776207621
 6 -12.02546242884288  2.66422673087309 -0.44058239413941
 6  11.13520322832283 -1.12852490699070  0.83692026042604
 6 -11.03818861306130  1.68356397819782 -0.68437731143114
 6  11.71965255295530  0.58338946404640 -2.10693917251725
 6  12.53981739513952  1.99456351145115 -0.28420993999400
 6 -12.99999759055906 -1.08247536623662  0.16349017891789
 6 -11.56782565056506 -0.66674984858486  2.17211535973597
 6  9.88999706230623  0.94515062866287  0.22883488398840
 6 -9.99467927482748 -0.63907644974497 -0.33494758255826
 6  10.15767994429443 -1.56387619931993  1.93076571147115
 6 -9.86723969416942  2.16472821192119 -1.54439590449045
 6  8.56109234893489  0.47378733493349  0.34374258045805
 6 -8.62310526892689 -0.40752061736174 -0.38178450135014
 6  7.42795136333633  1.37166596689669  0.49092170477048
 6 -7.55007390129013 -1.40336881198120 -0.42205260216022
 6  7.59334238393839  2.93176581378138  0.52627506450645
 6 -7.87006419461946 -2.84600461156116 -0.71790906850685
 6  6.15316921842184  0.84485887488749  0.33005516451645
 6 -6.25621423132313 -0.89337015961596 -0.42265437713771
 6  4.85607625832583  1.39864219611961  0.52091175017502
 6 -5.07156676847685 -1.71851782958296 -0.53453483508351
 6  3.63139185078508  0.68706627182718  0.34391634093409
 6 -3.77259264446445 -1.16196682938294 -0.51574401210121
 6  2.34241754315432  1.33566427412741  0.34281876977698
 6 -2.51667066646665 -1.78885394409441 -0.44697797789779
 6  2.18840321192119  2.82032139863986  0.51140551385138
 6 -2.54566511191119 -3.40781430793079 -0.41392274237424
 6  1.28532008050805  0.51155249684969  0.19908482548255
 6 -1.39270744384438 -1.08599717171717 -0.23695240034003
 6  1.16091046324632 -0.92998794599460 -0.05384290399040
 6 -0.00198965936594 -1.58670491029103 -0.25798955495550
 1  14.25431553735373 -0.36347391789179  0.12569061196120
 1  13.84450146394639  0.00415203950395 -1.51484502290229
 1 -12.73599996499650  1.72452484268427  2.14561812661266
 1 -13.85959681728173  0.80005949824983  1.56767320542054
 1  14.00868149014902 -2.45204602230223 -0.31390483628363
 1  12.47022290399040 -2.39608350835084 -1.60630675397540
 1 -14.00147353555356  2.77377073707371  0.25764680228023
 1 -13.76977176097610  1.46622629682968 -0.75864988708871
 1  13.00789275307531 -2.24694720132013  1.52753463546355
 1  11.96979443394339 -3.06285997809781  0.75512236783678
 1 -11.59703949604961  3.26613433413341  0.41529804680468
 1 -12.44308052195220  3.15000850865087 -1.37355125632563
 1  11.40790416091609 -0.37409048634864 -2.41708984168417
 1  12.42697957865787  1.05684034533453 -2.79230580458046
 1  10.79987755905590  1.01924503620362 -2.17647836733673
 1  13.00494144824482  1.87472437433743  0.78247558805881
 1  11.55710411731173  2.67838774967497 -0.16098025502550
 1  13.18250010631063  2.34793506340634 -0.92667493859386
 1 -13.41761099179918 -0.63269727872787 -0.71147724842484
 1 -14.05475764836484 -1.26505230943094  0.77604482518252
 1 -12.54933253645365 -2.08452685758576  0.16079019651965
 1 -10.91261375227523 -0.00866650605060  2.69224888398840
 1 -11.05551207660766 -1.64607560826083  1.98823283948395
 1 -12.53610767476748 -0.79159362726273  2.70596912501250
 1  9.94237764436444  1.87861272137214  0.46466237413741
 1 -10.26857130183018 -1.76768187818782 -0.26106248424842
 1  9.34660873837384 -0.95865346004601  2.25316907450745
 1  10.65739655375538 -2.12999919781978  2.88527995799580
 1  9.67421948914892 -2.49993984398440  1.58431805340534
 1 -9.42863989928993  1.33731604420442 -1.95636813371337
 1 -9.29279408430843  2.94883840584058 -1.04600464666467
 1 -10.27600786578658  2.62206721212121 -2.40822079537954
 1  8.47116270707071 -0.65925670587059  0.21417446704670
 1 -8.32248564376438  0.63186738083808 -0.17155080758076
 1  8.14262749484949  3.13197823372337  1.41837121962196
 1  6.55305718641864  3.43178088228823  0.49023160286029
 1  8.07975221292129  3.09150781278128 -0.43061628452845
 1 -8.42930388258826 -2.76810386948695 -1.79799649324933
 1 -8.30779176747675 -3.23702688998900  0.12576871617162
 1 -7.01323587618762 -3.51815446674667 -0.93359224442444
 1  6.27994885938594 -0.29716494329433  0.43242122542254
 1 -6.25352733733373  0.12252419091909 -0.26223650045004
 1  4.90292364966497  2.48583702780278  0.75052795959596
 1 -5.00799089938994 -2.82503602000200 -0.54060620172017
 1  3.76512677937794 -0.25918048794879  0.03255289368937
 1 -3.86626425762576  0.09498582848285 -0.36249811651165
 1  2.87530823022302  3.18972936903690  1.37430608590859
 1  1.02714991579158  3.08934966676668  0.73252297979798
 1  2.48599565836584  3.22024249774977 -0.30123409300930
 1 -2.96681855145515 -3.86762511841184 -1.31969698049805
 1 -3.02840444624462 -3.50061205410541  0.67193184458446
 1 -1.44833580488049 -3.93058339273927 -0.70622284868487
 1  0.48024042484248  1.12998891409141 -0.00575993079308
 1 -1.55774686328633  0.03841182838284 -0.08985671177118
 1  2.20050859535954 -1.50785983568357 -0.13392295649565
 1  0.17540805160516 -2.63123816611661 -0.43296415731573

