%nproc=4
%Mem=2GB
# td=(NStates=1) B3LYP/6-31G(d,p) 

TD

0 1
 6  12.13058740134013  0.51836243674367 -0.66761288018802
 6 -12.21411372547255 -0.06111115271527  0.93503268216822
 6  13.45305471817182 -0.33492315231523 -0.47121312031203
 6 -12.99807630753075  1.20471486298630  1.28382909730973
 6  13.21620393459346 -1.79695536793679 -0.53983574237424
 6 -13.48075267136714  2.16442495459546  0.09715008210821
 6  11.06211800570057  0.00716498099810  0.30133767156716
 6 -11.04813248104810  0.35030491279128 -0.09096673147315
 6  12.16567100450045 -2.23730602460246  0.63148712501250
 6 -12.20332021462146  2.55487579577958 -0.54781311721172
 6  11.11505121312131 -1.25600765526553  0.89883645204520
 6 -11.00628542274227  1.57697331913191 -0.71329020272027
 6  11.62095268296830  0.61289241434143 -2.02970144874487
 6  12.57030044344435  1.90580463556356 -0.14882640164016
 6 -13.08031562236224 -1.16768388708871  0.35063889378938
 6 -11.54626349434943 -0.53131630523052  2.20611876007601
 6  9.93019108170817  0.91292740634063  0.33970597109711
 6 -9.91626143304330 -0.60551309340934 -0.21717580538054
 6  10.01013518981898 -1.85650546224622  1.95448808370837
 6 -10.02297526772677  1.95545728482848 -1.77299876477648
 6  8.57559379907991  0.57282723892389  0.36134434063406
 6 -8.61197415581558 -0.41683154845485 -0.14747107000700
 6  7.47175574377438  1.47493629392939  0.43453606620662
 6 -7.44164305820582 -1.30663913901390 -0.32497289418942
 6  7.64475752545255  2.86905954315432  0.78859129612961
 6 -7.93351053925393 -2.82532254335434 -0.67089436703670
 6  6.20843474497450  0.87256164516452  0.25733789278928
 6 -6.18103671357136 -0.81836265886589 -0.26459857155716
 6  4.84601525222522  1.33229556145615  0.22644230323032
 6 -4.94428404020402 -1.63490946874687 -0.34286566816682
 6  3.71147985958596  0.72167973317332 -0.02174022472247
 6 -3.66027141234123 -1.12365299799980 -0.32944538223822
 6  2.38829213061306  1.34269497719772  0.11325581348135
 6 -2.47513651305131 -1.78020307900790 -0.43600688078808
 6  2.19348371997200  2.73300266676668  0.46625099839984
 6 -2.48338888428843 -3.23158668516852 -0.83057440754075
 6  1.22167371587159  0.56840818241824 -0.10626570957096
 6 -1.32489066216622 -1.14910348234823 -0.40262896799680
 6  1.18255262746275 -0.85601054825483 -0.29949746944694
 6  0.00562110171017 -1.64276051585159 -0.42824658065807
 1  13.98160826662666 -0.11772934343434  0.43664170707071
 1  14.27021403520352  0.07658928322832 -1.32719625802580
 1 -12.45518188318832  1.90084247444744  2.09298286308631
 1 -13.93697455505551  0.98669816211621  1.92629906800680
 1  14.18792941494149 -2.32258307600760 -0.34600804660466
 1  12.66615249694970 -1.92575647564756 -1.52269839313931
 1 -14.05426881508151  3.09143250325033  0.29966100370037
 1 -14.15860064386439  1.61009068326833 -0.60285430753075
 1  12.70258222202220 -2.52693520012001  1.63532541454145
 1  11.76174362886289 -3.17464115621562  0.24679153475348
 1 -11.63816360846085  3.41674939563956  0.01799831683168
 1 -12.34706091999200  3.00145365316532 -1.68258215941594
 1  11.42927629812981 -0.38453153045305 -2.45805393809381
 1  12.34830171087109  1.02100676197620 -2.56863343734373
 1  10.65955352665267  1.07765087678768 -2.24027474697470
 1  12.87909886398640  1.95394229612961  0.89830717121712
 1  11.92673108000800  2.89144905580558 -0.41269542654265
 1  13.49782163846385  2.30357062696270 -0.64014628572857
 1 -13.34751398209821 -0.78884289328933 -0.63755985668567
 1 -13.90359253185319 -1.29916572077208  0.84704192489249
 1 -12.45227283048305 -2.07175558045805  0.25913003050305
 1 -10.86333882478248  0.17858221882188  2.52809246834683
 1 -11.10733725912591 -1.64013501420142  2.10516453265327
 1 -12.30929499349935 -0.41316578447845  3.02105063316332
 1  10.09868327492749  2.09355421552155  0.28047395529553
 1 -10.04931937663766 -1.64816992699270  0.05622924492449
 1  9.66421049854986 -0.84025161986199  2.29531328892889
 1  10.51264207830783 -2.29292549044904  2.69570100010001
 1  9.26962903010301 -2.50836068606861  1.45226484808481
 1 -9.65522255755575  1.09336164876488 -2.11034353125313
 1 -9.19742454735473  2.69068259025903 -1.32535258145815
 1 -10.27944820982098  2.34106911231123 -2.56480645394539
 1  8.38322391319132 -0.56444722492249  0.16174922452245
 1 -8.30708410361036  0.61617581168117  0.06031237873787
 1  8.24746797889789  2.99786482238224  1.62466184868487
 1  6.67295917661766  3.29486719091909  0.92468504820482
 1  8.16879111681168  3.39812847484749  0.01648842594259
 1 -8.29472042424242 -2.96939399849985 -1.69328602220222
 1 -8.76565755405541 -3.08385157245724  0.09075521482148
 1 -6.90762531513151 -3.45561821312131 -0.33059194439444
 1  6.08785965046505 -0.17452267906791 -0.08837085378538
 1 -6.28723070767077  0.00517245574557  0.33686340954095
 1  4.86149950725072  2.38384682878288  0.05490839763976
 1 -5.15948604890489 -2.66135965236524 -0.67004914601460
 1  3.82594286098610 -0.42690726062606 -0.22928328992899
 1 -3.47121475267527  0.06181251115112 -0.10035190189019
 1  2.66301700110011  3.01630202630263  1.42694134943494
 1  1.28435563636364  2.97614834663466  0.64774450195020
 1  2.81828888768877  3.46476695019502 -0.13044701430143
 1 -3.16872874247425 -3.33875223112311 -1.71457646844684
 1 -3.20240184598460 -3.75422741564156  0.05678032943294
 1 -1.50103107440744 -3.69615995039504 -0.94661688808881
 1  0.36120852165217  0.95483139833983  0.11812245744574
 1 -1.27262835143514 -0.10581259405941 -0.13334106020602
 1  2.06808535303530 -1.46373542324232 -0.21037060126013
 1  0.22738324912491 -2.82162720502050 -0.67409827072707

