%nproc=4
%Mem=2GB
# td=(NStates=1) B3LYP/6-31G(d,p) 

TD

0 1
 6  12.20463480608061  0.51962256275628 -0.72481860076008
 6 -12.04378669276928 -0.19482452405241  0.80195937483748
 6  13.44899431213121 -0.47086674667467 -0.56373237223722
 6 -13.00241674157416  1.14565895739574  1.18333904830483
 6  13.06506882108211 -1.92876854925493 -0.57661942074207
 6 -13.40194479057906  2.00985949804981 -0.02073170607061
 6  11.03908570247025 -0.00470620612061  0.06732427022702
 6 -10.89341700950095  0.28987887018702 -0.21209884468447
 6  12.11147558495850 -2.22858515251525  0.61584556085609
 6 -12.11704158675868  2.57763807200720 -0.68922725862586
 6  10.95403511151115 -1.27174922942294  0.60593716211621
 6 -11.01553634783478  1.54661028282828 -0.82989186288629
 6  11.83769435713571  0.60037116221622 -2.22857133573357
 6  12.59127254065407  1.94017807290729 -0.26486800580058
 6 -12.98545613641364 -1.15958307700770  0.22490632053205
 6 -11.40002887088709 -0.57949112271227  2.13418156635664
 6  9.87944600720072  0.85831194479448  0.17377937843784
 6 -9.86798660556055 -0.57194973707371 -0.30315440324032
 6  9.86390056635664 -1.68058787048705  1.59518215311531
 6 -9.96255922612261  1.97984972407241 -1.92689415431543
 6  8.50252649234923  0.58099805600560  0.12163036923692
 6 -8.53138609700970 -0.26604646994699 -0.23862018491849
 6  7.36302487068707  1.39376817711771  0.37113972657266
 6 -7.48955784968497 -1.38538701380138 -0.46816721362136
 6  7.67846089578958  2.87701033823382  0.66744918191819
 6 -7.91637882608261 -2.79906991809181 -0.67448472607261
 6  6.19853375487549  0.84134852385239  0.19069122812281
 6 -6.19280789068907 -0.93299412201220 -0.39812192389239
 6  4.87566821752175  1.50343267516752  0.47022668166817
 6 -5.01135074687469 -1.64261023882388 -0.46955833743374
 6  3.67777648924893  0.78195576077608  0.40703265256526
 6 -3.77602298749875 -1.04917555025503 -0.31321375907591
 6  2.38614191559156  1.34440514821482  0.64629911781178
 6 -2.54046304570457 -1.78050310901090 -0.29221250135014
 6  2.27723209480948  2.74846421292129  0.89764413771377
 6 -2.53859440484048 -3.30386391289129 -0.50811216131613
 6  1.22288383688369  0.62974431603160  0.55130004700470
 6 -1.42281045414541 -1.03143171517152 -0.17396610171017
 6  1.11785615781578 -0.81352629982998  0.18975145544554
 6 -0.08340780118012 -1.46348258805881 -0.05815957195720
 1  13.96611671747175 -0.28857642814281  0.47769581248125
 1  14.16510352415241 -0.11740011571157 -1.29912345074507
 1 -12.47035340034003  1.72293468366837  1.87925148994900
 1 -13.70619147674767  0.70704019631963  1.98159459755976
 1  13.88309893189319 -2.40717153485349 -0.66146959275928
 1  12.46069195089509 -2.18975287528753 -1.56144226752675
 1 -14.06944033223322  2.70683404340434  0.31915295289529
 1 -14.04469925372537  1.39017869206921 -0.72020604270427
 1  12.97637960176018 -2.34501700830083  1.37905978797880
 1  11.72707016151615 -3.26732042414241  0.54038089368937
 1 -12.00638043014301  3.51941966266627  0.09209572657266
 1 -12.37246346024602  3.13742725052505 -1.60394429562956
 1  11.69126249674968 -0.27596067336734 -2.89600773347335
 1  12.51780866156616  1.28468312961296 -2.77171374537454
 1  10.76240381168117  1.16583969566957 -2.31256197569757
 1  12.48526948104811  1.89871677357736  0.86006334683468
 1  11.89594800170017  2.70960087098710 -1.00042419941994
 1  13.88814067036704  2.09313958385839 -0.56424869596960
 1 -13.14831406210621 -0.70617462646265 -0.80143624432443
 1 -14.03628580118012 -1.09153495769577  0.83404062476248
 1 -12.55741334453445 -2.16915532043204  0.27719183668367
 1 -10.61485397629763  0.24090845144514  2.60935059415942
 1 -10.78932545794579 -1.54742574327433  2.02557657385739
 1 -12.24158822282228 -0.85510997889789  2.99703823192319
 1  10.04100750735074  2.05431029112911  0.21589749764977
 1 -10.16263070777078 -1.63487859785979 -0.52900927892789
 1  9.26791086858686 -0.94399199389939  2.00586434403440
 1  10.25447626172617 -2.27724392229223  2.50558198819882
 1  9.08977104430443 -2.39531938193819  1.18493811541154
 1 -9.20149718501850  1.09347165976598 -2.22519501640164
 1 -9.31118592349235  3.01396491849185 -1.74071411761176
 1 -10.60707097209721  2.32802780818082 -2.80211018431843
 1  8.32751834263426 -0.43222400260026 -0.10512746314631
 1 -8.18414180938094  0.67237143124312 -0.06841049354935
 1  8.01080431253125  3.20927596349635  1.60823020552055
 1  6.70998287898790  3.42767047124712  0.36763934363436
 1  8.31983622132213  3.25996465846585 -0.10351357425743
 1 -8.92807375957596 -2.70783784288429 -1.17650434403440
 1 -8.23774476277628 -3.43282646994699  0.26895303460346
 1 -7.08532308490849 -3.36558921022102 -1.13767265246525
 1  6.06595746024603 -0.14330955775578 -0.18114013071307
 1 -5.81906389098910  0.19473141164116 -0.22097237403740
 1  4.89327268456846  2.50772921702170  0.70686359315932
 1 -5.07871797209721 -2.68508202460246 -0.39280142124212
 1  3.66625689238924 -0.33558812871287  0.06582622102210
 1 -3.71899953115312 -0.10033370347035  0.01007914121412
 1  2.70688138753875  2.93610400650065  1.85990464576458
 1  1.29707690849085  3.22648338013801  1.26031575907591
 1  2.76283334213421  3.34726520002000  0.02319835023502
 1 -3.17819968956896 -3.59713806970697 -1.35431044184418
 1 -2.79050065586559 -3.98367035993599  0.40615526692669
 1 -1.44519549084909 -3.78891922632263 -0.88073029942994
 1  0.15019742054205  1.18534444964496  0.61571221642164
 1 -1.57141823042304  0.08389637683768 -0.04097182328233
 1  1.94794333883388 -1.36921597129713 -0.04474403860386
 1  0.09181969276928 -2.48097313961396 -0.06232709360936

