%nproc=4
%Mem=2GB
# td=(NStates=1) B3LYP/6-31G(d,p) 

TD

0 1
 6  12.23948829142914  0.52226282678268 -0.62864898379838
 6 -12.19567188128813 -0.16984202580258  0.90932011091109
 6  13.44839425212521 -0.46022568256826 -0.35677167616762
 6 -13.15759225912591  0.97510190169017  1.36606732113211
 6  13.16015833003300 -1.89259493189319 -0.31122288108811
 6 -13.59752434853485  1.84732324442444  0.21211157825783
 6  11.18453024692469  0.05603986848685  0.29365690349035
 6 -11.01269893769377  0.38051793409341 -0.05959359415942
 6  12.23950838823882 -2.22810510451045  0.84817879417942
 6 -12.36695657825783  2.54333464166417 -0.39170750665067
 6  11.08939864786479 -1.16818887338734  0.92913948234823
 6 -11.17140193439344  1.61240686248625 -0.64284315801580
 6  11.87473806150615  0.52491361646165 -2.04153263186319
 6  12.63391680508051  1.89654370947095 -0.17282880188019
 6 -13.02501009180918 -1.21779889858986  0.20475430533053
 6 -11.47819668766877 -0.68840201380138  2.19278742694269
 6  9.87656571917192  0.82242835643564  0.29783178367837
 6 -9.97342714961496 -0.57365990809081 -0.36619070687069
 6  10.05600977727773 -1.64464427612761  1.94648728362836
 6 -10.15126809700970  2.12054379347935 -1.67330879577958
 6  8.61411765146515  0.47975793199320  0.05099330553055
 6 -8.58418137653765 -0.29483934923492 -0.40978730163016
 6  7.49939850805081  1.28988778907891  0.07778039063906
 6 -7.48592748664867 -1.21895037013701 -0.49097949484949
 6  7.63080613031303  2.76348898609861  0.27509994699470
 6 -7.80857804600460 -2.72428243934393 -0.81002828042804
 6  6.24183808530853  0.68961335033503  0.01059321832183
 6 -6.24624323422342 -0.79687050965096 -0.33745585728573
 6  4.97584823552355  1.32952528442844  0.18460811981198
 6 -5.02590220202020 -1.53875985378538 -0.38046942854285
 6  3.79824853645365  0.78420598579858  0.00407235653565
 6 -3.82079746494649 -1.01611224392439 -0.23925636333633
 6  2.44578788018802  1.36946765446545  0.21152564046405
 6 -2.50902990239024 -1.67470252895290 -0.35723900400040
 6  2.28453282488249  2.82000136663666  0.57375174847485
 6 -2.56198674407441 -3.13588711521152 -0.79077042714271
 6  1.37543909240924  0.57590893249325  0.23240815781578
 6 -1.37463563666367 -0.97652622462246 -0.14902360746075
 6  1.22390676287629 -0.77461240844084 -0.14002152185219
 6 -0.02333179357936 -1.41621786158616 -0.22056581258126
 1  13.97813791959196 -0.31985955645565  0.65434347724772
 1  14.18694570837084 -0.15612398809881 -1.07921145954595
 1 -12.46585295029503  1.41791418161816  2.08812237703770
 1 -14.00780163776378  0.47126661896190  1.99397583568357
 1  14.12712333433343 -2.38567938563856 -0.31731517731773
 1  12.72633851555156 -2.18932283228323 -1.26736285958596
 1 -14.35118850705070  2.68431179117912  0.48817985558556
 1 -14.12600738453845  1.29591926612661 -0.66671069316932
 1  12.57898986278628 -2.27577008360836  1.87626950895090
 1  11.74552200670067 -3.25750944304430  0.71057791339134
 1 -12.06527631973197  3.49176689738974  0.38851536853685
 1 -12.65365157905791  3.03909741754175 -1.33221712291229
 1  11.65417878837884 -0.42201527882788 -2.40409854255426
 1  12.75223210391039  0.75196985828583 -2.70014658865887
 1  11.11374894619462  1.06872998469847 -2.35100582008201
 1  12.83511446554655  2.00603750565057  0.82200954145415
 1  11.90842924982498  2.70298020892089 -0.29046320332033
 1  13.67736959325933  2.16646691659166 -0.47688996009601
 1 -13.52920215091509 -0.71310531953195 -0.54078017871787
 1 -13.65885805840584 -1.72385819001900  0.82977019771977
 1 -12.51598920212021 -2.01526993189319 -0.45488137063706
 1 -10.96393888478848  0.05243960456046  2.53397305640564
 1 -11.10430695609561 -1.83176417711771  2.19243325952595
 1 -12.20680474447445 -0.96742121002100  3.00093862196220
 1  10.29200260686069  1.98638349844984  0.54813072097210
 1 -10.13306775147515 -1.57468257825783 -0.52072845084508
 1  9.42441651915192 -0.84495208990899  2.47084084168417
 1  10.49769058315831 -2.19541573947395  2.60086151615161
 1  9.33073514071407 -2.34761461146115  1.63276289788979
 1 -9.51733876917692  1.44094640724072 -2.03543604050405
 1 -9.66340114501450  2.92475599759976 -1.00814086028603
 1 -10.87784804980498  2.50345535093509 -2.35233520682068
 1  8.51280687148715 -0.58834961516152 -0.13932088248825
 1 -8.54225762096210  0.74921911601160 -0.05370902340234
 1  8.07814104620462  2.99601463736374  1.29725910841084
 1  6.66724860556056  3.39825752995300  0.21441402110211
 1  8.36009024672467  3.02671133313331 -0.38797202010201
 1 -8.65106605880588 -2.74806186528653 -1.52715940954095
 1 -8.39749073737374 -3.15595878317832  0.02294843414341
 1 -6.92015656825683 -3.36512916421642 -1.23201208640864
 1  6.17989885438544 -0.44501972877288 -0.24933695039504
 1 -6.15191717631763  0.17276921542154 -0.21998227502750
 1  5.01497485478548  2.51275972007201  0.31649455625563
 1 -5.31224132443244 -2.57365088148815 -0.46734887598760
 1  4.02539280598060 -0.25359992989299 -0.26880724232423
 1 -3.68302593379338  0.16923325322532 -0.09703156985699
 1  2.67842854225423  3.01226162226223  1.60575923122312
 1  0.93986118691869  3.08734946674668  0.73124285178518
 1  2.68427548634863  3.59112958645865 -0.13893786338634
 1 -3.21848371797180 -3.40682903880388 -1.71570658145815
 1 -2.94856646244624 -3.69847184008401  0.16261091249125
 1 -1.64577554885489 -3.62412274667467 -1.05821804820482
 1  0.47959035983598  1.04706062126213  0.53093373857386
 1 -1.43755484408441  0.17669565676568  0.23839611351135
 1  2.04170271477148 -1.51911096079608 -0.43948351255125
 1  0.09628013881388 -2.39819486178618 -0.61615247614761

