%nproc=4
%Mem=2GB
# td=(NStates=1) B3LYP/6-31G(d,p) 

TD

0 1
 6  12.04633897649765  0.60704130463046 -0.78567468636864
 6 -12.11066338043804  0.06007096549655  0.89340851975198
 6  13.36886629932993 -0.28655831583158 -0.78621462046205
 6 -12.98856535643564  1.31641603310331  1.20957167156716
 6  12.99756207040704 -1.75394106650665 -0.72331409020902
 6 -13.33433802990299  2.10425893799380 -0.07987762066207
 6  11.05251704560456  0.00266453095310  0.17118465626563
 6 -11.04031169896990  0.38969885218522 -0.07743537833783
 6  12.30355479287929 -2.12949524352435  0.53663764006401
 6 -11.87389727232723  2.60198050625063 -0.67367570347035
 6  11.17815752375238 -1.17561961646165  0.88648521692169
 6 -10.86590138433843  1.56478210001000 -0.79470834453445
 6  11.51866245394540  0.64280540564056 -2.18074655325533
 6  12.38290170357036  2.02893694879488 -0.36133765276528
 6 -13.00427801860186 -1.05466258495850  0.22901673157316
 6 -11.56704557255726 -0.42890606420642  2.24048219641964
 6  9.86422448504851  0.93085919951995  0.39893189368937
 6 -9.92190199709971 -0.58152069416942 -0.18644273207321
 6  10.28725290159016 -1.63078288998900  1.96428906380638
 6 -9.88185115531553  1.89696143524352 -1.81499296419642
 6  8.55924216391639  0.48077803400340  0.34150235643564
 6 -8.50210316871687 -0.31620148544854 -0.17900422332233
 6  7.37721628982898  1.32399119941994  0.51344395699570
 6 -7.49259815371537 -1.29379785488549 -0.33591398829883
 6  7.62816586628663  2.86097873507351  0.93324576157616
 6 -7.97118430663066 -2.75672568366837 -0.70800807840784
 6  6.20204410591059  0.80830521952195  0.33615577457746
 6 -6.19659826972697 -1.04303512611261 -0.23492560426043
 6  4.83653430413041  1.45725805770577  0.35706536553655
 6 -5.04617422922292 -1.80825680348035 -0.45793717531753
 6  3.71745045664566  0.63721128632863  0.35767771707171
 6 -3.84374976017602 -1.19282991569157 -0.36905934363436
 6  2.31892519391939  1.13721442914291  0.41301578947895
 6 -2.49776877627763 -1.90678573727373 -0.49575285538554
 6  2.26967133873387  2.71413077957796  0.67809218251825
 6 -2.56226677207721 -3.29583310981098 -0.73724507460746
 6  1.14062561106111  0.47484882648265  0.17578249524952
 6 -1.37198537163716 -1.19477804980498 -0.18643734883488
 6  1.09256362856286 -0.94455940314031 -0.07496501620162
 6 -0.00800026042604 -1.71115735553555 -0.34906866286629
 1  14.07271737753775 -0.00672824332433  0.16320436333633
 1  13.93665067886789  0.05320694499450 -1.50714425282528
 1 -12.42501886688669  2.01278366856686  1.88092165696570
 1 -13.86114697229723  1.00482997529753  1.74724116221622
 1  13.85807642964297 -2.43090390809081 -0.83142658845885
 1  12.65435131683168 -2.28718261826183 -1.51877800110011
 1 -14.00561394959496  2.90701406140614  0.08295933353335
 1 -13.74324910871087  1.52704237843784 -0.87556157825783
 1  13.05401736553655 -2.01718422502250  1.35491737373737
 1  11.73145059955996 -3.08992268436844  0.77898475407541
 1 -11.61440123222322  3.42116983768377  0.01006752375238
 1 -11.91916813071307  3.04068757655766 -1.63025692689269
 1  11.05005837633763 -0.44772785008501 -2.58236636933693
 1  12.21304818551855  0.91829649094909 -3.06239281328133
 1  10.56578414971497  1.33756686838684 -2.37759847934793
 1  12.77368832293229  2.02069897179718  0.57805514601460
 1  11.62284069096910  2.89396930783078 -0.63417757475748
 1  13.18152000830083  2.21460173007301 -0.94112638373837
 1 -13.42718194889489 -0.79594360336034 -0.61367746844684
 1 -13.90931310391039 -1.09650545474547  0.92444966566657
 1 -12.53147075027503 -2.04190259515952  0.32556667416742
 1 -11.12970546144614  0.37292165276528  2.69608926802680
 1 -10.88654517991799 -1.26499750045004  2.14507852405240
 1 -12.14439850385038 -0.79303377127713  3.11572010011001
 1  10.16929033563356  1.88724358445845  0.56610251815182
 1 -10.29585403010301 -1.58501361136114 -0.77739411741174
 1  9.61094517201720 -0.78573616831683  2.16125988358836
 1  10.91573238733873 -2.00423662156216  2.97541897189719
 1  9.47024909210921 -2.19292914291429  1.81763138473847
 1 -9.24418145344534  1.07479979257926 -2.22598509540954
 1 -9.12516732163216  2.63309683168317 -1.26835688188819
 1 -10.48752901790179  2.39076408180818 -2.68195816911691
 1  8.36530212101210 -0.52616339653965  0.09309235883588
 1 -8.26117951315132  0.74115830993099 -0.03901755425543
 1  8.23394662676268  2.76015105100510  1.88138752125213
 1  6.44504638533853  3.12127983218322  1.09126170587059
 1  8.32967720542054  3.43940260226023  0.29851662876288
 1 -8.43705465766577 -2.66503356245625 -1.71343803740374
 1 -8.50266125442544 -3.10075326262626  0.05351149044905
 1 -7.15849040164016 -3.44871752305230 -0.96081496669667
 1  6.24331519601960 -0.29033426022602 -0.01448346504650
 1 -6.03454543914391 -0.03727178867887 -0.17789806660666
 1  4.70857421472147  2.59754819891989  0.58820172697270
 1 -5.07838793909391 -2.77719123552355 -0.96466860796080
 1  3.72749301600160 -0.38579314921492  0.24008364676468
 1 -3.80134776597660 -0.23045671577158  0.00222835613561
 1  2.68284898429843  2.79651004710471  1.82680133543354
 1  1.24814201500150  3.01073180498050  0.62807253475348
 1  2.98527558635864  3.46921739523952 -0.10100407000700
 1 -3.27632950255025 -3.45799415531553 -1.58058306910691
 1 -3.00550215601560 -3.85666765966597  0.01234588598860
 1 -1.47864883618362 -3.76760709510951 -0.89101132753275
 1  0.05170757155716  1.14183009820982  0.06700734593459
 1 -1.40926201480148 -0.09773178597860 -0.12319004510451
 1  2.07615616011601 -1.40907995769577  0.22385282108211
 1  0.31182169296930 -2.71971701400140 -0.66243710461046

