%nproc=4
%Mem=2GB
# td=(NStates=1) B3LYP/6-31G(d,p) 

TD

0 1
 6  12.20215455805580  0.49841044154415 -0.69763588248825
 6 -12.15900821492149 -0.23746878847885  0.80470964986499
 6  13.43542295499550 -0.39134879487949 -0.60690668966897
 6 -13.04405090499050  1.04307869936994  1.26774748914891
 6  13.16962927712771 -1.92880855325533 -0.44033579237924
 6 -13.49072366846685  2.06418493059306  0.16888725582558
 6  11.08791058495850 -0.09900563606361  0.23138067586759
 6 -10.96909457725772  0.33931381368137 -0.10055769056906
 6  12.32726716411641 -2.12201449544955  0.75137911421142
 6 -12.11923180578058  2.56912722092209 -0.46165450135013
 6  11.10849055705571 -1.20868292279228  1.02859942834283
 6 -11.03013780798080  1.54064968676868 -0.72164103780378
 6  11.59141972967297  0.48283940904090 -2.18348682728273
 6  12.58336174957496  1.84111816691669 -0.32398391739174
 6 -12.98633622442244 -1.15586270497050  0.01421525142514
 6 -11.57841670967097 -0.78524169776978  2.09342749094910
 6  9.92088015061506  0.79996611021102  0.25531753225323
 6 -9.89722952985298 -0.52789533163316 -0.28843293109311
 6  10.13705788208821 -1.55437524922492  2.05271790669067
 6 -9.84222719291929  2.10485222432243 -1.56973843874387
 6  8.58308454815482  0.47222717891789  0.29099730593059
 6 -8.56134909330933 -0.24274413971397 -0.35347167006701
 6  7.40227879607961  1.38666746704670  0.38036064866487
 6 -7.47961685558556 -1.24284275937594 -0.34351474837484
 6  7.69566261596160  2.96556919411941  0.40652308930893
 6 -7.86322351055106 -2.67586759785979 -0.71728900650065
 6  6.14874877637764  0.87299168816882  0.27957011601160
 6 -6.22845145504550 -0.78928975157516 -0.18952106380638
 6  4.84008465916592  1.48277060896090  0.28681834083408
 6 -4.94623423522352 -1.58350432823282 -0.20639202080208
 6  3.68621733333333  0.84847241244124  0.12048399769977
 6 -3.77870325552555 -1.08065869856986 -0.21272371007101
 6  2.31160446184618  1.22334304200420  0.20780526842684
 6 -2.50281928132813 -1.76642170087009 -0.43309658975898
 6  2.17549192079208  2.68197756425643  0.72890726402640
 6 -2.61300184558456 -3.21815534203420 -0.72215356545655
 6  1.21125267376738  0.52460380198020  0.08272318931893
 6 -1.39292746584658 -1.05755432743274 -0.20549925502550
 6  1.15566993919392 -0.92344729192919 -0.33243076277628
 6 -0.00580004040404 -1.58015425522552 -0.39579333533353
 1  13.94199430523052 -0.23417098759876  0.49421746464646
 1  14.06757377117712 -0.16392476817682 -1.44357789618962
 1 -12.63070943594359  1.62237462766277  2.12062562736274
 1 -14.17173803140314  0.70034952725273  1.64816125422542
 1  14.05982660466047 -2.55984680238024 -0.54565801160116
 1  12.71935781748175 -2.13754765476548 -1.33412953625363
 1 -13.94813820202020  2.90878423842384  0.63154419201920
 1 -13.96821160496050  1.58406808100810 -0.65038906100610
 1  12.79327129092909 -2.18941144774477  1.92711459345935
 1  11.79465692019202 -3.10803449554955  0.69195605120512
 1 -11.77416720882088  3.26802452315232  0.38545506250625
 1 -12.31471768566857  3.08251175897590 -1.41638553975398
 1  11.38165153565357 -0.47544062136214 -2.59731786448645
 1  12.28813569426943  1.00595525682568 -2.91101767576758
 1  10.64998256955695  1.12805591729173 -2.14628534803480
 1  12.54313526762676  2.02761966386639  0.81601894239424
 1  11.89350775767577  2.58335824672467 -0.64879903690369
 1  13.41153300960096  2.19635990589059 -0.94221649274927
 1 -13.29836906760676 -0.79844385338534 -0.88503460416042
 1 -13.80554272687269 -1.45275107930793  0.88008522922292
 1 -12.36077368056806 -2.03495190009001 -0.51417730023002
 1 -10.72268475937594 -0.19809544894489  2.47791745084508
 1 -11.07386391179118 -1.74286528722872  2.04832884908491
 1 -12.36003006700670 -0.89254372227223  2.87291581968197
 1  10.09079248584858  2.08312317241724  0.27687359525953
 1 -10.19902434713471 -1.56215132513251 -0.39106548454845
 1  9.47520159765977 -0.67373496819682  2.06933069066907
 1  10.49687050115011 -2.09141533943394  2.97387881788179
 1  9.44730679787979 -2.32489233923392  1.68514813641364
 1 -9.30239727502750  1.33443575617562 -2.11707420432043
 1 -9.00020482538254  2.68397191919192 -0.97442748894889
 1 -10.26104636963696  3.00125513091309 -2.10818079137914
 1  8.46893248404840 -0.70443122332233  0.28918196779678
 1 -8.13235663086309  0.78872306640664 -0.14028768126813
 1  8.18226145824583  3.39478451435144  1.53969335183518
 1  6.78043992469247  3.62775047924792  0.24851743144314
 1  8.56557079477948  3.10069873187319 -0.42642586548655
 1 -8.29516046824683 -2.66779383848385 -1.65374206780678
 1 -8.58604959325933 -2.91966515381538 -0.09369323002300
 1 -6.84172872547255 -3.41667431873187 -0.78065695089509
 1  6.12417328182818 -0.18566379317932  0.10580856415642
 1 -6.24707669226923  0.26977891639164 -0.00963123992399
 1  4.66413977127713  2.60341878597860  0.32760566736674
 1 -5.03856395669567 -2.73841735813581 -0.32700484158416
 1  3.63845411211121 -0.24196876677668  0.07669730813081
 1 -3.74947257845785  0.00285661556156 -0.08612047874788
 1  2.80153085248525  3.09463986008601  1.59756841214121
 1  1.09714691549155  3.01814254605461  1.02089181668167
 1  2.54154121292129  3.34690516401640  0.02355838623862
 1 -3.19758162776278 -3.24585294119412 -1.62264727552755
 1 -3.27470907670767 -3.72979497239724  0.21125577697770
 1 -1.57294826612661 -3.69560989538954 -0.83232545894589
 1  0.33049545034503  1.19973588878888  0.17858850405040
 1 -1.68872996159616 -0.08144015681568 -0.02277000310031
 1  2.22595113961396 -1.44240329002900 -0.58747831203120
 1  0.03262377317732 -2.69147418971897 -0.89841070197020

