%nproc=4
%Mem=2GB
# td=(NStates=1) B3LYP/6-31G(d,p) 

TD

0 1
 6  12.08803314591459  0.54148474897490 -0.69212533143314
 6 -12.03139545364536  0.02109706810681  0.88013719261926
 6  13.29277869056906 -0.30571023102310 -0.54735073407341
 6 -12.95736223612361  1.11288568006801  1.28123883828383
 6  13.09925223942394 -1.74809048144815 -0.70030178897890
 6 -13.39121371747175  1.97640615271527  0.09495986308631
 6  11.02537433133313 -0.03345908140814  0.36076361416142
 6 -11.00075774357436  0.35763564586459 -0.15389302410241
 6  12.15932036943694 -2.28475076907691  0.52410638693869
 6 -12.11577145974597  2.54234454265427 -0.67072540844084
 6  11.02037174517452 -1.39018107260726  0.69977654605461
 6 -10.99094388858886  1.55647126892689 -0.81503037673767
 6  11.60740132783278  0.63214433953395 -2.09972845144514
 6  12.36119953335334  1.97424147924792 -0.22765428442844
 6 -12.94218180898090 -1.14229134783478  0.18029185908591
 6 -11.43288215621562 -0.48364153775378  2.16113426162616
 6  9.81495955855586  0.80638675227523  0.47858985948595
 6 -9.87173698059806 -0.54687722982298 -0.30793488128813
 6  10.09131330763076 -1.96990680238024  1.72832546744674
 6 -10.00550352055206  2.04748648774877 -1.91284274917492
 6  8.49873611331133  0.48834879107911  0.36847505370537
 6 -8.56662962136214 -0.37470733603360 -0.34420074297430
 6  7.43226179437944  1.44280308060806  0.41787440004000
 6 -7.49904879877988 -1.35419389448945 -0.40251064796480
 6  7.57132018171817  2.88492112931293  0.75793823082308
 6 -7.86859404760476 -2.82955296639664 -0.37856513411341
 6  6.16656055755576  0.94303869286929  0.36747890689069
 6 -6.23729233913391 -0.95605642824282 -0.23934604630463
 6  4.90254090479048  1.46025835773577  0.32862252125213
 6 -4.97463707550755 -1.67509348714871 -0.30007138873887
 6  3.74615332693269  0.75192275747575  0.21633358265827
 6 -3.72893827902790 -0.97104773747375 -0.49900233793379
 6  2.40330363176318  1.32674338203820  0.34388887678768
 6 -2.51809080848085 -1.76050110881088 -0.37078035813581
 6  2.24611898349835  2.65545491199120  0.74509888318832
 6 -2.54561510691069 -3.31227475397540 -0.32034338443844
 6  1.28509005750575  0.64163550515052  0.08475339233923
 6 -1.32624079717972 -1.01885045704570 -0.46207491259126
 6  1.16739111131113 -0.76747169436944 -0.24320183988399
 6  0.01434197379738 -1.48220446024602 -0.39640339633963
 1  13.83650375617562 -0.09517708820882  0.29775781868187
 1  14.00745775957596  0.04985660996100 -1.38780231863186
 1 -12.71252761776178  1.80535292549255  2.06042960776078
 1 -13.71249210681068  0.66033552585259  1.89345578367837
 1  14.09593021502150 -2.20628144584458 -0.88510195599560
 1  12.64372025372537 -1.93849774977498 -1.60157628092809
 1 -14.04601798999900  2.69537289728973  0.44421545914591
 1 -13.73706849064907  1.25680535473547 -0.56425044714471
 1  12.73352531633163 -2.30700320692069  1.48803068506851
 1  11.84481193569357 -3.16101979407941  0.25884273987399
 1 -11.66611640374037  3.36364408510851 -0.24135761876188
 1 -12.46579279317932  2.81311481928193 -1.59016291749175
 1  11.54261763226323 -0.48965204250425 -2.40944907760776
 1  12.42068894959496  1.06463112441244 -2.77426400040004
 1  10.70237780908091  1.14949806150615 -2.32063278277828
 1  12.31472242634263  1.99747664956496  0.85299263976398
 1  11.61352975987599  2.68932884378438 -0.63271742874287
 1  13.51709356565657  2.08955922582258 -0.58134040514051
 1 -13.27900713141314 -0.71347535653565 -0.76554265496550
 1 -13.78696086868687 -1.39600540474047  0.74444166486649
 1 -12.20367797099710 -2.01087949284929  0.07523164066407
 1 -10.66160865176518  0.24397875847585  2.62144180328033
 1 -10.84035056045605 -1.25293629432943  1.93102711891189
 1 -12.30512457645765 -0.76285075297530  2.75578410651065
 1  10.09330273687369  1.84801966206621  0.72695860376038
 1 -9.93623806850685 -1.70768587858786  0.06903052505251
 1  9.40210428792879 -1.22173976867687  1.94620837843784
 1  10.53565437953795 -2.35636183408341  2.66569799979998
 1  9.61878394559456 -2.74713456345635  1.25880550215022
 1 -9.31389842514251  1.30309262186219 -2.02504500140014
 1 -9.19364416931693  2.70904442644264 -1.17605765196520
 1 -10.36295656065607  2.52877788318832 -2.74072404570457
 1  8.29340493129313 -0.59569034923492  0.23807685728573
 1 -8.26874026922692  0.67573176727673 -0.58306195869587
 1  7.89243247534754  2.65343037893789  1.79743912641264
 1  6.69088096879688  3.34233193739374  0.66608918861886
 1  8.31968620632063  3.48929759175918  0.08146492359236
 1 -8.41360231243124 -3.12431949104910 -1.25743243684368
 1 -8.60575156345634 -2.95542873017302  0.70362650195019
 1 -7.09562411501150 -3.70598324962496 -0.30614950015001
 1  6.26846771127113 -0.08621384818482 -0.32819483618362
 1 -6.12147413201320  0.17010894939494 -0.19304958175818
 1  4.75531888918892  2.53112155625563  0.46188909570957
 1 -4.99320942124212 -2.82277579397940 -0.18625076617662
 1  3.90995126182618 -0.28929349924992 -0.08511887348735
 1 -3.84291192239224  0.06574290419042 -0.58610047674767
 1  2.83294399379938  3.01298169426943  1.57459611491149
 1  1.34050125092509  2.97090782258226  0.66955668316832
 1  2.57836489528953  3.49753022652265 -0.14744871447145
 1 -3.23747561716172 -3.60432878877888 -1.11478648944895
 1 -2.69264086988699 -3.78365035793579  0.65440009140914
 1 -1.66680765206521 -3.67424775917592 -0.45289751615162
 1  0.36546894769477  1.18937485268527  0.17161780698070
 1 -1.29850093869387  0.01772976017602 -0.37312503860386
 1  2.16899544404440 -1.30421947164716 -0.61583114731473
 1  0.12672318311831 -2.42879792209221 -0.60341120202020

