%nproc=4
%Mem=2GB
# td=(NStates=1) B3LYP/6-31G(d,p) 

TD

0 1
 6  12.11183552615261  0.36740734123412 -0.76089220812081
 6 -12.14088640274027 -0.16847188878888  0.80446962586259
 6  13.33154256695670 -0.45247490749075 -0.54380037903790
 6 -13.10137663756376  0.91351574307431  1.34321503590359
 6  13.09956227042704 -1.98810448284829 -0.44977673647365
 6 -13.51622621872187  1.87252576467647  0.27311767886789
 6  11.03566536043604 -0.08728446394639  0.15791332913291
 6 -11.05829349714971  0.32113199549955 -0.08327596239624
 6  12.21699613701370 -2.20566286028603  0.80111408770877
 6 -12.28476835943594  2.55673598179818 -0.37351568746875
 6  11.06909661766177 -1.18147020152015  0.95545211361136
 6 -11.07756255045505  1.59598522032203 -0.60857973167317
 6  11.67769835753576  0.26823794889489 -2.27885636423642
 6  12.52394580798080  1.78213226832683 -0.41049256825683
 6 -13.00499809060906 -1.26766388508851 -0.02573874397440
 6 -11.57547641564156 -0.91421459505951  2.08976712491249
 6  9.87994605720572  0.80190630423042  0.26293829432943
 6 -9.88482828972897 -0.67054959705971 -0.33032712051205
 6  10.00206438273827 -1.56383619531953  2.00832346724672
 6 -9.96945991619162  2.14918665776578 -1.41841330623062
 6  8.63402964266427  0.48799875607561  0.33568177437744
 6 -8.52541549994999 -0.22468233353335 -0.44231055395540
 6  7.42979154735474  1.41801060136014  0.39771238383838
 6 -7.46014490839084 -1.23076155125513 -0.52981337823782
 6  7.74914796449645  2.89576221342134  0.53241567856786
 6 -7.85285247344734 -2.56447645874587 -0.82615989358936
 6  6.22679658115812  0.90603499249925  0.33288544754475
 6 -6.13934254415441 -0.77039786238624 -0.46912902460246
 6  4.89753040374037  1.63521585348535  0.37476713571357
 6 -4.91964157595760 -1.58040401820182 -0.40494187578758
 6  3.80981969356936  0.85720328552855  0.29497144644464
 6 -3.74294968016802 -0.89697032973297 -0.37868030573057
 6  2.46794009540954  1.35433614131413  0.20070455835584
 6 -2.46247524692469 -1.69334439313931 -0.37581086118612
 6  2.20059443104310  2.85724509100910  0.44373874717472
 6 -2.57322786818682 -3.19628315481548 -0.40036138623862
 6  1.25505705420542  0.64258560016002  0.03744866186619
 6 -1.30074824792479 -0.88967753975398 -0.32223092819282
 6  1.19293366556656 -0.80249519671967 -0.05036255595560
 6  0.07036757635764 -1.50746698649865 -0.24371812781278
 1  13.81356146194620 -0.28569614011401  0.45736377927793
 1  13.98199521332133 -0.33430180588059 -1.29443298169817
 1 -12.61340770577058  1.47086947714771  2.18863242804280
 1 -13.98101895949595  0.32692218451845  1.67088352645265
 1  14.03193381538154 -2.51336215391539 -0.37219066486649
 1  12.77396327802780 -2.35846974697470 -1.39859598289829
 1 -14.28995238343834  2.65880924092409  0.44635567316732
 1 -14.16520130393039  1.33377305150515 -0.62071609370937
 1  12.69581154495449 -2.01239374597460  1.69122100410041
 1  11.81389884438444 -3.28820251235124  0.93895075067507
 1 -12.13499329142914  3.31446916761676  0.24930144714472
 1 -12.66650286418642  2.76720022782278 -1.30434433563356
 1  11.58990236073607 -0.81802487978798 -2.60124825752575
 1  12.38769565026503  0.88579324062406 -2.86854342834283
 1  10.80509808110811  0.67284039573957 -2.32199291879188
 1  12.72896385048505  1.73352025392539  0.72058939943994
 1  11.95081348824882  2.73601351225123 -0.50157431443144
 1  13.45201705800580  2.03320359025903 -0.97212948404841
 1 -13.35376460716072 -0.62488649764976 -0.87428352905291
 1 -13.63690586318632 -1.54775057925793  0.60900812151215
 1 -12.31013861706171 -2.04545295019502 -0.48268415091509
 1 -10.96056854775478 -0.19216485588559  2.61065072417242
 1 -11.02165869126913 -1.85093609430943  1.61109512571257
 1 -12.35617968196820 -1.22323679157916  2.86544507260726
 1  10.09680308690869  1.89097395749575  0.39482539043904
 1 -10.10497494219422 -1.78173328332833 -0.43935031303130
 1  9.25904998249825 -0.83201079577958  2.32738649624963
 1  10.62526334043404 -1.80465666356636  2.99177060706071
 1  9.24089615681568 -2.45436528652865  1.55134475607561
 1 -9.12648968426843  1.43163547614761 -1.66255875277528
 1 -9.28569337423742  2.76849037103710 -0.87728777497750
 1 -10.57026729172917  2.71773677907791 -2.22573254655466
 1  8.21426701750175 -0.43355413561356  0.14504755435544
 1 -8.17120051525153  1.03294748884888 -0.25909956245625
 1  8.38847207930793  2.97246228212821  1.26505588808881
 1  6.74331621232123  3.45010271447145  0.50066264596460
 1  8.36914115181518  3.27476613861386 -0.36211943484348
 1 -8.83124407660766 -2.76405346444644 -1.55649234283428
 1 -8.06556754505450 -3.12214540184018  0.39760589988999
 1 -7.10581513411341 -3.17821047234723 -1.05510439563956
 1  6.01402226672667 -0.23222844964496  0.14996297959796
 1 -6.02475446004600  0.29369130763076 -0.29890016681668
 1  4.80467382468247  2.73504194829483  0.38562146894689
 1 -4.80025012531253 -2.77027054345435 -0.37538968006801
 1  3.87150741744174 -0.32682725262526  0.16881652005201
 1 -3.69917754895490  0.28192452235224 -0.44927679437944
 1  2.58052875227523  2.88265866196620  1.50127878317832
 1  1.15328252905291  3.09940067186719  0.34975470297030
 1  2.86360341914191  3.70015048854885 -0.09412338193819
 1 -3.15318718831883 -3.71692004790479 -1.34922993379338
 1 -2.85053665946595 -3.80268226112611  0.47404205560556
 1 -1.43018398969897 -3.59525986038604 -0.52148437483748
 1  0.22944534533453  1.33056897209721 -0.07317667246725
 1 -1.40745183378338  0.27374536173617 -0.59801752785279
 1  2.07446599109911 -1.46290534023402  0.04034447024702
 1  0.19463997479748 -2.46503154545454 -0.46269713061306

