%nproc=4
%Mem=2GB
# td=(NStates=1) B3LYP/6-31G(d,p) 

TD

0 1
 6  12.13582792539254  0.47287788828883 -0.77836395529553
 6 -12.10761307540754 -0.16246128772877  0.82622180108011
 6  13.43728314101410 -0.42836249624962 -0.68069406840684
 6 -13.08293479337934  1.04707909940994  1.32384309870987
 6  13.15698801300130 -1.96082175457546 -0.52801456025603
 6 -13.46719131523152  2.02665117721772  0.22838320542054
 6  11.04300609450945  0.02694695919592  0.23972150995100
 6 -11.01155882368237  0.38073795609561 -0.17411504630463
 6  12.37577201460146 -2.16933922792279  0.70893486978698
 6 -12.21467134973497  2.65135544374437 -0.51527986388639
 6  11.22451215921592 -1.14239629412941  0.98352492089209
 6 -11.07810260446045  1.73133875567557 -0.67914678837884
 6  11.57205779347935  0.30533165826583 -2.17810628922892
 6  12.62878629202920  1.90570462556256 -0.71656317531753
 6 -12.98173576437644 -1.14935205390539 -0.02503867396740
 6 -11.44397326532653 -0.86198937253725  1.97105525372537
 6  9.90700876347635  0.92729884348435  0.30021202170217
 6 -9.88841864876488 -0.57026956905691 -0.33641772957296
 6  10.29650382668267 -1.44951476317632  2.20883351825183
 6 -9.90775374557456  2.26678841794179 -1.63534499939994
 6  8.58483472317232  0.49918987518752  0.30747895409541
 6 -8.55922888128813 -0.29974984028403 -0.19562588548855
 6  7.43799236743674  1.33836263656366  0.52786539913991
 6 -7.51783067696770 -1.32986146124612 -0.46169656655666
 6  7.63767681738174  2.83749638683868  0.51905434243424
 6 -7.97774496269627 -2.73379339043904 -0.75895317291729
 6  6.19858375987599  0.83328771777178  0.33873603260326
 6 -6.22159076897690 -0.85995681828183 -0.28380049174917
 6  4.86643729442944  1.50061239313931  0.57575723472347
 6 -5.04693430523052 -1.62473845164516 -0.38906028762876
 6  3.68205691729173  0.79430699589959  0.29186113541354
 6 -3.76815220042004 -1.12415304800480 -0.12023446114611
 6  2.35746904830483  1.32772348004800  0.28448293619362
 6 -2.55719471887189 -1.83738879757976 -0.37166044614461
 6  2.22728710031003  2.79223859035904  0.57122149544955
 6 -2.56025657105711 -3.34291781828183 -0.75474682478248
 6  1.19844139263926  0.55229657125713  0.17397231423142
 6 -1.39819799289929 -1.03620219221922 -0.20977968306831
 6  1.09167353955396 -0.82353730093009 -0.15421294099410
 6 -0.14047350775078 -1.49819605940594 -0.29803355935594
 1  13.86884699049905 -0.05442301280128  0.19826786968697
 1  14.11212822662266 -0.06427480318032 -1.51237477587759
 1 -12.59688605360536  1.55069745994599  2.19818338313831
 1 -13.90487134473447  0.45529502180218  1.85551198929893
 1  13.94814543654365 -2.51516233393339 -0.46226967276728
 1  12.69878576027603 -2.37401130113011 -1.56542266556656
 1 -14.03414680288029  2.72945630563056  0.53539457705771
 1 -13.89537432123212  1.51309098329833 -0.56646066816682
 1  12.93774573837384 -2.11392389898990  1.58638052005201
 1  11.78761621612161 -3.19256294839484  0.81522837843784
 1 -11.88235802790279  3.30875859655966  0.15163168016802
 1 -12.42516873077308  3.34132764056406 -1.43185708690869
 1  11.52657602810281 -0.71562463976398 -2.49667780048005
 1  12.23465034573457  0.68414307560756 -2.98785535953595
 1  10.64056162746274  0.87110022172217 -2.14673539303930
 1  12.93546450055006  2.24470137203720  0.26375371587159
 1  11.83225163206320  2.46574648554855 -1.12955711271127
 1  13.49620147644765  2.03345361526153 -1.38602087318732
 1 -13.43893312401240 -0.61757576657666 -0.75671177187719
 1 -13.71512368496850 -1.70356616081608  0.73611083178318
 1 -12.25745334853485 -2.00119852475248 -0.53875975847585
 1 -10.87874036493649 -0.37702334173417  2.59025868496850
 1 -10.79639616501650 -1.67686868756876  1.51990600680068
 1 -12.32356642064206 -1.37659212711271  2.48022655075508
 1  10.00674408100810  2.13358821892189  0.27316322422242
 1 -10.21773621832183 -1.55839094909491 -0.74634101210121
 1  9.70179425692569 -0.60253784848485  2.47706146374637
 1  10.93558437253725 -1.71510770867087  3.05269669966997
 1  9.62818488568857 -2.42942279227923  2.22045166676668
 1 -9.30984802010201  1.35884819741974 -1.87550004690469
 1 -9.33425823072307  3.14326784878488 -1.03693373957396
 1 -10.38088835383538  2.63228823422342 -2.41673164646465
 1  8.54246983778378 -0.52878365856586  0.19620266986699
 1 -8.07101049624963  0.59511370547055 -0.15488914141414
 1  8.39259249134913  2.85945098099810  1.58306768926893
 1  6.69840172087209  3.46875457965797  0.75449802950295
 1  8.24533877157716  2.98747740974097 -0.52422564546455
 1 -8.55395634783478 -2.72585964506451 -1.55656234983498
 1 -8.58027901620162 -3.20186337363736  0.01132727202720
 1 -6.97013156575658 -3.28806145744575 -0.90250913611361
 1  6.18141900640064 -0.29430465726573  0.31745972927293
 1 -6.04076606120612  0.16493843234323 -0.00446072287229
 1  5.08993235053505  2.66133457755776  0.75521842864286
 1 -5.08819892019202 -2.54660817721772 -0.84035617671767
 1  3.78804907160716 -0.22903747364736  0.01688132653265
 1 -3.63571120232023 -0.09148281838184  0.16290442374237
 1  2.56281698109811  3.01161155725573  1.59695835113511
 1  1.05321252205221  2.97962869466947  0.67877760526053
 1  2.56970402920292  3.32249272277228 -0.16831080068007
 1 -3.10886275587559 -3.40947930383038 -1.77990300110011
 1 -3.33497510331033 -3.89323131603160 -0.22589793839384
 1 -1.62479345064506 -3.75726606100610 -0.59047127352735
 1  0.30231263206321  1.26034194939494  0.31930257545755
 1 -1.66026711531153 -0.07569958275828  0.04204647854785
 1  2.01201974647465 -1.18141719141914 -0.30536010021002
 1  0.03519403020302 -2.41232627492749 -0.71875273617362

