%nproc=4
%Mem=2GB
# td=(NStates=1) B3LYP/6-31G(d,p) 

TD

0 1
 6  12.10469481208121  0.60390099059906 -0.72144826372637
 6 -12.11450376447645  0.01399635803580  0.89872905180518
 6  13.38905831853185 -0.34412407240724 -0.64760075907591
 6 -12.99158565846585  1.21116550805080  1.25563627802780
 6  13.12275458965897 -1.78478415081508 -0.43817557635764
 6 -13.38617321342134  2.15792430453045  0.07213758085809
 6  10.99092088598860 -0.01972770827083  0.16674421222122
 6 -10.96411407920792  0.42313219551955  0.02131449664967
 6  12.10605504290429 -2.15103739773977  0.73046702300230
 6 -12.10287016961696  2.61641194939494 -0.61959029492949
 6  10.95498520652065 -1.14203625812581  0.88649521792179
 6 -10.95252004620462  1.56465208700870 -0.75218409210921
 6  11.61178176587659  0.70066119121912 -2.18326680528053
 6  12.54453786718672  1.93803785888589 -0.11565308430843
 6 -12.88955654645465 -1.09035615431543  0.17604143404340
 6 -11.51496036403640 -0.46872004560456  2.23709185738574
 6  9.71365942854285  0.88990510411041  0.28753075357536
 6 -9.88880868776878 -0.64714725682568 -0.12491657945795
 6  10.05652982928293 -1.60078989068907  1.95996863176318
 6 -9.80523349354936  2.08695043414341 -1.67530899579958
 6  8.48814505420542  0.47152710891089  0.25662386858686
 6 -8.57787074547455 -0.30332019731973 -0.23373969686969
 6  7.34338290649065  1.27551635193519  0.40644325692569
 6 -7.43939283318332 -1.35768424352435 -0.32312270917092
 6  7.51137418711871  2.73296593379338  0.86201863886389
 6 -7.77041422962296 -2.88228823992399 -0.41195847344734
 6  6.07710161166117  0.71081547054705  0.21386354535454
 6 -6.09432804270427 -0.91205202780278 -0.20569268096810
 6  4.80164081478148  1.37080941284128  0.32968262726273
 6 -4.90910052185219 -1.70999697749775 -0.32332371397140
 6  3.59302801440144  0.69625719091909  0.17820977027703
 6 -3.69701508670867 -1.18118875157516 -0.46031846954695
 6  2.34765806720672  1.29713042074207  0.28313280118012
 6 -2.41994099349935 -1.84778983768377 -0.52771605170517
 6  2.14873924552455  2.77157652415242  0.65319969326933
 6 -2.53199374477448 -3.32462598909891 -0.82129347944794
 6  1.21923347184718  0.54295563716372  0.02417733473347
 6 -1.24704287738774 -1.16407497949795 -0.42330103520352
 6  1.17257162936294 -0.80859580678068 -0.36582410211021
 6  0.08573911351135 -1.68389462926293 -0.55406916291629
 1  14.09211931773177 -0.17076464696470  0.25722376527653
 1  14.07221423522352 -0.22460083578358 -1.60938447684768
 1 -12.34358072307231  1.97500989118912  1.91930549534954
 1 -13.79220007760776  0.84724421672167  1.81430786888689
 1  14.06713733573357 -2.28494931263126 -0.25842928872887
 1  12.92608849054906 -2.11949584958496 -1.46866298959896
 1 -13.93061644984498  3.03930729072907  0.56240727832783
 1 -13.94487927172717  1.67839751395140 -0.65195921802180
 1  12.58820078387839 -2.24078658525853  1.71826370837084
 1  11.77361481598160 -3.27118081018102  0.48126498209821
 1 -11.61635142724272  3.53237095779578 -0.16560004300430
 1 -12.36936315021502  2.95997950575058 -1.61295519671967
 1  11.50684405490549 -0.31271434873487 -2.67655578827883
 1  12.28005488618862  1.13348801010101 -2.93114968896890
 1  10.62193976527653  1.15342845454545 -2.28528924842484
 1  12.78671962606261  1.95387228912891  0.96943428392839
 1  11.55059346624662  2.71967187808781 -0.33900805780578
 1  13.25388724502450  2.35171544144414 -0.83484575567557
 1 -13.36644587528753 -0.87196120512051 -0.85406150685068
 1 -13.80408258085808 -1.43588939313931  0.73787100780078
 1 -12.23254085728573 -2.02738114301430 -0.27639352185219
 1 -11.18879137003700  0.33924828542854  2.71631129022902
 1 -10.84300082548255 -1.43983498419842  1.97469148534854
 1 -12.45858992299230 -0.68552302020202  2.70704923302330
 1  9.98321172777278  2.01127598769877  0.21517742564256
 1 -10.13096754145414 -1.79785489548955 -0.22541891989199
 1  9.40775485298530 -0.65890348504851  2.16778053565357
 1  10.52793360746075 -2.08086428432843  2.92156358635863
 1  9.30953302050205 -2.44347419741974  1.78414803640364
 1 -8.94387142244224  1.26423873647365 -1.78752124902490
 1 -9.38276308120812  3.19599312131213 -1.51501154735474
 1 -10.45520578557856  2.12532753815381 -2.65526549984999
 1  8.48821441224122 -0.73081386158616  0.16501955155516
 1 -7.91374476967697  0.66750094419442 -0.01956560906091
 1  8.09737296939694  2.82480751665166  1.81977135963596
 1  6.60265214591459  3.33979168336834  0.97465004470447
 1  8.06660089778978  3.18169683168317 -0.08638186108611
 1 -8.24020497269727 -3.03479053815381 -1.40285697929793
 1 -8.44796578487849 -3.19647283458346  0.48921506080608
 1 -6.90141469406941 -3.69216186748675 -0.37449633483348
 1  5.92816368086809 -0.33045827262726  0.00653863716372
 1 -6.10730271487149  0.08663060156016 -0.20815109190919
 1  4.78301165846585  2.48583702780278  0.40232313911391
 1 -5.01171127142714 -2.80369388578858 -0.38929107020702
 1  3.72185245194519 -0.41419598949895  0.22685232363236
 1 -3.66238386958696 -0.19815348544855 -0.31735360206021
 1  2.43166386578658  2.71883227932793  1.72725138043804
 1  1.12977017781778  3.24626535833583  0.55565529302930
 1  2.96359341814181  3.66683715721572  0.09608563896390
 1 -2.96315818541854 -3.63954231013101 -1.80798580938094
 1 -2.91885349114912 -3.71306329922992  0.13172782418242
 1 -1.44202517381738 -3.70750108450845 -0.66760898729873
 1  0.10021242204220  0.95821173637364  0.13674431963196
 1 -1.19608069666967 -0.10467248004800 -0.15717344344434
 1  2.01590013451345 -1.33995304500450 -0.39380894509451
 1  0.23091360216022 -2.66760180248025 -1.07488834973497

