%nproc=4
%Mem=2GB
# td=(NStates=1) B3LYP/6-31G(d,p) 

TD

0 1
 6  12.21944628722872  0.47457805830583 -0.65836195509551
 6 -12.14877719181918 -0.14850989258926  0.74558373727373
 6  13.45877529022902 -0.38720838083808 -0.42688868786879
 6 -13.06586308620862  1.01157554905491  1.29057977237724
 6  13.17543985818582 -1.81927760016002 -0.44967672647265
 6 -13.52909750585058  2.00785929802980  0.18481884898490
 6  10.99570136403640 -0.10400613611361  0.18816635443544
 6 -11.02463013081308  0.36824670697070 -0.10002763756376
 6  12.24054849224922 -2.21952424642464  0.73384736103610
 6 -12.23797367996800  2.59917022522252 -0.45839417531753
 6  11.04476418441844 -1.25327738223822  0.98467503590359
 6 -11.08322311651165  1.66770239203920 -0.69367824152415
 6  11.74497508520852  0.37035816091609 -2.19558803740374
 6  12.47653106650665  1.95532958805881 -0.29121064006401
 6 -12.92784037483748 -1.30223734243424  0.04734856475648
 6 -11.58618748674867 -0.76555972957296  2.07421556975698
 6  9.79679774237424  0.73838995259526  0.29428142864286
 6 -9.85368517541754 -0.57046958905891 -0.25222931073107
 6  10.03712788908891 -1.74263407510751  1.86015865076508
 6 -9.97860083028303  2.08683042214221 -1.70053151805181
 6  8.54105034473447  0.48664862106211  0.20217842404240
 6 -8.51630458885889 -0.37216708200820 -0.23903022592259
 6  7.37114568276828  1.33851265156516  0.36680929352935
 6 -7.41399029292929 -1.28381685678568 -0.40402079897990
 6  7.53327637733773  2.72837547474747  0.89415185218522
 6 -7.77026421462146 -2.67287729882988 -0.78406568416842
 6  6.12770667216722  0.84108849784979 -0.05972381338134
 6 -6.13334194409441 -0.76926774937494 -0.14575668736874
 6  4.83760441114111  1.50502283418342  0.14234389338934
 6 -4.95027463926393 -1.65237121492149 -0.23921530313031
 6  3.65572428402840  0.78460602580258 -0.02298034873487
 6 -3.72948833403340 -1.08726935963596 -0.06703914161416
 6  2.41700500190019  1.37441814951495  0.16140062796280
 6 -2.48885788518852 -1.71200625932593 -0.29673295339534
 6  2.38647301890189  2.85992535903590  0.41027540084008
 6 -2.45669621502150 -3.11704523102310 -0.61137248734873
 6  1.22826437493749  0.67644898649865  0.08794371137114
 6 -1.35927410051005 -0.97360593259326 -0.25682438753875
 6  1.10166453865387 -0.66968191539154 -0.21644916461646
 6 -0.02930239063906 -1.48281452125212 -0.30481423742374
 1  14.12849295509551 -0.17496506700670  0.25997404030403
 1  14.31043805760576 -0.15119349504950 -1.25707924632463
 1 -12.39747611261126  1.67027941814181  2.04792835763576
 1 -13.89656051365137  0.55366485878588  1.97823426152615
 1  14.12643326532653 -2.34112493019302 -0.53704715051505
 1  12.66037191889189 -1.96590049004901 -1.42037816111611
 1 -14.24726811501150  2.72848620862086  0.48389942754275
 1 -14.10403518731873  1.33283295749575 -0.62025604770477
 1  12.91770373417342 -2.20850335693569  1.66388827082708
 1  11.81626908140814 -3.17601129322932  0.67388424402440
 1 -11.75955574767477  3.25231295199520  0.11225774277428
 1 -12.34442065596560  3.12283579137914 -1.57581148234823
 1  11.85733910441044 -0.83303638093809 -2.64634276697670
 1  12.54031091179118  0.66991165246525 -2.87065363936394
 1  10.67995556685669  1.03145625732573 -2.29845056455646
 1  12.58287924202420  1.90515741764176  0.81590893139314
 1  11.55990439733973  2.60482039293929 -0.64655881288129
 1  13.50133198949895  2.16496676657666 -0.74910718181818
 1 -13.49997922862286 -0.95201921092109 -0.86602270297030
 1 -13.54078625122512 -1.89434523872387  0.91472869356936
 1 -12.18339594279428 -2.04160256515652 -0.27245312781278
 1 -10.81365385628563 -0.11414705410541  2.57501716081608
 1 -10.97581410681068 -1.71963296399640  1.88713272947295
 1 -12.27653171717172 -1.00448491639164  2.65825435353535
 1  10.15423883048305  1.66855171527153  0.62972888078808
 1 -10.22317676237624 -1.59050416041604 -0.39490586858686
 1  9.43603768126813 -0.91076867156716  2.38748250585058
 1  10.52802361646165 -2.14712090999100  2.69920135013501
 1  9.51182324952495 -2.60003985398540  1.48700832243224
 1 -9.54313134843484  1.33210552315232 -2.12530502740274
 1 -9.38088289318932  2.65058858085809 -0.96045609180918
 1 -10.60158042304231  2.60055506090609 -2.47183715701570
 1  8.25066065686569 -0.53664444464446 -0.21114806520652
 1 -7.99100249544954  0.59438363246325  0.14142048954896
 1  7.97598083018302  2.93875891179118  1.81649103160316
 1  6.54726660736074  3.28096580078008  1.03165574527453
 1  8.10234447214721  3.26705536753675  0.11831860896090
 1 -8.19910086228623 -2.77752481158116 -1.88836553015302
 1 -8.58408939723972 -3.09631281858186  0.04305044434443
 1 -6.89992454505451 -3.46681933323332 -0.76024490969097
 1  6.14831569606961 -0.18243347014701 -0.28766078277828
 1 -5.72850483508351  0.37745968446845  0.22992271547155
 1  4.88475183248325  2.52661110521052  0.29393230003000
 1 -4.98400850115012 -2.68116163256326 -0.50184232533253
 1  3.76730699739974 -0.21632620252025  0.03715335373537
 1 -3.71461909310931 -0.00529419951995  0.20942907620762
 1  3.12934363376338  3.25667606370637  1.27673632893289
 1  1.32941014181418  3.10259099089909  0.58945867336734
 1  2.56946400520052  3.67990846434643 -0.39674364396440
 1 -2.94939680928093 -3.16491484738474 -1.54274928572857
 1 -3.11981358715872 -3.82590458335834  0.05295994739474
 1 -1.40435140644064 -3.67658799319932 -0.71473369976998
 1  0.30470287108711  1.08530444564456  0.24091473667367
 1 -1.42181326992699  0.04913290049005  0.18336060996100
 1  2.05065360986099 -1.23597264696470 -0.32966253045304
 1  0.20822133293329 -2.60300534283428 -0.26407726862686

