%nproc=4
%Mem=2GB
# td=(NStates=1) B3LYP/6-31G(d,p) 

TD

0 1
 6  11.95461980458046  0.55805640614061 -0.80988710761076
 6 -12.03718603270327  0.01617657605761  0.90439961886189
 6  13.35957537023702 -0.23536319631963 -0.61689768876888
 6 -12.83344984488449  1.20514490599060  1.43726444084408
 6  13.19243155735574 -1.76054172657266 -0.45303706250625
 6 -13.25084968106811  2.17170568266827  0.26760712781278
 6  11.03669546344634  0.04183844834483  0.33647118491849
 6 -10.81114878267827  0.50305018731873 -0.03230086488649
 6  12.29703414081408 -2.01847414141414  0.73987796409641
 6 -11.93377325992599  2.66725703390339 -0.41122945884588
 6  11.20882059005901 -1.10117217171717  0.99755632403240
 6 -10.88674346854685  1.67807342914291 -0.64959383308331
 6  11.42933352105211  0.19398052315232 -2.19202768136814
 6  12.31590500390039  2.03822787788779 -0.59833135213521
 6 -13.02880047084708 -1.00569768846885  0.11979580948095
 6 -11.43877274527453 -0.71941511511151  2.14624277247725
 6  9.74976303890389  0.90709682328233  0.48448044854485
 6 -9.89376918381838 -0.53575611771177 -0.35013910171017
 6  10.32494667096710 -1.50267007870787  2.21999463436344
 6 -9.85951892209221  2.14183592269227 -1.78695015991599
 6  8.50176641634163  0.47714767096710  0.34049225542554
 6 -8.49291224962496 -0.41607147244724 -0.16729305220522
 6  7.36158472667267  1.27016581688169  0.43979659225923
 6 -7.53878277217722 -1.37019549464946 -0.49586998389839
 6  7.50350340004000  2.82761539873987  0.68115055205521
 6 -7.95219240744074 -2.77447745884588 -0.77837511511151
 6  6.10588448994899  0.82415680468047  0.38687084608461
 6 -6.24265287518752 -0.97083790639064 -0.33669578127813
 6  4.78501915261526  1.46678901080108  0.35690534953495
 6 -5.06572618441844 -1.73127910571057 -0.54132551415142
 6  3.68608732033203  0.66293385858586  0.25726767606761
 6 -3.77621300650065 -1.20673130583058 -0.47226966466647
 6  2.32505580698070  1.26905761346135  0.26170065796580
 6 -2.50501950135014 -1.95702076077608 -0.56355963606361
 6  2.13985835743574  2.70948031453145  0.55201957525753
 6 -2.53191373677368 -3.47832135863586 -0.71373272337234
 6  1.18280982948295  0.56279762136214  0.09408432543254
 6 -1.33918209130913 -1.17452602460246 -0.45603430853085
 6  1.14476884908491 -0.86228117531753 -0.24722224192419
 6  0.03270380998100 -1.61082732253225 -0.51322507850785
 1  13.71536164196420  0.11331376087609  0.29524756765677
 1  14.05302231603160 -0.02841121682168 -1.36431997039704
 1 -12.13218958395839  1.67137952815282  2.08648221302130
 1 -13.79687054465447  0.72036152845285  1.78939537763776
 1  14.14931555355536 -2.30500131783178 -0.34143758955896
 1  12.70956683838384 -2.17652155215522 -1.43329945324532
 1 -13.66920030823082  3.14398775877588  0.61024206180618
 1 -14.01955673947395  1.73943361756176 -0.49957397949795
 1  12.97685964976498 -2.10880338693869  1.68351023302330
 1  11.80761821632163 -3.11253494559456  0.56368322392239
 1 -11.44044383648365  3.23986170687069  0.31340785778578
 1 -12.16451266516652  3.22281578937894 -1.27577147834783
 1  11.32373574407441 -0.92211528882888 -2.32123025572557
 1  12.05841272197220  0.57477213851385 -3.11047762176218
 1  10.52014958625863  0.81805491719172 -2.43760447994800
 1  12.55231618571857  2.32797969986999  0.46649398989899
 1  11.52316072297230  2.75058496939694 -0.76457061406141
 1  13.01345320162016  2.58978924882488 -1.42830510161016
 1 -13.24959419011901 -0.43854786378638 -0.72858895959596
 1 -14.01753392599260 -1.16200200440044  0.87464468516852
 1 -12.33294089728973 -1.85102350725073 -0.11015689818982
 1 -10.85821831273127 -0.03061870127013  2.65303496259626
 1 -10.95713223862386 -1.75371637233723  1.95432944914491
 1 -12.40464452845285 -0.75042951085109  2.98023655175518
 1  9.97031043764376  1.94299916001600  0.57823373127313
 1 -10.23944838953895 -1.64071918191819 -0.36196257425743
 1  9.82819689718972 -0.58834642934293  2.38913267086709
 1  11.06379719381938 -1.89510570847085  2.94607603760376
 1  9.44680674787479 -2.23685353535354  1.76928655025503
 1 -9.47136417171717  1.14198651125112 -2.08709120602060
 1 -9.11527633253325  2.92400592259226 -1.43738378457846
 1 -10.66765703070307  2.62086709210921 -2.55172514581458
 1  8.29033462426243 -0.48440922112211  0.22606565616562
 1 -7.75506890209021  0.51531572567257  0.11813816131613
 1  7.94671790389039  2.93543857975798  1.74373375587559
 1  6.50048192889289  3.31949965416542  0.63190577027703
 1  8.15274951265127  3.23688235023502  0.01980875797580
 1 -8.85802675487549 -2.65562262136214 -1.30024671827183
 1 -8.38132912121212 -3.23035622292229  0.06064220352035
 1 -7.03868842144214 -3.33657630893089 -0.97566645184518
 1  6.07885875037504 -0.37835306210621  0.48831681498150
 1 -6.18871085568557  0.07242918141814 -0.06295657245725
 1  4.76577993529353  2.53213165726573  0.72719562636264
 1 -5.05779587988799 -2.87236075247525 -0.67509965106511
 1  3.82685295199520 -0.48803337323732  0.18270790919092
 1 -3.65151278247825 -0.11028469856986 -0.25661752845285
 1  2.40142084148415  2.68400879697970  1.84693334863486
 1  1.20029723052305  3.00754148594859  0.67459718721872
 1  2.82022908170817  3.25328580208021  0.10969700010001
 1 -3.11681355095509 -3.83020137603760 -1.50038504930493
 1 -3.00887249304930 -3.94693668656866  0.20556520792079
 1 -1.42945391669167 -3.97625796019602 -0.83787601400140
 1  0.31612401320132  1.00495641084108  0.07289793499350
 1 -1.46447753635364 -0.01602361516152 -0.12872059815982
 1  2.26408495299530 -1.30489953965396 -0.41647121132113
 1  0.01264177497750 -2.63375841814181 -0.74305516641664

