%nproc=4
%Mem=2GB
# td=(NStates=1) B3LYP/6-31G(d,p) 

TD

0 1
 6  12.20215455805580  0.63204380488049 -0.62429854875488
 6 -11.99273158725873 -0.08586362796280  0.89396857575758
 6  13.49822923562356 -0.21123078307831 -0.67963396239624
 6 -12.83510000990099  1.28052244374437  1.29581029542954
 6  13.27311962616262 -1.76719239163916 -0.67770952975298
 6 -13.31564616071607  2.03936244834483  0.05210557765777
 6  11.02220401430143 -0.03165890139014  0.22267980578058
 6 -10.98929659745975  0.42509239153915 -0.13554118891889
 6  12.43732817021702 -2.05431772577258  0.60273424972497
 6 -12.01210109270927  2.63720402860286 -0.68916725262526
 6  11.24531423942394 -1.28958101260126  0.76469303770377
 6 -11.03405820002000  1.57443306510651 -0.87468634233423
 6  11.77874846254626  0.70827195229523 -2.16158463706371
 6  12.67644105750575  2.13896795189519 -0.20118163716372
 6 -13.07158474927493 -1.05686280498050  0.20526435633563
 6 -11.48017688568857 -0.59099227282728  2.11754990319032
 6  9.84041210381038  0.81937805140514  0.28839083958396
 6 -9.96745655255526 -0.58734127622762 -0.33948803660366
 6  10.16112028832883 -1.96985679737974  1.69322195709571
 6 -10.12261523172317  1.89824156325633 -2.03344480938094
 6  8.46942318201820  0.42011196739674  0.21499970617062
 6 -8.65146810521052 -0.33321318661866 -0.14841116401640
 6  7.36794536273627  1.28457725802580  0.44541715431543
 6 -7.51359025292529 -1.30686916201620 -0.34739513641364
 6  7.66152920262026  2.75175781298130  0.81795423242324
 6 -7.92907009520952 -2.69061907300730 -0.56992427002700
 6  6.13782768426843  0.71952634163416  0.25627778677868
 6 -6.27476608650865 -0.90177099969997 -0.26402851455146
 6  4.83838448914891  1.42231456335634  0.51158081708171
 6 -5.09806941874187 -1.72399837763776 -0.26355773737374
 6  3.69716842844284  0.68422598779878  0.22861481078108
 6 -3.85635102030203 -1.19175980868087 -0.10496293399340
 6  2.32205550695069  1.26234694239424  0.32146663456346
 6 -2.64272327172717 -1.79076413511351 -0.24494777487749
 6  2.21463583518352  2.75592495899590  0.50418479177918
 6 -2.64442498789879 -3.31350487698770 -0.62101345144514
 6  1.12413396189619  0.51247258885889  0.13433835083508
 6 -1.47050522362236 -1.12706127812781 -0.11470017511751
 6  1.07979235143514 -0.89825477267727 -0.14234175387539
 6 -0.09644910531053 -1.58264450425043 -0.29316307230723
 1  14.04179428522852  0.14450688018802  0.34755279817982
 1  14.15513252705271  0.16389801410141 -1.45621916031603
 1 -12.33857022202220  1.99323171337134  1.90329389418942
 1 -13.70632148974897  0.84153364566457  1.74365080318032
 1  14.39253987598760 -2.30236105380538 -0.66145959175918
 1  12.95210109180918 -1.84400830083008 -1.73150927422742
 1 -14.04390777897790  3.01778513851385  0.16017705530553
 1 -13.80124490829083  1.32483215741574 -0.69974399649965
 1  13.04518648244824 -1.93868637523752  1.57886976897690
 1  12.19661711621162 -3.16779047114711  0.60100695629563
 1 -11.60605039713971  3.41529925062506 -0.09740322332233
 1 -12.64831104500450  3.24156766456646 -1.57290119131913
 1  11.56541991249125 -0.10806388368837 -2.54060219291929
 1  12.42427930863086  1.10382504380438 -2.71521809580958
 1  10.76706427772777  1.32766587828783 -1.96467718721872
 1  13.06303725782578  2.10262716461646  0.89507684818482
 1  12.01125953285328  2.99932984388439 -0.47410156715672
 1  13.54112596889689  2.32928319821982 -0.86174844594459
 1 -13.51275050575058 -0.60423443244324 -0.57858395909591
 1 -13.92487466006601 -1.22499830403040  0.75896311701170
 1 -12.64288189138914 -2.04412281718172 -0.10730661316132
 1 -10.57192968386839  0.06294065466547  2.35930558965897
 1 -10.99422594799480 -1.38123912461246  1.72278629482948
 1 -12.15364942894289 -0.87067153505351  2.82898142624262
 1  9.89071247784779  1.96088094819482  0.24753066096610
 1 -10.16888133283328 -1.61025613561356 -0.44510088808881
 1  9.25855993349335 -1.27124471917192  1.92983674127413
 1  10.57583839793979 -2.21086728462846  2.64692612261226
 1  9.54128619581958 -2.79978982898290  1.19375899749975
 1 -9.52295933123312  1.16978929152915 -2.32229472637264
 1 -9.48177298219822  2.87219074107411 -1.71492153835384
 1 -10.85559582458246  2.31845685108511 -2.92746271957196
 1  8.43637922872287 -0.67835861606161 -0.01900885128513
 1 -8.60177357255725  0.73789798389839  0.15167151465146
 1  7.90367359945995  2.77987302320232  1.84616399889989
 1  6.69437131783178  3.32913061726173  0.84478705840584
 1  8.23107734543454  3.44885354735474  0.26313309040904
 1 -8.21424237643764 -2.79097615671567 -1.70767746134613
 1 -8.87351834013401 -2.96401958925893  0.28987512681268
 1 -7.06765131773177 -3.36802945424542 -0.38212709790979
 1  5.95548641314131 -0.20975620242024 -0.14808682538254
 1 -5.74584656925693  0.12059399789979 -0.07805808260826
 1  5.00155351265126  2.45442388648865  0.97710061686169
 1 -5.21847194749475 -2.60148366476648 -0.76083822492249
 1  3.88694896159616 -0.33194776467647 -0.38618898049805
 1 -3.77754538573857 -0.16350002010201  0.52440057335734
 1  2.66986768616862  3.02542293839384  1.63306196149615
 1  1.05915311611161  2.91793252505251  0.67665739323932
 1  2.80561762056206  3.53746421992199 -0.11221519111911
 1 -3.41178304790479 -3.45829418531853 -1.50411542234223
 1 -2.98396000180018 -3.98744073697370  0.22679733113311
 1 -1.68961993329333 -3.87634796919692 -0.93017524392439
 1  0.15651805260526  1.17833374857486  0.15462610781078
 1 -1.49789087768777 -0.04326633943394  0.27989026292629
 1  2.08194673917392 -1.42280132983298 -0.05639520372037
 1  0.14461497229723 -2.79078412071207 -0.33613447434743

