%nproc=4
%Mem=2GB
# td=(NStates=1) B3LYP/6-31G(d,p) 

TD

0 1
 6  12.05951029362936  0.46330693119312 -0.83923004190419
 6 -12.11959427352735 -0.08422346394639  0.87675685458546
 6  13.41031044374438 -0.24749440944094 -0.71554755375538
 6 -13.05510201010101  1.00383477497750  1.29658037243724
 6  13.17179949414941 -1.81335700810081 -0.34921668046805
 6 -13.37268186428643  1.98188670077008  0.19081944904490
 6  11.02186398029803  0.04685895039504  0.23749128692869
 6 -10.94378204600460  0.54091397369737 -0.03898153295330
 6  12.39953439083908 -1.94165645964596  0.93548752505251
 6 -12.08965884848485  2.74044435263526 -0.30226856275628
 6  11.18606831483148 -1.03118517301730  1.07842441084108
 6 -10.95024981918192  1.73517913971397 -0.67330620432043
 6  11.54156474417442  0.33193431853185 -2.24615309390939
 6  12.55661907530753  1.95086914201420 -0.58123964296430
 6 -12.88612620342034 -1.10925804450445 -0.08439460956096
 6 -11.58971783978398 -0.90236340994099  2.06602475067507
 6  9.74294235683568  0.88890500410041  0.32873487398740
 6 -9.80956076297630 -0.45312785488549 -0.22829691749175
 6  10.25684986128613 -1.61533134483448  2.11447408230823
 6 -9.86508947914792  2.25686742584258 -1.57181864676468
 6  8.48098433813381  0.46397635383538  0.36235444164416
 6 -8.58763172157216 -0.27015688098810 -0.26738306120612
 6  7.34759332753275  1.22914171447145  0.60374298689869
 6 -7.46941583548355 -1.20626910201020 -0.39256965386539
 6  7.55209825952595  2.76209884708471  0.60666310331033
 6 -7.92766995519552 -2.68677868896890 -0.58736601420142
 6  6.13599750125012  0.69737412641264  0.38771093009301
 6 -6.21973058295830 -0.80811163376338 -0.29944205590559
 6  4.85278592929293  1.38584091599160  0.33634329332933
 6 -4.95325493729373 -1.70487646544654 -0.38225960756076
 6  3.65459417101710  0.60966853205321  0.23951590089009
 6 -3.72487787298730 -1.14273490619062 -0.29523196089609
 6  2.32591589298930  1.23766447414741  0.08457294519452
 6 -2.49071807120712 -1.92294735343534 -0.43188646874687
 6  2.22046641824182  2.74477384388439  0.34681905520552
 6 -2.60296084148415 -3.34627815431543 -0.84476582668267
 6  1.11324287278728  0.51666300790079  0.02147706470647
 6 -1.29561773487349 -1.12512108410841 -0.37790649574958
 6  1.11137550975097 -0.84021896909691 -0.30040756045605
 6  0.06798733833383 -1.69092533233323 -0.34318807480748
 1  13.93386349214921  0.23519594909491  0.11323936683668
 1  14.14920193399340 -0.11648002370237 -1.62128566696670
 1 -12.51039740474047  1.52413480368037  2.27734129892989
 1 -13.95440629822982  0.60296978927893  1.60291672977298
 1  14.23486410841084 -2.17936875457546 -0.46187963376338
 1  12.43904978667867 -2.31775567556756 -0.98656477977798
 1 -14.17388077627763  2.69578293829383  0.51650268786879
 1 -13.77381216501650  1.26485615981598 -0.79394341644164
 1  12.89183114691469 -1.63970647724772  1.82339422142214
 1  12.17297475197520 -3.10984467656766  1.07775463106311
 1 -11.54003379547955  3.43301102180218  0.82791930893089
 1 -12.34076028992899  3.41159466726673 -1.12940684188419
 1  11.62605597609761 -0.70387346464646 -2.75198333103310
 1  12.25198207890789  0.88723338463846 -2.89504607860786
 1  10.58582615391539  0.79564267596760 -2.54369508900890
 1  12.91342229632963  2.04561146304630  0.47920526102610
 1  11.72006041294129  2.73265317621762 -0.68811296829683
 1  13.26398825512551  2.36044631453145 -1.21283355445545
 1 -13.31324055475548 -0.69467347634763 -0.96885298599860
 1 -13.55413758635864 -1.69226503070307  0.55169238993899
 1 -12.41148875207521 -2.02207061196120 -0.25706158865887
 1 -11.13961645254525 -0.06428206760676  2.64077373647365
 1 -10.94126065146515 -1.58658965966597  1.47882189838984
 1 -12.58741280528053 -1.39822429032903  2.54703323142314
 1  10.01497490409041  1.91826668676868  0.55525143304330
 1 -10.18750319501950 -1.39217432743274 -0.47450382838284
 1  9.48380245774578 -0.64856245094509  2.52128588618862
 1  10.66319713381338 -1.94092028992899  3.04365579557956
 1  9.53180524772477 -2.29727957795780  1.61726134773477
 1 -9.34455149044904  1.41068338093809 -2.03544604150415
 1 -9.14511931683168  2.81265478747875 -1.10608065426543
 1 -10.29431969696970  2.91992699809981 -2.33226319961996
 1  8.37882347314731 -0.58571935213521  0.19929297889789
 1 -8.13252664786479  0.72916711081108  0.05645199269927
 1  8.15786901900190  2.93787882378238  1.43524290679068
 1  6.58659053975398  3.27840554475448  0.85301788148815
 1  8.01128536623662  3.30021868386839 -0.24052727562756
 1 -8.49306025822582 -2.79647670677068 -1.45197189078908
 1 -8.80616160446045 -3.01507469476948  0.24317045634563
 1 -7.20409496209621 -3.42125477677768 -0.47506639183918
 1  6.20595145964596 -0.49861508830883  0.12112009530953
 1 -6.11905388998900  0.16819875837584  0.10173989718972
 1  4.69538289558956  2.49324776887689  0.55242814961496
 1 -5.01145124542454 -2.67554107050705 -0.38633077417742
 1  3.67405767246725 -0.43383795369537  0.20029966836684
 1 -3.70178780998100 -0.22134580468047 -0.12891475817582
 1  2.54384508390839  3.17885828192819  1.45382403770377
 1  1.24397159795980  3.16982771457146  0.25851557905791
 1  3.02611967076708  3.13407388088809 -0.30058402800280
 1 -3.37011888148815 -3.52116047194719 -1.69011402220222
 1 -2.87676928272827 -3.89794178707871  0.08199285068507
 1 -1.57583855515551 -3.52165249964996 -1.07280950735074
 1  0.19941234203420  1.04006992219222 -0.09580893569357
 1 -1.51074216281628  0.05633362056206 -0.08244597069707
 1  2.01965050955095 -1.43202225192519 -0.35291485568557
 1  0.18009852065206 -2.65477051935193 -0.61233209410941

