%nproc=4
%Mem=2GB
# td=(NStates=1) B3LYP/6-31G(d,p) 

TD

0 1
 6  12.21653599619962  0.65361596209621 -0.46040215911591
 6 -12.12965527962796  0.05731068946895  0.96909608850885
 6  13.45389480218022 -0.22923258325833 -0.44418041704170
 6 -12.90275677557756  1.22158655015502  1.40211092549255
 6  13.17000931513151 -1.72610828322832 -0.56519827862786
 6 -13.42192678877888  2.13091160326033  0.18460882798280
 6  10.96272806670667 -0.06880261576158  0.24958249604960
 6 -10.90630829862986  0.38981886418642 -0.01859949474947
 6  12.19003344074407 -2.15943823782378  0.66610058635864
 6 -12.08102798539854  2.62426273447345 -0.51802013791379
 6  11.10892060006001 -1.26177823232323  0.94728129652965
 6 -11.01155594979498  1.57427304910491 -0.71602047574757
 6  11.80471105880588  0.78659978507851 -2.00087856645665
 6  12.62539595299530  2.11174522962296  0.14780326132613
 6 -12.97707529832983 -1.03406052475248  0.38726255615562
 6 -11.50655952395240 -0.60660383398340  2.26418456665667
 6  9.81020908350835  0.86145225882588  0.53532553305331
 6 -9.88979878677868 -0.53811635373537 -0.15586967476748
 6  10.11167534383438 -1.82980279197920  1.86205884078408
 6 -10.01554452465247  2.02413415251525 -1.78144960986099
 6  8.49630587028703  0.51755171137114  0.42012021822182
 6 -8.56167912631263 -0.29357922322232 -0.22888921182118
 6  7.44032260046005  1.24607340764076  0.41511412401240
 6 -7.47888678257826 -1.36090456555656 -0.36837723462346
 6  7.65059810951095  2.74100673787379  0.72607504450445
 6 -7.83327051525152 -2.89287929902990 -0.44766204380438
 6  6.16978087958796  0.85483987298730  0.11000315931593
 6 -6.23362197209721 -0.87853867646765 -0.37834994669467
 6  4.81424207490749  1.47353968586859  0.05885554455446
 6 -5.04019363116312 -1.66045202300230 -0.39087046864686
 6  3.67938665026503  0.70250781598160 -0.17830588128813
 6 -3.79242462766277 -1.11294192689269 -0.51066350405041
 6  2.33101640304030  1.26023673137314 -0.07547305940594
 6 -2.51795079447945 -1.88134319301930 -0.55561884198420
 6  2.22159653125313  2.75186455295530  0.24481885518552
 6 -2.63860440584058 -3.48214174067407 -0.68079943004300
 6  1.16400794929493  0.47737907950795 -0.20708579157916
 6 -1.42566073917392 -1.16306487848785 -0.41996070117012
 6  1.07560193239324 -0.98001294849485 -0.31364888458846
 6 -0.04033349374938 -1.72860910071007 -0.36441019701970
 1  14.06839694549455  0.00618304780478  0.55586362926293
 1  14.08103511731173  0.10901252555256 -1.36882042044204
 1 -12.28544490949095  2.00417280748075  1.82543610841084
 1 -13.85534639223923  1.05624511681168  1.87337377547755
 1  14.21995261726173 -2.37639845754575 -0.50256370217022
 1  12.60324620632063 -1.86855075507551 -1.57213333663366
 1 -13.97945133333333  3.03891725172517  0.47503854145415
 1 -13.99595437923792  1.57861753595359 -0.65976999909991
 1  12.76714867866787 -2.54519702630263  1.72799468146815
 1  11.92635008950895 -3.11308500060006  0.47954481008101
 1 -11.53242303440344  3.39256697739774  0.17135365236524
 1 -12.21054726862686  3.09713322112211 -1.59737363856386
 1  11.72712608310831 -0.17574065136514 -2.33698183088309
 1  12.60583746444645  1.20538519981998 -2.58244481848185
 1  10.84582215351535  1.32953606530653 -2.19371009050905
 1  12.86900785488549  1.86404330623062  1.20367770827083
 1  11.86180458735874  2.93179309020902 -0.06524068106811
 1  13.73210506680668  2.44623489338934 -0.29460173127313
 1 -13.64351358205821 -0.49033304230423 -0.26533263396340
 1 -13.65855802840284 -1.64645044924492  0.98867608830883
 1 -12.42517012021202 -1.82949135403540 -0.07416329882988
 1 -11.06395888678868  0.35886024662466  2.84111377047705
 1 -11.04137066246625 -1.44344534523452  2.06941095729573
 1 -12.21044510851085 -0.91918638653865  3.12674120222022
 1  10.21196460306031  1.78434329442944  0.69855576347635
 1 -10.21633607830783 -1.63616872687269  0.09889351135114
 1  9.58320239773978 -1.14220181488149  2.60583434103410
 1  10.64522533663366 -2.60791698959896  2.34704613461346
 1  9.18372043924392 -2.32652250225023  1.10829045064506
 1 -9.50740777607761  1.19103141574157 -2.33109560646065
 1 -9.10895570047005  2.51275479747975 -1.07013705990599
 1 -10.50816108110811  2.84185919131913 -2.50675064836484
 1  8.42741833263326 -0.44190497069707  0.26978002760276
 1 -8.16686008120812  0.71538573267327 -0.02810646314631
 1  8.14578781088109  2.90577561346135  1.73914329682968
 1  6.80504238493849  3.49731743594359  0.84450703040304
 1  8.32053629132913  3.26801546354635 -0.08107133003300
 1 -8.94228518071807 -3.13206026512651 -1.14705139873987
 1 -8.22519350765076 -3.22398558585859  0.46919305860586
 1 -7.00805535813581 -3.47448009930993 -0.58671755695570
 1  6.14025488998900 -0.19601482828283  0.01739972327233
 1 -5.95593757835783  0.13620555905591 -0.38019829662966
 1  4.71945530283028  2.54897334143414  0.19546245304531
 1 -5.14263436373637 -2.66222973937394 -0.44525666676668
 1  3.97136740344034 -0.34600917081708 -0.44757511911191
 1 -3.78449608080808 -0.13552722282228 -0.44579644634463
 1  2.80535123452345  3.23688408450845  1.15897455275528
 1  1.31253845464546  3.04776550835084  0.18843857135713
 1  2.61101816061606  3.28302877637764 -0.62392636223622
 1 -3.26179804940494 -3.67805616151615 -1.65315032583258
 1 -3.32481408720872 -3.93681567446745  0.14270892229223
 1 -1.80937190849085 -4.06936727112711 -0.74018624502450
 1  0.28407080788079  1.15318123332333 -0.12114146894689
 1 -1.54011510011001 -0.03781579437944 -0.11824955105511
 1  2.09978852335234 -1.51503055275528 -0.44351391559156
 1  0.00904141494149 -2.86225126742674 -0.77032789368937

