%nproc=4
%Mem=2GB
# td=(NStates=1) B3LYP/6-31G(d,p) 

TD

0 1
 6  12.29126346894689  0.47493809430943 -0.68763488238824
 6 -12.25029734383438 -0.13284832643264  0.83102228112811
 6  13.62230164286429 -0.18935859585959 -0.53951995099510
 6 -13.14492099199920  1.06378076957696  1.32492320672067
 6  13.26484879907991 -1.76435210761076 -0.50674243304330
 6 -13.48475307140714  2.08158667076708  0.14279464656466
 6  11.05442723662366 -0.00205594109411  0.22437997579758
 6 -11.03566123392339  0.34167404970497 -0.14113174797480
 6  12.49393383078308 -2.06750904490449  0.83450742704270
 6 -12.22388227082708  2.54963527172717 -0.46109444534453
 6  11.28755846384638 -1.18147020152015  0.95193176157616
 6 -11.08521331553155  1.53365898769877 -0.72666153985399
 6  11.72823341104110  0.46641776687669 -2.15289376797680
 6  12.60745415881588  1.97339139423942 -0.37495901490149
 6 -13.13557114791479 -1.15322244094409 -0.03599977007701
 6 -11.66631549954995 -0.84977815141514  2.02196034423442
 6  9.83496155875588  0.78811492509251  0.22906490699070
 6 -9.95283509040904 -0.57504004610461 -0.31286537433743
 6  10.31263543984398 -1.65692550425043  1.96359899479948
 6 -10.01106407660766  2.16210794989499 -1.69907137203720
 6  8.57849408910891  0.33261321752175  0.18022622882288
 6 -8.63723668206821 -0.26865673097310 -0.25350167306731
 6  7.44584315251525  1.14948374867487  0.16037865046505
 6 -7.56738563246325 -1.26786526162616 -0.44773517041704
 6  7.60900395009501  2.71243388058806  0.43857629462946
 6 -7.76740392859286 -2.73279329042904 -0.61283856145615
 6  6.18075197669767  0.66826121512151  0.20475263426343
 6 -6.24139274917492 -0.79029985258526 -0.28723083478348
 6  4.86998764946495  1.32363469536954  0.40330998999900
 6 -5.03789340114011 -1.55340131793179 -0.34478586018602
 6  3.71041975357536  0.77921548674867  0.15360731003100
 6 -3.82260764596460 -1.02758339103910 -0.23356579427943
 6  2.36825012641264  1.31353206090609  0.40311479937994
 6 -2.62724172357236 -1.70450550925093 -0.35081836193619
 6  2.45641001260126  2.79975934243424  0.71673604690469
 6 -2.65244578997900 -3.16198972547255 -0.52333368346835
 6  1.23021456995700  0.59753109470947  0.25668058505851
 6 -1.40059823292329 -1.00110868286829 -0.37985669076908
 6  1.05640001220122 -0.80001494869487 -0.09086660636064
 6 -0.03227268766877 -1.47388362816282 -0.26228998499850
 1  13.99737984378438 -0.00821839233923  0.56181422432243
 1  14.26861387518752 -0.22725110081008 -1.48125166356636
 1 -12.54662102710271  1.64620701090109  2.10360392519252
 1 -13.99854071167117  0.97473696599660  1.87653409150915
 1  14.16274689668967 -2.44610542824282 -0.59528297409741
 1  12.52606848854886 -1.96060996099610 -1.36938306160616
 1 -14.10236362456246  2.78137149714972  0.63630466806681
 1 -14.12055683948395  1.50175985018502 -0.63265728782878
 1  13.12609457325733 -2.00530303690369  1.59708159015902
 1  12.01416887138714 -3.19320301240124  0.46982383798380
 1 -11.99042883498350  3.63695141584158  0.02502901990199
 1 -12.58157437133713  2.83849735753575 -1.43233713491349
 1  11.60746411691169 -0.54473755105511 -2.64852298499850
 1  12.33801068176818  1.01158581988199 -2.92934950895089
 1  10.70254782608261  0.94698781048105 -2.47957867736774
 1  12.55149610371037  2.03634053595360  0.70031737223722
 1  11.82039044594459  2.86382629352935 -0.85076923392339
 1  13.66565842214221  2.04939520942094 -0.94540681178118
 1 -13.74217344804480 -0.56752076107611 -0.85671177187719
 1 -13.74595676827683 -1.77651345554555  0.75523274397440
 1 -12.46030363356336 -1.86263466836684 -0.58932481498150
 1 -10.75575806670667 -0.31462710211021  2.37635729482948
 1 -11.37762428782878 -2.05004600530053  1.80504452065206
 1 -12.32592665666567 -1.00379484738474  2.75530405850585
 1  9.86712011861186  1.82080694079408  0.21260716861686
 1 -10.35294973967397 -1.56302141214121 -0.45880225822582
 1  9.51503558105811 -0.86909450415041  2.38796255385539
 1  10.98677949204921 -2.03239943784378  2.77982941294129
 1  9.80477254445445 -2.59382923292329  1.60695031663166
 1 -9.43169020432043  1.24111642424242 -2.16076857375738
 1 -9.22322712761276  2.68459198119812 -1.09588963516352
 1 -10.60211047604761  2.83217822322232 -2.43343331663166
 1  8.25294088488849 -0.65910669086909 -0.04898184858486
 1 -8.41973536873687  0.76005019911991  0.00690703820382
 1  8.20020325242524  2.50263529942994  1.53432281478148
 1  6.68859073977398  3.16623432763276  0.55271785148515
 1  8.27520175787579  3.36110477247725 -0.13906712961296
 1 -8.11153210541054 -2.86874393349335 -1.68133482708271
 1 -8.54340532883288 -3.04520770807081  0.20137627692769
 1 -6.81165571817182 -3.29548219951995 -0.64978386358636
 1  6.00116098059806 -0.37147237403740  0.20013799709971
 1 -6.02079406400640  0.35380731923192 -0.19304958175818
 1  4.75360871817182  2.45210365446545  0.83169607640764
 1 -4.96063616391639 -2.55312882928293 -0.32640478157816
 1  3.88807907460746 -0.32515708560856 -0.24210457205721
 1 -3.66929456065607  0.04901123102310 -0.15489735643564
 1  3.01360205960596  3.04011440754075  1.61388004330433
 1  1.41865906670667  3.19289002080208  0.91626135363536
 1  2.94470152895290  3.19955042854285 -0.22844681428143
 1 -3.25916778637864 -3.51446980288029 -1.43884889568957
 1 -3.26958856465647 -3.77601959485949  0.33954860626063
 1 -1.66587755905590 -3.59237957235724 -0.65664789118912
 1  0.20638303910391  1.12336825202520  0.39599024422442
 1 -1.24869595819582  0.04984297149715 -0.21953968006801
 1  2.01428997349735 -1.19436848654865 -0.06320588478848
 1  0.02236274707471 -2.58516355865587 -0.48066892779278

