%nproc=4
%Mem=2GB
# td=(NStates=1) B3LYP/6-31G(d,p) 

TD

0 1
 6  12.15265960856085  0.54937553805381 -0.83232935183518
 6 -12.12474478857886 -0.08701374297430  0.69636881578158
 6  13.38896830953095 -0.29522918291829 -0.78421442044204
 6 -12.95306180608061  1.01846623812381  1.27246796119612
 6  13.11931424562456 -1.74935060746075 -0.61090284908491
 6 -13.32198679477948  2.11091960406041  0.21588195529553
 6  11.04030582448245 -0.00370610611061  0.18560609840984
 6 -11.04937260506050  0.41732161446145 -0.14180181498150
 6  12.34319875727573 -2.12245453945395  0.67545152145215
 6 -12.08867875047505  2.66794710291029 -0.49930826672667
 6  11.22257196519652 -1.20098215271527  0.87261382978298
 6 -11.00346514071407  1.65079070087009 -0.76761563526353
 6  11.56005659335934  0.48524965006501 -2.26274475307531
 6  12.56191960536054  1.97646170127013 -0.49107062606261
 6 -12.98661625242524 -1.01506862556256 -0.07148331843184
 6 -11.55766463446345 -0.86297947154715  1.97358550675068
 6  9.87767583018302  0.87011312491249  0.38205020552055
 6 -9.85654546144614 -0.51483402550255 -0.29201328912891
 6  10.14150832713271 -1.68232804450445  1.83913654855486
 6 -10.01051402160216  1.90773251235123 -1.89751121602160
 6  8.61437767746775  0.38027798399840  0.41422962916292
 6 -8.49364232263226 -0.26126599189919 -0.24777110001000
 6  7.43938250645065  1.25025382568257  0.45654826742674
 6 -7.50128902280228 -1.30546902200220 -0.37578797569757
 6  7.56453950365037  2.70508314551455  0.88691112811281
 6 -7.92704989318932 -2.81084109520952 -0.54454173177318
 6  6.10300420192019  0.74292868186819  0.20848300730073
 6 -6.19973858375838 -0.83990481308131 -0.35427753945395
 6  4.90125077577758  1.42617494939494  0.41525118411841
 6 -5.03869348114812 -1.58238421622162 -0.52407378897890
 6  3.75336404800480  0.75420298549855  0.23849579887989
 6 -3.75875126032603 -1.06174680738074 -0.36395883358336
 6  2.39801310271027  1.29962066976698  0.36448093599360
 6 -2.48934793419342 -1.77985304400440 -0.26914019411941
 6  2.11091546314631  2.75287465396540  0.64697907120712
 6 -2.64675522092209 -3.30390391689169 -0.37900925102510
 6  1.24450599909991  0.58513985558556  0.25050996799680
 6 -1.36107428052805 -1.07405597759776 -0.06222492759276
 6  1.13756812901290 -0.82952789999000 -0.04076159585959
 6 -0.07846730713071 -1.54911115091509 -0.09331308730873
 1  14.10903100890089  0.19844227372737  0.04925296819682
 1  14.02798981278128 -0.00703907960796 -1.49970350875088
 1 -12.44113047804780  1.56907929812981  2.21297486228623
 1 -13.97475833343334  0.66442593489349  1.79506594469447
 1  13.97428805080508 -2.51108192589259 -0.59563300910091
 1  12.75787166886689 -2.16009990999100 -1.59889601290129
 1 -13.91712510071007  3.04704806480648  0.51794283188319
 1 -14.06062084588459  1.64659433363336 -0.50956497859786
 1  12.68804076787679 -2.00047255385539  1.45360724272427
 1  12.00611806630663 -3.11457514961496  0.52777963356336
 1 -11.62321211331133  3.54811253195319 -0.05663914691469
 1 -12.43298951285129  3.03894740254025 -1.42186608780878
 1  11.35983935443544 -0.60276335363536 -2.67616574927493
 1  12.25378225892589  1.05782044334433 -3.01599817381738
 1  10.64083165446545  0.96427953965397 -2.16154687418742
 1  12.53952490659066  2.25325222712271  0.45851319181918
 1  11.81924033093309  2.93827373827383 -0.70375453245325
 1  13.45258711501150  2.52320259015902 -1.05483775487549
 1 -13.51297052775278 -0.19927393639364 -0.86270237093709
 1 -13.74031620422042 -1.12263806800680  0.69845706640664
 1 -12.43968157135714 -1.89840824572457 -0.63651953445345
 1 -10.89034152505251 -0.09225486488649  2.57770742984298
 1 -11.01480800620062 -1.71520252095210  1.61231524772477
 1 -12.30254431843184 -1.34164863276328  2.61039956805681
 1  9.97635104170417  1.93116797689769  0.39150505840584
 1 -10.26698114281428 -1.53056816681668 -0.58443482148215
 1  9.42606668416842 -0.88299589428943  2.27144090169017
 1  10.56884769886989 -2.26163236113611  2.84108553855386
 1  9.46163823102310 -2.52643249324932  1.49899952155216
 1 -9.37741477677768  1.15639795239524 -2.15292778967897
 1 -9.55896070097010  2.82303582558256 -1.50515056125613
 1 -10.21628189318932  2.36912191759176 -2.79421939523952
 1  8.33479907070707 -0.64304508470847 -0.05290224062406
 1 -8.15274867006701  0.72861705580558 -0.01086473897390
 1  8.12910614271427  2.94797983388339  1.72883226572657
 1  6.61778365906591  3.13064076827683  0.68717129682968
 1  8.10123436113611  3.23137179917992  0.09556633373337
 1 -8.46681763396340 -2.90265732483248 -1.50559725332533
 1 -8.58775976427643 -3.07913110041004  0.14745088438844
 1 -6.98455300790079 -3.47467011831183 -0.57549643484348
 1  6.04200506500650 -0.43101832863286  0.08276625992599
 1 -6.08194017861786  0.35212715121512 -0.12688296509651
 1  4.85656901420142  2.49744818891889  0.70946385318532
 1 -5.12276237653765 -2.74642815921592 -0.54024616571657
 1  3.89442970967097 -0.28293286318632 -0.13315367696770
 1 -3.62120975217522  0.17682401230123 -0.18246011271127
 1  3.01237193659366  3.02638303440344  1.42357101240124
 1  0.94891209200920  2.94449518131813  1.09651937943794
 1  2.17601466026603  3.52640311381138 -0.39689365896590
 1 -3.46537840744074 -3.73435179107911 -1.09827483828383
 1 -2.64003560936094 -3.95234722762276  0.73197784918492
 1 -1.64311528282828 -3.88201853625363 -0.74707693409341
 1  0.37124952575258  0.98561447664766  0.36111675687569
 1 -1.57582867146715  0.07079506670667 -0.02233996009601
 1  2.16365490999100 -1.38241729142914 -0.07716728092809
 1 -0.03764325352535 -2.59156419871987  0.06698583768377

