%nproc=4
%Mem=2GB
# td=(NStates=1) B3LYP/6-31G(d,p) 

TD

0 1
 6  12.08886322892289  0.58745934643464 -0.72103822272227
 6 -12.17767008110811  0.01139609800980  0.76811599049905
 6  13.40175958865887 -0.22609226922692 -0.65266126512651
 6 -12.97891439133913  1.24653904540454  1.19127984238424
 6  13.18974128832883 -1.77132280468047 -0.75117687648765
 6 -13.38254285038504  2.05991450355036 -0.02234186708671
 6  10.98725051895190  0.00038430293029  0.20568810661066
 6 -10.94425209300930  0.47279716201620 -0.13497113191319
 6  12.27760219761976 -2.20212250625063  0.37724170047005
 6 -12.09434931753175  2.60612092029203 -0.67620595649565
 6  11.13498320632063 -1.22574462896290  0.73401997039704
 6 -10.95998079227923  1.63902952475248 -0.85461433513351
 6  11.61983257095710  0.62856398149815 -2.21338981758176
 6  12.48307172057206  1.94976903200320 -0.37698921792179
 6 -13.04433202400240 -1.15609272797280 -0.02553872397240
 6 -11.62976184418442 -0.63096627022702  2.02516066426643
 6  9.84697275987599  0.87346345994599  0.48866086658666
 6 -9.95000480738074 -0.52419496159616 -0.32088617641764
 6  10.17238141444144 -1.87940775247525  1.80849348424843
 6 -9.97811078127813  2.04010574967497 -1.81380284518452
 6  8.59495573527353  0.46918687488749  0.32808101430143
 6 -8.60620357875788 -0.41307117241724 -0.12856917981798
 6  7.50461903010301  1.36431523182318  0.40192280488049
 6 -7.51257015091509 -1.33626210131013 -0.19218961586159
 6  7.64362741244124  2.85171780898090  0.67733017001700
 6 -7.90547773597360 -2.71834184528453 -0.55858313591359
 6  6.16043994549455  0.81698608760876  0.30318247724772
 6 -6.20474908480848 -0.95739656225623 -0.14114622632263
 6  4.81037168786879  1.37442977487749  0.50605026402640
 6 -5.05130474227423 -1.76540251805181 -0.25458684028403
 6  3.70675938753875  0.69910747594759  0.25689763906391
 6 -3.79863524872487 -1.20192082478248 -0.23274571227123
 6  2.37881118251825  1.34013472117212  0.35586007390739
 6 -2.49169816921692 -1.86237129582958 -0.40995427552755
 6  2.20096446804680  2.77655702220222  0.71694606790679
 6 -2.50865141054105 -3.42963649014902 -0.55585693579358
 6  1.18932048054805  0.65317665926593  0.25803072007201
 6 -1.29939811291129 -1.18198677067707 -0.12380108520852
 6  1.09210358255826 -0.80485543274327 -0.02141966166617
 6  0.06157669726973 -1.60094633443344 -0.18911266726673
 1  13.90104020982098  0.13758618811881  0.45596363926393
 1  14.16551356515652  0.14210583488349 -1.42372591099110
 1 -12.32679904490449  1.89322171237124  1.97448101290129
 1 -13.89584044164417  0.85907539983998  1.73074951305130
 1  14.01633225522552 -2.39199001670167 -0.50618406420642
 1  12.72452833453345 -2.01281518151815 -1.77936405970597
 1 -13.97528091629163  2.90090345034503  0.40714175177518
 1 -13.87824260806081  1.59375905010501 -0.92864688678868
 1  12.65400736453645 -2.31891439803980  1.26100798279828
 1  11.99951740624062 -3.17551124322432  0.27038389398940
 1 -11.54770456255626  3.60999872057206 -0.25502898589859
 1 -12.34956117001700  3.13877738553855 -1.65713961516152
 1  11.37206057655766 -0.32168524582458 -2.74003213591359
 1  12.39380626132613  1.19848450975098 -2.86754332833283
 1  10.80312788408841  1.31017412911291 -2.26509722922292
 1  12.80565151925193  1.82015891779178  0.54339167966797
 1  11.73104151105110  2.68645855675568 -0.49780393739374
 1  13.22251410771077  2.39534980488049 -0.97924019511951
 1 -13.42771200190019 -0.83858786778678 -0.94373047374738
 1 -13.80025219781978 -1.19742554675467  0.62123934463446
 1 -12.44932253545355 -1.98967737263726 -0.21065694819482
 1 -10.94818730963096  0.03049741034103  2.44365402450245
 1 -11.05196172157216 -1.45059606030603  1.87287130333033
 1 -12.34521858585859 -0.92446691459146  2.68321684978498
 1  10.27156056265627  1.79295415551555  0.78718462636264
 1 -10.36836128082808 -1.36453156315632 -0.38032441044104
 1  9.38530260776078 -1.10135773047305  1.99055281288129
 1  10.73846466056606 -2.16479267716772  2.76167759775978
 1  9.63323539073907 -2.67313716371637  1.30249987158716
 1 -9.26773380868087  1.11522383498350 -1.92126462336234
 1 -9.39124392929293  3.04631815381538 -1.57105715191519
 1 -10.46950721572157  2.19738474387439 -2.75221519481948
 1  8.49079467026703 -0.57294807500750  0.16969001860186
 1 -8.37644103930393  0.59267346144614 -0.00842449494949
 1  8.14025725782578  2.86489152505251  1.69261864436444
 1  6.70142202290229  3.38357606180618  1.02321490119012
 1  8.13067730543054  3.62330099209921 -0.04561778467847
 1 -8.14985593779378 -3.03719077817782 -1.67117381098110
 1 -8.87610859915991 -2.93736692399240  0.04194033333333
 1 -7.05268982158216 -3.45311796309631 -0.22763164836484
 1  5.93332419691969 -0.21493672047205  0.16998498179818
 1 -5.92480446504650  0.08872081058106  0.18247797099710
 1  4.69126248354835  2.34473291739174  0.81812471927193
 1 -5.05532563286329 -2.93896741314131 -0.15588772987299
 1  3.86460672737274 -0.29771434133413  0.06566620502050
 1 -3.75091272247225 -0.09498316841684 -0.34106597329733
 1  2.56945764516452  2.81385178127813  1.69020767606761
 1  1.17726492729273  3.08035876767677  0.76531625912591
 1  2.72797985678568  3.51764223772377 -0.02369633923392
 1 -2.90551242084208 -3.51248960486049 -1.49837484828483
 1 -3.27703930973097 -3.82768476137614  0.20929558095810
 1 -1.59954092539254 -3.73908424282428 -0.50359258565857
 1  0.20779318011801  0.98712462766277  0.22801344654465
 1 -1.42098318691869 -0.16321833463346  0.05074734863486
 1  1.99412795729573 -1.48534758445845 -0.08793835803580
 1  0.19750026082608 -2.53896893919392 -0.30400126102610

