%nproc=4
%Mem=2GB
# td=(NStates=1) B3LYP/6-31G(d,p) 

TD

0 1
 6  12.16828117071707  0.56286688718872 -0.57888400730073
 6 -12.18464077817782  0.03349830823082  0.84808398729873
 6  13.49063847654766 -0.25289494949495 -0.52552855185519
 6 -12.93209970987099  1.11953634513451  1.32580329472947
 6  13.20790310451045 -1.80964663706371 -0.47080883968397
 6 -13.26751134723472  2.12101061316132  0.19941030813081
 6  10.98912070597060  0.00195445994599  0.20076761456146
 6 -10.99318698649865  0.41436131843184 -0.09664729952995
 6  12.25127956535654 -2.12685497949795  0.71630560686069
 6 -11.95188507110711  2.81498180638064 -0.35803413931393
 6  11.10768047604761 -1.19037109160916  0.84109067746775
 6 -10.92373716791679  1.65344096589659 -0.57970684438444
 6  11.91090167786779  0.72949407450745 -2.11681015961596
 6  12.53155656905691  2.06426048114811 -0.09697121612161
 6 -13.06273386418642 -1.04728184688469 -0.01103727382738
 6 -11.66034490249025 -0.75614878847885  2.05225337353735
 6  9.84556261886189  0.95699181278128  0.36484848534853
 6 -9.90017982488249 -0.56007854995500 -0.31108519631963
 6  10.09841401770177 -1.68564837653765  1.80296293119312
 6 -9.78231120132013  2.20850258935894 -1.51137260216022
 6  8.54272051175118  0.59929988618862  0.24166237243724
 6 -8.56906986538654 -0.34047391269127 -0.25277160006001
 6  7.36235480368037  1.28577737803780  0.32900551315132
 6 -7.64789368326833 -1.35043351845185 -0.38244864176418
 6  7.55212826252625  2.79806244344434  0.73222565956596
 6 -7.91021821002100 -2.81444145524552 -0.58976625422542
 6  6.16568046954696  0.69820420942094  0.16755891489149
 6 -6.26792540244024 -0.96693751635164 -0.37515962766277
 6  4.90203085378538  1.40719305120512  0.28094775377538
 6 -5.09451906370637 -1.79382536033603 -0.35171655325533
 6  3.69868858045805  0.69362692789279  0.05636758605861
 6 -3.86220160536054 -1.19212984568457 -0.28886132383238
 6  2.39211251265126  1.28624933263326  0.00268475637564
 6 -2.60037903730373 -1.94216927562756 -0.38960224032403
 6  2.28227259885989  2.79721908840884  0.15854022732273
 6 -2.61649219461946 -3.45587911441144 -0.43859520962096
 6  1.18862041054105  0.49252059365937 -0.14254933793379
 6 -1.39887806090609 -1.24925349734974 -0.21700040514051
 6  1.09246361856186 -0.93667861506151 -0.22121964166417
 6 -0.04518397879788 -1.67185342514251 -0.19420317631763
 1  14.12543264906491 -0.03888145864586  0.38919696259626
 1  14.21187820162016 -0.03857223292329 -1.44292783118312
 1 -12.38101446644664  1.89518190839084  1.95736930173017
 1 -13.95956681428143  0.78484797709771  1.87451388948895
 1  14.15347596959696 -2.31803262096210 -0.27571101690169
 1  12.69133501520152 -1.98598249824983 -1.34822094539454
 1 -13.99593298149815  2.99006236623662  0.65051608920892
 1 -13.72800758455846  1.58040771497150 -0.57026104820482
 1  12.79295125892589 -2.15051755835584  1.72258414041404
 1  11.91726918141814 -3.13144683678368  0.68441529712971
 1 -11.62495228732873  3.47462518321832  0.34140065706571
 1 -12.09126534043405  3.47287079487949 -1.28521242244224
 1  12.18921229172917 -0.32689576687669 -2.57247538023802
 1  12.48063494419442  1.55688034933493 -2.55934250825082
 1  10.74224179547955  0.88820193189319 -2.32852357185718
 1  12.47687864196420  2.19575647754775  1.05668300880088
 1  11.91298970587059  2.82436234713471 -0.43622777977798
 1  13.38984084038404  2.29224949484948 -0.69838210931093
 1 -13.35561479217922 -0.48660266926693 -0.94170027072707
 1 -13.92610478307831 -1.39821562576258  0.64446166686669
 1 -12.49607721092109 -1.98848725362536 -0.54517039953995
 1 -10.92049454035403 -0.21022666206621  2.63208286738674
 1 -11.39146567196720 -1.91670267096710  1.79239325552555
 1 -12.51429549354935 -0.83063753165317  2.76991551965197
 1  10.12146555315532  1.90667552765277  0.74574048194819
 1 -10.24779922462246 -1.46915202520252 -0.39265564356436
 1  9.32730680818082 -1.03540113481348  2.05091884948495
 1  10.46485729982998 -2.18211440934093  2.82399382938294
 1  9.48940100730073 -2.63910376037604  1.44275389698970
 1 -9.18855589088909  1.34381669426943 -1.77681017791779
 1 -8.95473027792779  2.84702822482248 -1.03049309550955
 1 -10.33499376437644  2.69437444284428 -2.42372234553455
 1  8.25229081988199 -0.53384416461646  0.23452650225022
 1 -8.19095249044904  0.65255945004500 -0.13524717721772
 1  8.06806003810381  2.85870090599060  1.74214359685969
 1  6.55057693839384  3.53142084628463  0.68549112881288
 1  8.06765100280028  3.49247790979098  0.15315209230923
 1 -8.57381833403340 -2.97846490559056 -1.43868056165617
 1 -8.32544353265326 -3.25978916621662  0.27492363166317
 1 -6.95160971357136 -3.33505615691569 -0.95301418661866
 1  6.33148401290129 -0.38343357015702  0.22273025632563
 1 -6.14034601920192  0.20031196969697 -0.32745302210221
 1  4.76765012231223  2.54589303340334  0.63059596639664
 1 -5.21798189848985 -2.87635115151515 -0.21089323042304
 1  3.60954122082208 -0.38078264816482 -0.17673803540354
 1 -3.73517114831483 -0.09766343644364 -0.26366823352335
 1  2.84422512191219  3.31437183328333  1.02548120342034
 1  1.18189539033903  3.11093182498250  0.23706343384338
 1  2.66065312411241  3.17360783428343 -0.71022499209921
 1 -2.96463833343334 -3.73288164406441 -1.34381939273927
 1 -3.26665827162716 -4.07703969686969  0.20190484188419
 1 -1.63484445574557 -3.92244257865787 -0.66658888528853
 1  0.31569397019702  1.04688060326033 -0.14948430323032
 1 -1.45912700130013 -0.13035504830483  0.03853612751275
 1  2.02201074557456 -1.38900795049505  0.05661609740974
 1  0.05233574437444 -2.70030507280728 -0.18106896779678

