%nproc=4
%Mem=2GB
# td=(NStates=1) B3LYP/6-31G(d,p) 

TD

0 1
 6  12.14417876047605  0.56974757525753 -0.62625874477448
 6 -12.09968228232823 -0.15952099369937  0.88400757965797
 6  13.54878429112911 -0.16987664766477 -0.35250124912491
 6 -13.00643714361436  1.10100449194919  1.40960167456746
 6  13.38981129532953 -1.72773844624462 -0.25628738753875
 6 -13.43405800190019  2.11805031713171  0.31038140524052
 6  11.17954974887489  0.08783304780478  0.22185972377238
 6 -11.01821948974897  0.43299318161816 -0.05069270407041
 6  12.33131756915692 -2.07653994799480  0.91076505280528
 6 -12.24278416101610  2.60703101130113 -0.33829216511651
 6  11.17102681068107 -1.06432848734873  0.98283485188519
 6 -11.01124591879188  1.66005162696270 -0.72033090679068
 6  11.80795138283828  0.33301442654265 -2.17891637023702
 6  12.37536094949495  2.03667772287229 -0.40259177817782
 6 -12.95777336813681 -1.12060917961796  0.19257308720872
 6 -11.51328019601960 -0.71241441504150  2.19824797299730
 6  10.01454951755176  0.98394450805081  0.23293529402940
 6 -9.90670047694769 -0.51101364346435 -0.23393748154815
 6  10.19314349064906 -1.49179899159916  2.03163579847985
 6 -10.14189715991599  2.32828456755676 -1.65105657055706
 6  8.69955619531953  0.33266322252225  0.19062726892689
 6 -8.57280023842384 -0.35010487578758 -0.23978030093009
 6  7.45330389858986  1.32190099039904  0.25122773537354
 6 -7.54863375727573 -1.29053752885289 -0.51830222712271
 6  7.50792384208421  2.78856149334933  0.54106654365437
 6 -7.96316350455046 -2.66092610371037 -0.85886316391639
 6  6.23053695519552  0.67915230423042  0.20838299729973
 6 -6.31542015191519 -0.88768959155916 -0.36629874157416
 6  4.96649730043004  1.29576190809081  0.15816547554755
 6 -5.04348396019602 -1.58697467526753 -0.47148853045305
 6  3.72491120272027  0.62785035023502  0.04731668096810
 6 -3.80501588678868 -1.08812944564456 -0.40081251895190
 6  2.40203350475048  1.13561426912691  0.19843433133313
 6 -2.61223022242224 -1.81178623732373 -0.56396967706771
 6  2.25352972457246  2.67601696819682  0.53459783308331
 6 -2.71894243964396 -3.27997152365237 -0.75619696979698
 6  1.26410795929593  0.47915925752575 -0.03925900890089
 6 -1.45744391749175 -1.16277484948495 -0.24337304240424
 6  1.09740411261126 -0.99755470267027 -0.24001152085209
 6 -0.13335279567957 -1.68766500630063 -0.32065582158216
 1  14.06952705850585  0.11796422592259  0.71553959685969
 1  14.17778479227923  0.07160878517852 -1.15157869626963
 1 -12.41432779777978  1.69144153435344  2.07156072087209
 1 -13.98668952655266  0.75891538383838  1.82324876297630
 1  14.28525914791479 -2.21322213991399 -0.13063650945095
 1  12.90017589928993 -1.96920082008201 -1.28758488178818
 1 -13.88301168936894  2.85028838883888  0.80289132673267
 1 -14.15969075287529  1.59931960616062 -0.43070709280928
 1  12.80124208800880 -1.98976148274827  1.80188207020702
 1  11.92187964246425 -3.01519521162116  0.74554140974097
 1 -11.68561835393539  3.36240396109611  0.45005152215221
 1 -12.51845805970597  3.12598610641064 -1.29026292749275
 1  11.79782315281528 -0.81441451875188 -2.21763989668967
 1  12.69135601630163  0.67748240954095 -2.80976755075508
 1  10.99647721902190  0.91818493019302 -2.41975269476948
 1  12.74254520862086  2.17695459735974  0.71526886738674
 1  11.62374078097810  2.54917482838284 -0.63818797579758
 1  13.18630048634864  2.38729899979998 -1.15193746484648
 1 -13.61358058875888 -0.69283329232923 -0.63381948264826
 1 -13.56302847544755 -1.52528833303330  0.97283450415042
 1 -12.36262386558656 -1.82023042794279 -0.17119300180018
 1 -10.84409690059006 -0.12131777117712  2.74254391349135
 1 -10.90030655605561 -1.61881288198820  2.05585960216022
 1 -12.31777584158416 -0.87160162806281  2.74058258635864
 1  10.05667907450745  1.95812067216722  0.36476238413841
 1 -10.33137758245825 -1.54531964196420 -0.32686906490649
 1  9.49118319581958 -0.74842243694369  2.29981373897390
 1  10.79497031113111 -1.71558775667567  3.16235766576658
 1  9.68897096429643 -2.52282213221322  1.88049767136714
 1 -9.22421945724572  1.61866417901790 -1.92384488138814
 1 -9.49041384628463  2.90197371937194 -1.13991403760376
 1 -10.51617188218822  2.86513151855185 -2.56486645994600
 1  8.60119571037104 -0.86822760296030  0.47735078467847
 1 -8.23108650385038  0.69849404350435  0.07231357885789
 1  7.96791002310231  2.88239327522752  1.60559994249425
 1  6.56063794449445  3.18112581678168  0.72793537323732
 1  8.11821605930593  3.38339700170017  0.07139391649165
 1 -8.81064201640164 -2.64417147624762 -1.56402309590959
 1 -8.26804779307931 -3.29051223852385  0.03004914421442
 1 -7.09951450405041 -3.23058570987099 -1.50782966816682
 1  6.17986885138514 -0.47733296009601  0.04912289558956
 1 -6.14615660026003  0.04843678217822  0.09051877507751
 1  4.99092244954495  2.26678512261226  0.23182608940894
 1 -5.03742384268427 -2.58863237963796 -0.67800994209421
 1  3.81653191989199 -0.48414298419842 -0.01203156475648
 1 -3.70324795599560 -0.02545621572157 -0.30764263096310
 1  2.65519621902190  2.92578297439744  1.46938559385939
 1  1.27512471327133  2.97318805060506  0.56974670217022
 1  2.74342140094009  3.21593206670667 -0.23126709630963
 1 -3.42116398599860 -3.74585294119412 -1.53656866766677
 1 -3.16515812161216 -3.64977697059706  0.25292994439444
 1 -1.82796376767677 -4.04314464886489 -0.68200042644264
 1  0.27670007080708  0.72001791699170  0.24374501970197
 1 -1.67221831043104 -0.08983099589959 -0.17229495559556
 1  1.93990253475348 -1.71124017371737 -0.17628719291929
 1 -0.12839232843284 -2.77370241254125 -0.31150201110111

