%nproc=4
%Mem=2GB
# td=(NStates=1) B3LYP/6-31G(d,p) 

TD

0 1
 6  12.19375371797180  0.60920152065207 -0.55194131303130
 6 -12.09005131923192 -0.07182222382238  0.91193037193719
 6  13.56921633433343 -0.30250991099110 -0.30641664066407
 6 -13.02929942984298  1.14694908640864  1.46078679307931
 6  13.13008532273227 -1.80601627402740 -0.30990274907491
 6 -13.30029462556256  2.11637014911491  0.33880424752475
 6  11.05716751065107 -0.05455119061906  0.29748728652865
 6 -10.96500416821682  0.43296317861786  0.05318768396840
 6  12.29861429882988 -2.12883517751775  0.98832280858086
 6 -12.04480436303630  2.71382169036904 -0.36825516141614
 6  11.18950865886589 -1.11699375387539  1.04822139053905
 6 -11.09514430863086  1.63197881968197 -0.57769664336434
 6  11.87561814951495  0.67092821792179 -2.05002348094809
 6  12.55791920532053  2.00371442654265 -0.12201372037204
 6 -12.98295588638864 -1.07928504720472  0.21863569346935
 6 -11.52118098609861 -0.64398757235724  2.23431157935794
 6  9.86097416001600  0.93481959555956  0.23553555405541
 6 -9.97436724362436 -0.53125566766677 -0.26241032883288
 6  10.08453262956296 -1.52702251395140  1.92519515441544
 6 -10.16396936713671  1.99051079017902 -1.76453791869187
 6  8.51756799649965  0.40516047224722  0.14026223242324
 6 -8.59681263966397 -0.42407227252725 -0.19676599949995
 6  7.35123369156916  1.31854065436544  0.19947255985599
 6 -7.55961485538554 -1.35463393849385 -0.38087848474847
 6  7.45216826652665  2.77723036023602  0.54756719371937
 6 -7.97936512471247 -2.73650366146615 -0.74574185178518
 6  6.18538243974397  0.69201359035904  0.09730188918892
 6 -6.25773438333833 -0.84736555915592 -0.24707681938194
 6  4.89547019771977  1.28805113701370  0.16938659765977
 6 -4.98581819361936 -1.55039101690169 -0.49057043864386
 6  3.76467517911791  0.56794435963596  0.11995394469447
 6 -3.67978336353635 -1.05101573427343 -0.46191862956296
 6  2.36960026142614  1.16842755045505  0.11537602550255
 6 -2.47653665306531 -1.84780983968397 -0.52388566866687
 6  2.31126549814982  2.65120448694869  0.38252262556256
 6 -2.60605115051505 -3.33594712121212 -0.78345969606961
 6  1.20016156465647  0.51537287888789 -0.13021810481048
 6 -1.29167734083408 -1.09647821982198 -0.49031773687369
 6  1.18721309350935 -0.98211315851585 -0.40126764646465
 6 -0.00999045944594 -1.61630787058706 -0.41445520152015
 1  14.07012711851185 -0.06614418491849  0.44761280418042
 1  14.38837585138514  0.03460508480848 -1.20842438083808
 1 -12.58929529452945  1.74092648284828  2.32035560036004
 1 -13.93101395899590  0.75878537083708  1.85295173327333
 1  14.06660728272827 -2.30588140584058 -0.42264571037104
 1  12.34658053975398 -1.99848374837484 -1.15490161346135
 1 -13.74664805300530  3.16798015801580  0.65241627922792
 1 -14.20368515231523  1.64498417261726 -0.40739476157616
 1  12.96502846664666 -1.83653616021602  1.95038692069207
 1  11.83259071357136 -2.99362305440544  0.95363221882188
 1 -11.62899269136914  3.58836655735574  0.23418993599360
 1 -12.35816203010301  2.97991149894990 -1.35787968916892
 1  11.95208857935794 -0.43295637293729 -2.77031516421642
 1  12.55595247594759  1.30621528282828 -2.79014558855886
 1  10.94275184648465  1.11695480718072 -2.15872659215922
 1  12.80027098119812  2.05462236413641  0.76525386588659
 1  11.47825623252325  2.66434634553455 -0.33409756675668
 1  13.31283313961396  2.48533880378038 -0.81087335843584
 1 -13.40273950465046 -0.78819282828283 -0.75559165986599
 1 -13.96662883548355 -1.52305811001100  0.85484270497050
 1 -12.39073667686769 -1.88248665356536  0.00834495199520
 1 -10.87202969386939 -0.02171781118112  2.84427408650865
 1 -11.01699822522252 -1.61830283098310  1.80942495869587
 1 -12.42482654665467 -0.93938840674067  2.80116864496450
 1  10.03955736233623  1.97324218431843  0.33342925082508
 1 -10.34200864556456 -1.59900501050105 -0.13637001500150
 1  9.42229630713071 -0.52453004770477  2.18725248284828
 1  10.48591940604060 -2.25896209410941  2.84785621562156
 1  9.26711877907791 -2.25311516151615  1.59414903650365
 1 -9.55716275157516  1.15825813841384 -2.13884638153815
 1 -9.42342714761476  2.84748827082708 -1.59579962616262
 1 -10.78423868886889  2.46443144854485 -2.53965393869387
 1  8.48530412121212 -0.69415019521952 -0.23896084648465
 1 -8.30557395259526  0.62006620072007  0.11953830133013
 1  7.95715894799480  2.83958899479948  1.50926030853085
 1  6.61162304300430  3.24864256845685  0.55682826252625
 1  8.18138237593759  3.25915457745775 -0.16769999289929
 1 -8.50732168436844 -2.61621868096810 -1.83915060866087
 1 -8.62787377567757 -3.10469365666567  0.09885602490249
 1 -6.96398095069507 -3.26435908720872 -0.76117500270027
 1  6.18154901940194 -0.39269449624962 -0.05592760946095
 1 -6.33487547214721  0.25809774827483 -0.04258453525353
 1  4.66191954925493  2.37676612071207  0.19901280808081
 1 -5.18225832613261 -2.65387890429043 -0.53612575367537
 1  3.73324359105911 -0.57068163806381  0.21491112951295
 1 -3.69197682888289  0.14679100900090 -0.39786165286529
 1  2.61181188058806  2.95449584568457  1.48192684798480
 1  1.21032823362336  3.06687741954195  0.51932165966597
 1  2.88320537933793  3.25692616611661 -0.39356332593259
 1 -3.15960783038304 -3.60882923882388 -1.60600561136114
 1 -2.97122872867287 -3.92066405930593  0.17663231463146
 1 -1.59560053135314 -3.80401073547355 -0.81811403780378
 1  0.27252965376538  1.02774869006901 -0.08540789558956
 1 -1.37506859545955 -0.15152716551655 -0.31467919401940
 1  2.07716626112611 -1.60094914461446 -0.17277684188419
 1  0.11294180498050 -2.73679872217222 -0.75584644554455

