%nproc=4
%Mem=2GB
# td=(NStates=1) B3LYP/6-31G(d,p) 

TD

0 1
 6  12.21473581618162  0.65742634313431 -0.65543166206621
 6 -12.09802211631163  0.05128008640864  1.03488266716672
 6  13.61195060776078 -0.10786044604460 -0.31714771377138
 6 -12.91442794269427  1.35293968546855  1.35016573097310
 6  13.27779009320932 -1.67357302970297 -0.40672243104310
 6 -13.42134673077308  2.08928744084408  0.11908227532753
 6  11.04475626952695  0.12942720722072  0.26207374517452
 6 -10.96298396619662  0.49214909720972 -0.04392202700270
 6  12.44172861026103 -1.99773206720672  0.73293727002700
 6 -12.14728461106110  2.71406171437144 -0.57437577347735
 6  11.23549325732573 -1.05195725022502  0.88757532593259
 6 -11.02895768996900  1.59105472727273 -0.75982485618562
 6  11.70950153785379  0.62726385148515 -2.19719819841984
 6  12.50296370977098  2.13424747984799 -0.35634715371537
 6 -12.96467405820582 -1.06883400210021  0.51818564846485
 6 -11.46125499349935 -0.52217539113911  2.31375952415242
 6  9.86118418101810  0.88184429802980  0.37205920642064
 6 -9.96353616051605 -0.55282782488249 -0.22510659845985
 6  10.27619179547955 -1.63038284998500  1.90426306120612
 6 -10.09940291049105  2.11955369446945 -1.84672613751375
 6  8.56790303000300  0.46705666186619  0.37052525872587
 6 -8.60973393179318 -0.33916378167817 -0.23713003590359
 6  7.33914248244825  1.32937173747375  0.38404101670167
 6 -7.53783267716772 -1.34098257335734 -0.47624802170217
 6  7.54583763346335  2.71697433463346  0.70162259925993
 6 -8.04055124332433 -2.70375038613861 -0.65312258985899
 6  6.21154505600560  0.65777016601660  0.20103226222622
 6 -6.30395900580058 -0.85241606420642 -0.51293340504050
 6  4.90327097779778  1.22630496239624  0.21918157715772
 6 -5.09445905770577 -1.66363234103410 -0.61068244984498
 6  3.78899761136114  0.39583714891489  0.03346529582958
 6 -3.88673405860586 -1.13421405410541 -0.49978241594159
 6  2.45377867926793  0.96582729042904  0.28372286018602
 6 -2.58943794319432 -1.97171222992299 -0.58404168426843
 6  2.26042041364136  2.55064443094309  0.57731210451045
 6 -2.59507005240524 -3.33379690619062 -0.82370372047205
 6  1.22968451695170  0.35371671327133  0.01789670667067
 6 -1.53063123622362 -1.20345891789179 -0.30821952705271
 6  0.97614198639864 -1.01981692889289 -0.23274079377938
 6 -0.09114857525753 -1.70291653145315 -0.22258601460146
 1  13.95890599639964  0.21914434393439  0.66606464936494
 1  14.46237325112511  0.08856048034804 -1.06726026442644
 1 -12.39560592559256  1.69846223642364  2.18937250205021
 1 -13.80955181278128  0.94416390869087  1.80871730983098
 1  14.24144476647665 -2.27033785148515 -0.37179062486249
 1  12.74114999669967 -2.06632053205321 -1.37005312861286
 1 -13.92596598479848  3.02226558655866  0.52377341494149
 1 -14.15981076487649  1.38189786398640 -0.50556457855786
 1  13.03483544734473 -1.93978648524852  1.64909679167917
 1  11.94775222972297 -3.09192288438844  0.82068892449245
 1 -11.77223701580158  3.49784750545055  0.19815633263326
 1 -12.43929014291429  3.01945545334533 -1.51810571177118
 1  11.57846121662166 -0.33320639793979 -2.37311544424443
 1  12.54039091979198  1.05509017031703 -2.74404097809781
 1  10.90347791909191  1.30200331203120 -2.27802852235224
 1  12.57550850495050  2.22713961586159  0.62905024552455
 1  11.72576098299830  2.76267617851785 -0.73448760576058
 1  13.42119397569757  2.46237650755076 -0.85862813391339
 1 -13.75583481418142 -0.76101011001100 -0.37778387908791
 1 -13.63317549014901 -1.27945374957496  1.53756097679768
 1 -12.22376998019802 -1.89916832173217  0.23306742424242
 1 -10.63000549144915  0.16407076767677  2.75082474157416
 1 -10.81643816921692 -1.24408540924092  2.00755477167717
 1 -12.34845890989099 -0.83528799669967  2.90642917101710
 1  10.20110351695170  1.85024988508851  0.45052095999600
 1 -10.24081852655265 -1.64008911891189 -0.37080345834583
 1  9.49722379987999 -0.91590918561856  2.34866862446245
 1  10.71110192429243 -1.99669586748675  2.96027745774577
 1  9.67263933113311 -2.40580043004300  1.42661228282828
 1 -9.10910794609461  1.41465377797780 -1.87929042594259
 1 -9.73005781068107  3.09895341734173 -1.52103214941494
 1 -10.57762802780278  2.20653565896590 -2.79477945124512
 1  8.53860945174517 -0.63184396459646  0.45462851245125
 1 -8.10653404860486  0.60374456855686  0.08323467096710
 1  8.06632986508651  2.95274030993099  1.61336071857186
 1  6.65447732843284  3.36245394959496  0.81748432813281
 1  8.24876911461146  3.20602926492649 -0.00904412731273
 1 -8.79547049924992 -2.85521258035804 -1.53695038863886
 1 -8.42506349464946 -3.02857604490449  0.54599073837384
 1 -7.06130068266827 -3.44480713201320 -0.91399028422842
 1  5.95352621712171 -0.37926315311531 -0.11773379007901
 1 -6.17343932853285  0.16448838733873 -0.36174645144514
 1  4.78633199049905  2.13911235533553  0.80485339213921
 1 -5.00269036933693 -2.79832334873487 -0.73080522162216
 1  3.99695996269627 -0.76626119601960  0.09886952535253
 1 -3.72738036923692 -0.06510018011801 -0.47179904660466
 1  2.75970667006701  2.80714111021102  1.70195885118512
 1  1.20798799959996  2.71389212101210  0.67970769826983
 1  2.70785784458446  3.23051352485248 -0.20647461706171
 1 -3.00063193279328 -3.62520087598760 -1.84663967476748
 1 -3.05754736053605 -3.88096008890889  0.12751740314031
 1 -1.65227619891989 -3.78239857425743 -1.08866109250925
 1  0.40912331313131  1.02147806300630 -0.02188154295430
 1 -1.72163325192519 -0.02978499129913 -0.12232995909591
 1  1.93143168766877 -1.66914596429643 -0.28709827402740
 1 -0.18148763796380 -2.62895793809381 -0.61610247114711

