%nproc=4
%Mem=2GB
# td=(NStates=1) B3LYP/6-31G(d,p) 

TD

0 1
 6  12.16424076667667  0.45829643014301 -0.79279539843984
 6 -12.04906722082208 -0.07159220082008  0.95295447434743
 6  13.44381379407941 -0.33635329532953 -0.60126612561256
 6 -12.99972647254726  1.11997638913891  1.31964267866787
 6  13.18272058625863 -1.87481315371537 -0.43135489428943
 6 -13.29122371847185  2.06523503560356  0.24213458055806
 6  11.06186798069807  0.02085635013501  0.30290782858286
 6 -10.92798046584658  0.37771765406541  0.07724008920892
 6  12.30565500290029 -2.09851214521452  0.86747072337234
 6 -12.04828471107111  2.59089939813981 -0.40346868276828
 6  11.20736044404440 -1.13492554705471  1.02501907030703
 6 -11.00395518971897  1.64287990979098 -0.70802967666767
 6  11.53570415811581  0.18216934203420 -2.22894137273727
 6  12.56485989938994  1.88905296039604 -0.64877639663966
 6 -12.93804139493949 -1.13873099179918  0.20593442334233
 6 -11.49485835383538 -0.68699187278728  2.22672082028203
 6  9.86587465006501  0.93182929652965  0.36036803730373
 6 -9.90169997689769 -0.59401194329433 -0.26449053685369
 6  10.28348252455245 -1.53371318301830  2.07414004890489
 6 -10.09966293649365  1.96225796489649 -1.81662312721272
 6  8.56950319001900  0.55379533573357  0.30850905710571
 6 -8.57158011641164 -0.27085695099510 -0.26215253815382
 6  7.35291385958596  1.37233603390339  0.54241685428543
 6 -7.53152204610461 -1.30386886198620 -0.47100749764977
 6  7.54260731043104  2.85442808000800  0.71877431443144
 6 -7.86958414661466 -2.78855886698670 -0.90333761136114
 6  6.11637553905391  0.74517890689069  0.39689184818482
 6 -6.32273088298830 -0.95535635823582 -0.29202131383138
 6  4.86121677237724  1.42510484238424  0.51696135513551
 6 -5.03781339313931 -1.66098207600760 -0.49789117071707
 6  3.71513022462246  0.77021458665867  0.15619756905691
 6 -3.76136152135214 -1.01611224392439 -0.34643708140814
 6  2.27132043344334  1.26696740444044  0.30565505340534
 6 -2.49936893629363 -1.68949400810081 -0.49902318241824
 6  2.17695206680668  2.85288465496550  0.73285765906591
 6 -2.67433797919792 -3.25853938043804 -0.74144549464946
 6  1.19971151965197  0.53516485808581 -0.02862794579458
 6 -1.33069124222422 -1.05477404940494 -0.47161586668667
 6  1.13449782198220 -0.85810075727573 -0.34336185588559
 6 -0.02206166656666 -1.55502174197420 -0.48208196419642
 1  13.92083218901890 -0.00082765326533  0.28297634053405
 1  14.45186220002000 -0.16898527422742 -1.22938647704771
 1 -12.43013937893789  1.69950234043404  2.33532709750975
 1 -13.94220507810781  0.79487898019802  1.67740417851785
 1  14.01281190319032 -2.36216703440344 -0.42107555335534
 1  12.61577745944594 -2.31716561656166 -1.30438656195620
 1 -14.00686407460746  2.96807016701670  0.39317035463546
 1 -13.80182496629663  1.40117979217922 -0.57329135123512
 1  12.85976794059406 -2.25033754035404  1.59810169216922
 1  11.96361381588159 -2.95119881198120  1.06773362896290
 1 -11.64379417151715  3.28724644534453  0.37707422442244
 1 -12.29914612851285  3.29515302310231 -1.23439734093409
 1  11.57193056355636 -0.98948202550255 -2.62052018471847
 1  12.02030891159116  0.82896755805581 -3.08945551955196
 1  10.51201877317732  0.63746685838584 -2.23119383888389
 1  13.02922387648765  2.15873277517752  0.19299664016402
 1  11.59861826872687  2.47497740864086 -0.74439859685969
 1  13.39006086238624  2.25316558645865 -1.59296156725673
 1 -13.48981821252125 -0.81761577057706 -0.63300940164016
 1 -13.67528970157016 -1.51986779097910  1.04809202990299
 1 -12.24112171537154 -1.84444284918492 -0.16657253975397
 1 -10.69848233913391  0.09328368896890  2.46027568666867
 1 -11.11425795119512 -1.59883088378838  2.00782479867987
 1 -12.18097216121612 -0.93007747564756  2.86421494959496
 1  10.18797220382038  2.01991685178518  0.43183909180918
 1 -10.17070151485149 -1.67299240924092 -0.34762114011401
 1  9.64719879737974 -0.65804339903990  2.42834659225923
 1  10.76143695779578 -1.74173037093709  3.06736816681668
 1  9.56688875607561 -2.34350420042004  1.99582920452045
 1 -9.30529756505650  1.07472978557856 -2.12226472337234
 1 -9.36108091299130  2.71334485648565 -1.56396644284428
 1 -10.56754701970197  2.20435544094409 -2.85519549284929
 1  8.42367795859586 -0.54685546574657  0.23454650425042
 1 -8.16915031023102  0.68245243934393 -0.03342699519952
 1  7.98557178927893  2.97339237513751  1.75833521602160
 1  6.57789967066707  3.55874357855785  0.70283286298630
 1  8.10457469516952  3.20360902290229 -0.31321454435444
 1 -8.48997995019502 -2.52924998409841 -1.79696639023902
 1 -8.57154814311431 -3.36534972227223 -0.13125698639864
 1 -7.06638119071907 -3.44882753405340 -1.41271015621562
 1  6.11295215971597 -0.52635786258626  0.13018100140014
 1 -6.19914189878988  0.15911785028503  0.06328605180518
 1  4.77707106440644  2.36808525262526  0.76407931473147
 1 -5.29303940424042 -2.87459097549755 -0.40874301540154
 1  3.83225349204920 -0.21665623552355 -0.16849721132113
 1 -3.53556118731873  0.02159848974898 -0.24639650635064
 1  2.77138783818382  3.05433582968297  1.67911656695670
 1  1.08575577637764  3.21367209900990  0.82157188468847
 1  2.52217927672767  3.41281175467547 -0.16181015061506
 1 -3.10698256785679 -3.24095245114511 -1.67019203000300
 1 -3.06688829462946 -3.82811480438044  0.11868652005200
 1 -1.60790176147615 -3.55753608800880 -1.09682190859086
 1  0.27663006380638  1.16023193839384  0.18756940214021
 1 -1.41237232583258  0.01862985018502 -0.26533425952595
 1  2.03269181368137 -1.60625967566757 -0.58345790999100
 1  0.29162967376738 -2.59409445174517 -0.85242610351035

