%nproc=4
%Mem=2GB
# td=(NStates=1) B3LYP/6-31G(d,p) 

TD

0 1
 6  12.11927627022702  0.62060266076608 -0.54294041294129
 6 -12.05557787188719  0.00630558895890  0.92055123402340
 6  13.38062747544754 -0.20217987798780 -0.50875687468747
 6 -12.86688318821882  1.27177156865687  1.35898661306131
 6  13.16334864906491 -1.78910458285829 -0.56569832863286
 6 -13.31974657075708  2.04192270437044  0.10971133823382
 6  11.01014280818082  0.00754501900190  0.36435397319732
 6 -10.93216088388839  0.41840172247225 -0.07791542634263
 6  12.29223366076608 -2.10818311231123  0.70307428372837
 6 -12.15513539613961  2.68435874407441 -0.53711204710471
 6  11.04398410641064 -1.17757981248125  0.95196176457646
 6 -10.98699349354935  1.61163678547855 -0.81597047074707
 6  11.70647123482348  0.68757988308831 -2.04355283388339
 6  12.65997941134114  2.11600565566557 -0.18493001200120
 6 -13.03034062486249 -1.04570168886889  0.36426025592559
 6 -11.46936580458046 -0.55506868046805  2.14464261246125
 6  9.83359142174218  0.94753086668667  0.24492649314931
 6 -9.85138494539454 -0.57980052215222 -0.33854794259426
 6  9.94575875217522 -1.78632844454445  1.67938057295730
 6 -10.11023399359936  2.06370810991099 -1.86756822172217
 6  8.50535677537754  0.48543850005000  0.25724393059306
 6 -8.53224618301830 -0.32329219451945 -0.20110643354335
 6  7.38047661586159  1.29986878717872  0.33620623322332
 6 -7.56608550245025 -1.27973644874487 -0.42647304420442
 6  7.56443949364937  2.74895753295330  0.47654009100910
 6 -7.92816000420042 -2.66223623472347 -0.72753003060306
 6  6.08566246774677  0.72683707270727  0.24900705970597
 6 -6.17579618951895 -0.89750057265727 -0.38895100680068
 6  4.82957360806081  1.33622595449545  0.31222088108811
 6 -4.97226683848385 -1.70531650945095 -0.36296767836784
 6  3.67145585718572  0.68069563476348  0.17344929422942
 6 -3.68147353255326 -1.21065169786979 -0.22437487518752
 6  2.33027632903290  1.22086279397940  0.34169865776578
 6 -2.49893889328933 -1.97838289698970 -0.35063834393439
 6  2.21163553515352  2.75368473497350  0.63861823512351
 6 -2.51379192459246 -3.40484401090109 -0.70328167826783
 6  1.21939348784878  0.42336367796780  0.08188310531053
 6 -1.27836600970097 -1.21420999299930 -0.15400410551055
 6  1.21008538073807 -0.94507945514551 -0.28143566326633
 6  0.02842338193819 -1.68097433723372 -0.39343309930993
 1  13.90927103290329  0.01560398989899  0.52408045094509
 1  14.00984799859986  0.24860648494850 -1.37426096449645
 1 -12.17528389338934  1.76524891509151  1.95981954675468
 1 -13.75839669726973  1.06766625892589  1.89886632473247
 1  14.04516513851385 -2.33738455615562 -0.57587103290329
 1  12.57761364306431 -1.92693659365937 -1.55045116841684
 1 -14.01972536073607  3.07059041904190  0.42476351395140
 1 -13.87882266606661  1.55883555775578 -0.35990001210121
 1  12.80532249604961 -2.15148765536554  1.81490337233723
 1  11.74754220872087 -3.07442113421342  0.31615847144715
 1 -11.75108490059006  3.45180290099010  0.13190970797080
 1 -12.39379559345935  3.04505801360136 -1.46778067926793
 1  11.40523389388939 -0.31165424272427 -2.40441857455746
 1  12.54277115781578  1.10433509480948 -2.49641621562156
 1  10.77031460276027  1.28381149284928 -1.93364408390839
 1  12.78907986208621  2.39025592749275  0.94985232573257
 1  12.07152555945594  2.94052396329633 -0.55684984198420
 1  13.78086994329433  2.36711698159816 -0.60845311641164
 1 -13.73042227292729 -0.72501651065106 -0.52359846054605
 1 -13.77884005660566 -1.61237704190419  1.33298051875188
 1 -12.56431403460346 -1.72793119801980 -0.37518340084008
 1 -10.79353184408441  0.20945530613061  2.75776543564356
 1 -10.77376390179018 -1.57138813951395  2.03657767396740
 1 -12.13785784978498 -0.61011547944794  3.01896042414241
 1  9.87131053765377  1.98815367546755  0.14861076897690
 1 -10.20200464516452 -1.62811792179218 -0.23576995499550
 1  9.10889496699670 -1.10019761446145  1.97564132173217
 1  10.28308912301230 -2.14579077697770  2.61479290929093
 1  9.66271833903390 -2.78972882288229  1.40506012761276
 1 -9.38086512181218  1.30361267386739 -1.98059055595560
 1 -9.47542234713471  3.02528605060506 -1.71974202040204
 1 -10.76632689768977  2.09115412081208 -2.94873484678468
 1  8.23702929372937 -0.55068584878488  0.04053710331033
 1 -8.20620401560156  0.81253544764476 -0.00020367286729
 1  8.09993322542254  2.90908594449445  1.42299168166817
 1  6.64978685938594  3.41241894609461  0.56492907260726
 1  8.10165440314031  2.86893555555556 -0.55116833973397
 1 -8.67276822902290 -2.87860491959196 -1.48050474407441
 1 -8.42327331563156 -3.03831701900190  0.18934507380738
 1 -7.19979453205321 -3.51403405470547 -0.73339222442244
 1  6.08689955445544 -0.38506373317332  0.08328631193119
 1 -6.06732871747175  0.23926586508651 -0.29684996179618
 1  4.78819217651765  2.30213865796580  0.61646455325533
 1 -5.13764386468647 -2.85022853925393 -0.68085022612261
 1  3.89369963666367 -0.28616318621862 -0.16144650625063
 1 -3.74906253745375 -0.09983365346535 -0.10534240094009
 1  2.66583728312831  3.08876927302730  1.63140179547955
 1  1.34733193399340  3.10676140794079  0.63107283478348
 1  2.83460051885188  3.16564703820382 -0.16745071467147
 1 -3.53077494709471 -3.47026538243824 -1.40627563836384
 1 -2.97058866466647 -3.98404039693969  0.17276192759276
 1 -1.48946991829183 -3.81804213861386 -0.99316154255426
 1  0.28887128792879  0.80458637383738  0.22585323052305
 1 -1.61259234783478 -0.10019203200320  0.28589086298630
 1  2.22825136963696 -1.43024207390739 -0.50783034723472
 1 -0.06412590179018 -2.71670671297130 -0.66722758365837

