%nproc=4
%Mem=2GB
# td=(NStates=1) B3LYP/6-31G(d,p) 

TD

0 1
 6  12.09780412301230  0.61971257175718 -0.65540165906591
 6 -11.99828214231423 -0.01812685428543  0.86916609550955
 6  13.32794220692069 -0.35236489648965 -0.80848684768477
 6 -12.92952945284529  1.15890028152815  1.33846456085609
 6  13.04471678587859 -1.82216788918892 -0.77389914871487
 6 -13.44519911601160  1.94224273637364  0.11824219131913
 6  11.10285207910791 -0.04546028152815  0.25736327412741
 6 -11.01968963676368  0.38576845914591 -0.19243687848785
 6  12.28959339673967 -2.20691298529853  0.56448042434243
 6 -12.15740562316232  2.54210451865187 -0.66422475837584
 6  11.08007771577158 -1.19995204970497  0.83852042044204
 6 -11.02947774197420  1.54295991779178 -0.86397527122712
 6  11.38939952765277  0.64914603970397 -2.02794127272727
 6  12.52390580398040  1.96445050015001 -0.17185870487049
 6 -13.00277786858686 -1.16208332703270  0.20635446534653
 6 -11.40742961096110 -0.55736891049105  2.19808795699570
 6  9.79808787138714  0.85116122972297  0.38910091059106
 6 -9.89531933883388 -0.57030957305731 -0.35396948474847
 6  10.03259743604360 -1.77879769146915  1.79712234713471
 6 -10.00899386958696  2.05321706080608 -1.96026749164916
 6  8.50743698339834  0.56075603180318  0.34710291649165
 6 -8.56298925732573 -0.25962582788279 -0.28243456635664
 6  7.42143071127113  1.33118191849185  0.52194480708071
 6 -7.47948684258426 -1.22322079717972 -0.39281967886789
 6  7.60870392009201  2.84848748594859  0.76095853285329
 6 -7.87799498769877 -2.60286029712971 -0.47231450905091
 6  6.15916981848185  0.83323771277128  0.29900205920592
 6 -6.15805441534153 -0.81836265886589 -0.27987009870987
 6  4.90621127182718  1.60627295919592  0.35871553055306
 6 -4.94002361416142 -1.54321029882988 -0.39924130573057
 6  3.77307601920192  0.81914948014801  0.27516946624662
 6 -3.63975936113611 -1.13919455215522 -0.30236267396740
 6  2.39074237563756  1.23301400910091  0.29496398429843
 6 -2.45802480188019 -1.89138419711971 -0.38362164226423
 6  2.11313568516852  2.66299566606661  0.41876624992499
 6 -2.59499004440444 -3.29790331683168 -0.79899124922492
 6  1.26168771727173  0.45983732533253  0.24523944094409
 6 -1.38839701280128 -1.18260683268327 -0.06776548164816
 6  1.14732910511051 -0.96300124732473 -0.01966948664866
 6  0.07762830243024 -1.75249148894889 -0.20953470947095
 1  14.06897700350035 -0.14415198569857 -0.03767572467247
 1  13.67760477427743 -0.14843321902190 -1.95444898329833
 1 -12.19144550955095  1.80283267346735  2.07080064486449
 1 -13.68206906450645  0.90410990329033  1.96285272337234
 1  13.92949357135714 -2.57647846554655 -0.87342078787879
 1  12.53639952165217 -2.19625352535254 -1.57720384368437
 1 -13.95913930213021  2.70734409440944  0.38810984858486
 1 -13.91398618241824  1.24645431963196 -0.64366838893889
 1  13.02414437823782 -2.24107661426143  1.48935081708171
 1  12.06353380788079 -3.36175986808681  0.50111696729673
 1 -11.97940773287329  3.47834555525553 -0.00133361636164
 1 -12.41088730263026  2.97522102990299 -1.67145104630463
 1  11.36465983648365 -0.37164024132413 -2.45807394009401
 1  11.90617749844984  1.22873753505351 -2.62893946794680
 1  10.40333790509051  1.14414752645265 -2.18166888638864
 1  12.78380933503350  2.07491439333934  0.86149348984898
 1  11.64295270217022  2.68902881378138 -0.60445460246025
 1  13.33429528582858  2.32141241114111 -0.83058532963296
 1 -13.46882611331133 -0.56882089108911 -0.67992409310931
 1 -13.99968214081408 -1.23462926712671  1.03298051875188
 1 -12.48051565476548 -2.12718112301230  0.14406852435243
 1 -10.59801229212921 -0.05438107750775  2.48838849794979
 1 -10.76278280368037 -1.60248124882488  1.91961597779778
 1 -12.25452951695170 -0.61581604950495  2.79112764086409
 1  10.23603701030103  1.80065492559256  0.38799470737074
 1 -10.15539998469847 -1.63611872187219 -0.45970234823482
 1  9.52735681318132 -0.98439603430343  2.33053681128113
 1  10.41109192329233 -2.10662686058606  2.78104953495350
 1  9.17527959515952 -2.49822967296730  1.31704132573257
 1 -9.10385742104210  1.37111942454245 -2.03724622152215
 1 -9.37535234013401  2.89412293429343 -1.35781582778278
 1 -10.47683794879488  2.32993799919992 -2.82914288758876
 1  8.31650724152415 -0.52674345454545  0.25958900850085
 1 -8.05891928712871  0.82968716281628 -0.43472712521252
 1  8.37223045514551  2.86289132503250  1.53660304280428
 1  6.65934781548155  3.26434413861386  1.05964854455446
 1  7.88935317301730  3.21360002200220 -0.10287351025103
 1 -8.54581553375338 -2.76258331743174 -1.27570426402640
 1 -8.42927391569157 -2.80984417171717  0.49713585288529
 1 -7.01646619921992 -3.30367301860186 -0.41609049424942
 1  6.23771463596360 -0.29175440224022  0.06339432273227
 1 -6.08740072467247  0.25230716921692 -0.30556083288329
 1  4.84528788608861  2.54847329142914  0.56990989778978
 1 -4.99602970327033 -2.62436595299530 -0.89339148024802
 1  3.92743301000100 -0.32486705660566  0.51191082948295
 1 -3.66163379457946 -0.03730740084008 -0.34307617431743
 1  2.41825252465246  3.02437283338334  1.39289794509451
 1  1.09837703850385  3.05996672847285  0.32945267276728
 1  2.88183524232423  3.39695016851685 -0.32532650225022
 1 -3.30766263586359 -3.40095845174518 -1.61954696549655
 1 -2.57859946574657 -3.89166115901590  0.33472812421242
 1 -1.72858382968297 -3.65126546094609 -1.41916414281428
 1  0.35459786058606  1.15405132033203  0.26198684388439
 1 -1.45384647324732 -0.28437044984499  0.38319059295930
 1  2.24359290379038 -1.52349139883988 -0.10606017021702
 1  0.33053356415642 -2.83075811811181 -0.35534639553955

