%nproc=4
%Mem=2GB
# td=(NStates=1) B3LYP/6-31G(d,p) 

TD

0 1
 6  12.24379872247225  0.72866346684668 -0.70840695959596
 6 -12.15591790589059 -0.03184822642264  0.87447662656266
 6  13.49385879857986 -0.11346100610061 -0.43379937893789
 6 -12.93413991389139  1.13434782628263  1.35927664206421
 6  13.40062237643764 -1.64566023842384 -0.54183594239424
 6 -13.48759335543554  2.00763927602760  0.09822018911891
 6  11.03003479737974  0.02233649814982  0.17984552235224
 6 -10.96395406320632  0.38560844314431 -0.22932056685669
 6  12.34571900930093 -2.11584387838784  0.59392336863686
 6 -12.22407228982898  2.64449475767577 -0.51099943584358
 6  11.07557726572657 -1.25381743624362  0.72298886728673
 6 -11.07608240244024  1.68630425222522 -0.74116298999900
 6  11.85523611131113  0.67725885098510 -2.15731421002100
 6  12.52004541794179  2.18279233433343 -0.27618913791379
 6 -13.01178876967697 -1.00306742544254  0.02843667356736
 6 -11.60847971597160 -0.66981015461546  2.16706485468547
 6  9.89334739733973  0.82057817141714  0.39840184068407
 6 -9.95445525242524 -0.57187973007301 -0.34871895969597
 6  10.21462563886389 -1.77034684638464  1.89566220112011
 6 -10.09224219441944  2.08056979607961 -1.78077954285429
 6  8.62233847354736  0.45795575177518  0.18408661486149
 6 -8.66927988638864 -0.29774964026403 -0.21394771767177
 6  7.38665723392339  1.19972877317732  0.35224783738374
 6 -7.60567946184619 -1.27726620172017 -0.37115751265127
 6  7.53757680738074  2.68318095529553  0.62361479847985
 6 -7.97022421062106 -2.67380739183918 -0.69121639923992
 6  6.26720062156216  0.67052144114411  0.19863202220222
 6 -6.34270288018802 -0.80310113271327 -0.20735284698470
 6  4.96477712841284  1.23033536543654  0.28960861986199
 6 -5.07178679047905 -1.65465144294429 -0.33804518611861
 6  3.78668738033803  0.47973553875388  0.17930988028803
 6 -3.82407779297930 -1.03978461116112 -0.23852629032903
 6  2.45325862726273  1.18771947964796  0.22624711261126
 6 -2.60368936833683 -1.76962202090209 -0.34710799089909
 6  2.38230260186019  2.65017438393839  0.41160553385339
 6 -2.62750329572957 -3.26517004350435 -0.59909125922592
 6  1.29852140064006  0.45600694229423  0.15182009900990
 6 -1.34114228732873 -1.13285185718572 -0.09146785188519
 6  1.08756312851285 -0.96361130833083 -0.02655017471747
 6 -0.13055251565157 -1.70224646444644 -0.05186894289429
 1  14.08563866966697 -0.05799336983698  0.53657170007001
 1  14.33743075687569  0.01886351065107 -1.26059959835984
 1 -12.37859422442244  1.91438382858286  1.95066863166317
 1 -13.82621347894790  0.47260675297530  1.95902234033403
 1  14.32481310331033 -2.04892571027103 -0.42241568736874
 1  13.00212609430943 -2.03795769576958 -1.57263338663866
 1 -14.08878226642664  2.80011337133713  0.29643068066807
 1 -13.78234301810181  1.36547622182218 -0.74460848294829
 1  12.78868083188319 -1.98978148474847  1.57207908990899
 1  12.00197765226523 -3.21718541064106  0.40458731433143
 1 -11.80920071217122  3.48575629632963 -0.04118760176018
 1 -12.58208442234223  2.97954146194619 -1.47086098729873
 1  11.57936130663066 -0.42261533883388 -2.53155128782878
 1  12.56371325202520  0.87731239253925 -2.67884445844584
 1  11.04401197249725  1.55029814151415 -2.33236395589559
 1  12.64092504660466  2.00384728662866  0.75449278977898
 1  11.63494190109011  2.76057596849685 -0.61920607760776
 1  13.23935579187919  2.59362963286329 -0.76676894799480
 1 -13.31484071477148 -0.31618562756276 -0.71090719141914
 1 -13.85984815741574 -1.49366517071707  0.52989020972097
 1 -12.26868447164717 -1.76449485438544 -0.38679456195620
 1 -11.09093158405841 -0.02300794019402  2.97126678577858
 1 -11.09616614201420 -1.71605260596060  1.86313032923292
 1 -12.49778384238424 -0.97209167706771  2.50318884698470
 1  10.05911931853185  1.79758461856186  0.84913082098210
 1 -10.26610105480548 -1.59835494549455 -0.60983736173617
 1  9.44411848934894 -1.07759535423542  2.18133189078908
 1  10.84703551765176 -2.09185538343834  2.79806123612361
 1  9.44120618781878 -2.68150800080008  1.47573719531953
 1 -9.44104113941394  1.20430274287429 -2.29054155105511
 1 -9.29265407030703  2.83762728472847 -1.54330437663766
 1 -10.80874113911391  2.67068207360736 -2.56509648294829
 1  8.45393098389839 -0.52356313651365 -0.20465741614161
 1 -8.34918831403140  0.76620081418142 -0.12528618111811
 1  7.92365559765977  3.02894793069307  1.65988537103710
 1  6.69246112681268  3.38957666186619  0.38629120882088
 1  7.99801403910391  3.21528019001900 -0.09840306320632
 1 -8.41170212241224 -2.85837289638964 -1.84452114571457
 1 -8.72885387368737 -2.88567175447545  0.13810995029503
 1 -7.05585013761376 -3.44461711301130 -0.69470835603560
 1  6.20828169266927 -0.45950117691769  0.18956693999400
 1 -6.32319430403040  0.21703364186419  0.04842456565657
 1  5.05818917621762  2.40394883898390  0.69617252405240
 1 -5.28775887618762 -2.57763127952795 -0.31212335343534
 1  4.04840510721072 -0.57242181208121 -0.18487884948495
 1 -3.95547317851785  0.10232656255626 -0.10184205090509
 1  2.83861456085609  2.91287168326833  1.44688334363436
 1  1.27512471327133  2.88847957975798  0.57829755725573
 1  2.73568062686269  3.30534100760076 -0.45184915451545
 1 -3.23263513311331 -3.45414377027703 -1.54258926972697
 1 -3.02203380918092 -3.93259525242524  0.21622627402740
 1 -1.68880985228523 -3.68690902530253 -0.47567979437944
 1  0.25888828962896  1.13511942714271 -0.07293664846485
 1 -1.51709279787979 -0.23388540134013  0.10446272017202
 1  1.89378792329233 -1.59545859555956  0.02744318011801
 1  0.01982249304930 -2.79331437373737  0.00093923302330

