%nproc=4
%Mem=2GB
# td=(NStates=1) B3LYP/6-31G(d,p) 

TD

0 1
 6  12.14738908150815  0.45634623512351 -0.68272439133913
 6 -11.99254156825683 -0.02388743034303  0.97849702860286
 6  13.35522493519352 -0.36951661166117 -0.51527752675268
 6 -12.98152465236524  1.02852724422442  1.39924063846385
 6  13.16440875507551 -1.87516318871887 -0.39281103990399
 6 -13.39988458455846  1.90930944304430  0.24839520662066
 6  11.00106190009001 -0.01145688118812  0.23786132393239
 6 -10.94814248204820  0.42755263756376  0.03543590879088
 6  12.32781721912191 -2.13210550455046  0.97076105240524
 6 -12.29840972357236  2.63158346654665 -0.50265860176018
 6  11.20411011901190 -1.12651470597060  0.98416498489849
 6 -11.10080487468747  1.59154477627763 -0.79678855255526
 6  11.68285887358736  0.42137326242624 -2.21834031263126
 6  12.50504391779178  1.98168222332233 -0.56542806180618
 6 -12.92573016381638 -1.06922404110411  0.18192202210221
 6 -11.32980184818482 -0.58471164476448  2.22854100230023
 6  9.82082014461446  0.85459157275728  0.26599860036004
 6 -9.90126993389339 -0.58729127122712 -0.20601468926893
 6  10.15229940624062 -1.53766357805781  1.97258989388939
 6 -10.13199616981698  2.07945968506851 -1.75041650655066
 6  8.53257949764977  0.45377533373337  0.21425963216322
 6 -8.54827778617862 -0.26840670597060 -0.43241956485649
 6  7.40489905810581  1.36435523582358  0.44741735433543
 6 -7.49426832073207 -1.24153262836284 -0.55645604250425
 6  7.68369141884188  2.91476411361136  0.63019545654565
 6 -8.04660184838484 -2.74077408850885 -0.79563684128413
 6  6.13360726222622  0.87548193719372  0.35099725872587
 6 -6.12442105200520 -0.84663548614861 -0.44018613031303
 6  4.80947159785979  1.35542787468747  0.41771143014301
 6 -4.98262787458746 -1.69156513431343 -0.49539092069207
 6  3.72104081568157  0.68238580378038  0.25156710601060
 6 -3.80055544074407 -1.22867350005000 -0.33683612131213
 6  2.42373567496750  1.23429413711371  0.36256074397440
 6 -2.47735673507351 -1.83275833453345 -0.45048832893289
 6  2.30866523812381  2.80258962546255  0.61206557985799
 6 -2.57235778117812 -3.28278180468047 -0.90640199029903
 6  1.21446299479948  0.57108845044504  0.04829974697470
 6 -1.34501267436744 -1.14062263426343 -0.21531023612361
 6  1.14219859205921 -0.81370631783178 -0.15545306500650
 6 -0.05567502790279 -1.53347958775878 -0.39215297129713
 1  13.88862896869687 -0.02643021352135  0.45067311021102
 1  14.04123113691369 -0.13119149484949 -1.51967550595060
 1 -12.35750211521152  1.72066445664566  2.05321888668867
 1 -13.73686454405441  0.76587607990799  1.98336477457746
 1  14.11155177717772 -2.34170498819882 -0.37359080488049
 1  12.46279216091609 -2.17038093809381 -1.20786690999100
 1 -14.06855024322432  2.60842420242024  0.75410644824482
 1 -14.35917070087009  1.41056073027303 -0.29890391249125
 1  12.68752071587159 -2.26531903850385  1.93458534053405
 1  11.90655811031103 -3.08397208930893  1.15956281188119
 1 -12.00110990309031  3.61622934363436  0.24110062706271
 1 -12.67505371927193  3.19889339713971 -1.30387428862886
 1  11.23832720322032 -0.61560463776378 -2.19679781248125
 1  12.51389827052705  0.61734639593959 -3.00011658565857
 1  10.76700427172717  1.06384949664966 -2.43970468996900
 1  12.69153010711071  2.24824172607261  0.49357669816982
 1  11.75715412231223  2.75008491939194 -0.83576773377338
 1  13.39124098039804  2.37942821272127 -1.05037730883088
 1 -13.54574380508051 -0.42083609260926 -0.46418251895190
 1 -13.71860403300330 -1.70343614781478  0.82303952465247
 1 -12.32077968116812 -1.86232463736374 -0.29013489598960
 1 -10.42211470237024  0.06665102570257  2.58558821792179
 1 -10.84453097849785 -1.43549455015502  1.90408442464246
 1 -12.12938700270027 -0.78022249014902  3.16519504760476
 1  10.04123753035304  1.92399725982598  0.16625253315331
 1 -10.30522496719672 -1.58310342034203 -0.42174855285529
 1  9.37229130663066 -0.76573416811681  2.25576933453345
 1  10.60255106920692 -2.22874907280728  2.79784121412141
 1  9.65225729292929 -2.34623447344734  1.20260988258826
 1 -9.49258629392939  1.25938825142514 -2.25503800070007
 1 -9.31508631353135  2.78593211521152 -1.13400344654465
 1 -10.53075334033404  2.70095510091009 -2.54662463576358
 1  8.01677726852685 -0.58775955615562  0.06223927352735
 1 -8.31496489168917  0.61213540764076 -0.18425207770777
 1  8.47491072317232  2.83633866976698  1.27672705520552
 1  6.60800268096810  3.19573727792779  0.79266184588459
 1  8.08656289398940  3.34883354535453 -0.42746596949695
 1 -8.50711166336634 -2.86479353845385 -1.72485917951795
 1 -8.67876886518652 -3.00367355465547  0.00305644494449
 1 -6.97756230883088 -3.56662931423142 -0.68643752895290
 1  6.20836170067007 -0.42663789058906  0.10877886118612
 1 -6.02429441404140  0.15094703320332 -0.58028830563056
 1  4.96107946524652  2.46023446754675  0.53523643044304
 1 -5.18901900220022 -3.00195371177118 -0.58248038913891
 1  3.77919818651865 -0.38787335723572  0.16452609100910
 1 -3.62048968016802 -0.13383705380538  0.08022615591559
 1  3.18722942234223  2.98669906600660  1.32760141544154
 1  1.18292549334933  2.95322605440544  0.83964369186919
 1  2.68713577237724  3.27787826132613 -0.32577654725473
 1 -2.93694556415642 -3.22738109400940 -1.93177818861886
 1 -3.12605421122112 -3.91861385428543 -0.13744909350935
 1 -1.44796576787679 -3.61290162456246 -1.19472169856986
 1  0.35915831663166  1.10830674587459  0.06119676487649
 1 -1.50078116671667 -0.12330434323432  0.05404767866787
 1  2.09216776127613 -1.61481053075308 -0.16564612881288
 1  0.11872238303830 -2.48770381268127 -0.63011387228723

