%nproc=4
%Mem=2GB
# td=(NStates=1) B3LYP/6-31G(d,p) 

TD

0 1
 6  12.22112645524552  0.57825842634263 -0.76247236613661
 6 -12.21937425152515 -0.07984302590259  0.79897907680768
 6  13.50908032073207 -0.29718937893789 -0.59696569556956
 6 -13.15480198009801  1.15830022152215  1.17936865126513
 6  13.14533684788479 -1.80365603800380 -0.70641240004000
 6 -13.40638523462346  2.09062757485749 -0.01229086198620
 6  10.95827762166217  0.03481774627463  0.19422696049605
 6 -11.01539920772077  0.36804668696870 -0.10893852865287
 6  12.33060749814982 -2.12152444644464  0.51426540284028
 6 -12.05445532813281  2.63917422562256 -0.62779111501150
 6  11.13525323332333 -1.23021507600760  0.76321288968897
 6 -11.05060985518552  1.61464708650865 -0.79835870957096
 6  11.65243583128313  0.49907103220322 -2.13143162176218
 6  12.60602401580158  1.94866892199220 -0.35586710571057
 6 -13.05987357815782 -0.97784490319032  0.00121395129513
 6 -11.64470333833383 -0.79154232783278  2.14032218041804
 6  9.87220528312831  0.85866197979798  0.45015701620162
 6 -9.96272607950795 -0.57363990609061 -0.32087617541754
 6  10.13454763106311 -1.71666147784778  1.80501313621362
 6 -9.86040901110111  2.14783652275228 -1.68897036193619
 6  8.61710795049505  0.49258921512151  0.29261746794679
 6 -8.68285124352435 -0.38254812011201 -0.18583490639064
 6  7.41711027922792  1.36559535983598  0.45184779737974
 6 -7.49925881978198 -1.37351582668267 -0.21181157805781
 6  7.59936298599860  2.77501013821382  0.57415985298530
 6 -7.85944313251325 -2.77802781388139 -0.69723700130013
 6  6.19177307880788  0.72101649064906  0.25374753375338
 6 -6.27088569846985 -0.89861068366837 -0.18858096979698
 6  4.89066971767177  1.31247357925793  0.32037169616962
 6 -5.07965757755776 -1.66913289108911 -0.38101948354835
 6  3.66218493009301  0.74177174237424  0.26745869516952
 6 -3.78557394259426 -1.08689932263226 -0.25834827252725
 6  2.42086538793879  1.35029573727373  0.41476596449645
 6 -2.49255825522552 -1.85897095579558 -0.36018929902990
 6  2.31075544714471  2.82990235673567  0.58567294059406
 6 -2.55904645004500 -3.31331485798580 -0.59848119821982
 6  1.20744229272927  0.62632397399740  0.30983590059006
 6 -1.31848002110211 -1.11630020202020 -0.05682438753875
 6  1.12965733793379 -0.79653460066007  0.03253573387339
 6 -0.02566202660266 -1.55975221502150 -0.15925968196820
 1  14.12100220602060 -0.15185275577558  0.26725476837684
 1  14.24510152395239  0.22822444674467 -1.33999753815382
 1 -12.50938730373037  1.84546693689369  1.97877144194419
 1 -13.97886874447445  0.87218671097110  1.70553699179918
 1  14.19840046204621 -2.28853967166717 -0.96764020982098
 1  12.73225910761076 -2.12201610161016 -1.81207733103310
 1 -14.00936432463246  2.80460382038204  0.35920695829583
 1 -13.75755053885389  1.41404107830783 -0.71193521562156
 1  12.64931689548955 -1.88048055465547  1.58749063106311
 1  11.96697415191519 -3.27557124922492  0.51166802240224
 1 -11.69467926002600  3.42225994669467  0.04047056405641
 1 -12.32953916781678  2.94686819461946 -1.67092099329933
 1  11.47368073857386 -0.63166624392439 -2.42496062876288
 1  12.39491637233723  0.90820548184818 -2.95363193719372
 1  10.64333190449045  1.04731784348435 -1.94841556105611
 1  13.04202515661566  2.12941984388439  0.58720606110611
 1  11.72024043094309  2.86996690759076 -0.32804696169617
 1  13.24532638893889  2.30439070897090 -1.06604887598760
 1 -13.35930516121612 -0.62434644364436 -1.08901500220022
 1 -13.99494166676668 -1.45269107330733  0.67144436513651
 1 -12.44590219341934 -1.88346675157516 -0.25831171367137
 1 -10.89677216811681 -0.21821746114611  2.60120978007801
 1 -11.23261978737874 -1.71705270597060  1.78016203240324
 1 -12.45940000400040 -0.95632009990999  2.80066859495950
 1  10.12155556215622  1.85271013111311  0.75207111501150
 1 -10.38337278197820 -1.70405551555155 -0.31130750875088
 1  9.69124320182018 -0.89252684738474  2.31358511611161
 1  10.75564637873787 -2.08916511441144  2.56568799879988
 1  9.62742480968097 -2.48568841884188  1.52030165176518
 1 -9.15877291259126  1.14082639523952 -1.83207570447045
 1 -9.37915272017202  3.05389891189119 -1.32789283548355
 1 -10.35836610161016  2.32142714811481 -2.62429240254025
 1  8.30677626842684 -0.74145492569257  0.08522157175718
 1 -8.33342673787379  0.56040023412341 -0.09724337683768
 1  8.40524375647565  3.30925596149615  1.28210759325933
 1  6.61493337403740  3.06667437163716  0.94847742744274
 1  7.87020125782578  3.33699236123612 -0.51252447534753
 1 -8.34640559275928 -2.72028908800880 -1.82819951355136
 1 -8.69972096039604 -3.30009319661966 -0.05938979967997
 1 -7.21626617921792 -3.48662131343134 -0.78825771097110
 1  6.20684154865487 -0.51903713051305  0.22869085238524
 1 -5.97881986658666  0.18115005350535  0.36007573077308
 1  4.90797415471547  2.36003444754475  0.54376728352835
 1 -5.05424552485249 -2.88750226662666 -0.71141328242824
 1  3.71871213791379 -0.25092966286629 -0.18934929652965
 1 -3.46106373757376 -0.04034770487049 -0.08140000670067
 1  2.96615731513151  3.25225562166217  1.48245690099010
 1  1.20817801860186  3.13215394719472  0.64510423792379
 1  2.97873493229323  3.46802727622762 -0.18532250185018
 1 -2.54680655025503 -3.49499785568557 -1.71042605340534
 1 -3.39235084088409 -3.87603959685969 -0.23265861446145
 1 -1.57589856115612 -3.97156749114912 -0.29043126952695
 1  0.32116451725173  1.10633654885489  0.37880852605261
 1 -1.40702179077908  0.08331631883188 -0.03271099719972
 1  1.92863140764076 -1.56361541124112 -0.03569313351335
 1 -0.06351584078408 -2.65925096739674 -0.30864172507251

