%nproc=4
%Mem=2GB
# td=(NStates=1) B3LYP/6-31G(d,p) 

TD

0 1
 6  12.04329867246725  0.51524212471247 -0.79339545844584
 6 -12.19888220232023 -0.03282832443244  0.82256143504350
 6  13.37503691639164 -0.40892055205521 -0.77921392039204
 6 -13.06052255215522  1.20121451295129  1.07543825822582
 6  13.06097841204120 -1.84809048144814 -0.83194495329533
 6 -13.52895749184918  2.02966147824782 -0.14806443934393
 6  10.99429122302230 -0.10961669716972  0.19648718651865
 6 -11.06137380518052  0.35860574287429 -0.17706534133413
 6  12.44615905330533 -2.16396869086909  0.57097107340734
 6 -12.17550743334333  2.64653496169617 -0.64066240214021
 6  11.28195790379038 -1.29394144864486  0.85190175857586
 6 -11.05401019521952  1.54150977277728 -0.86786566026603
 6  11.36750733843384  0.49842096719672 -2.22685116371637
 6  12.43137655105511  1.86973102820282 -0.23836535553555
 6 -13.04483207400740 -1.06911403010301  0.08852268216822
 6 -11.62630149814981 -0.67357053065307  2.25080322852285
 6  9.86039410201020  0.74670078367837  0.45609761026103
 6 -9.94628443534353 -0.64132667476748 -0.22708679647965
 6  10.34688886518652 -1.72496230793079  1.93181581648165
 6 -9.93015598579858  1.80268200730073 -1.75750721562156
 6  8.57645388508851  0.47336729292929  0.28157636383638
 6 -8.56545950435043 -0.41616148144814 -0.06910323322332
 6  7.42151071927193  1.31512031233123  0.42867548014801
 6 -7.54537343124313 -1.37540601570157 -0.27190758765877
 6  7.73464651435143  2.80191282848285  0.66471890889089
 6 -7.73387057525753 -2.87386739783978 -0.54532180978098
 6  6.23673757525753  0.83871826082608  0.36064822382238
 6 -6.22268087798780 -0.88131895449545 -0.24930704240424
 6  4.91347199789979  1.46357868976898  0.41111077007701
 6 -4.92624223602360 -1.62781875967597 -0.35304668626863
 6  3.76876558815882  0.84681224642464  0.31943389268927
 6 -3.79343472867287 -0.99128976167617 -0.29531196889689
 6  2.42162546394639  1.42342305000500  0.43838832673267
 6 -2.48963796319632 -1.67642270097010 -0.47262054215422
 6  2.28393276487649  2.89907927442744  0.84892926622662
 6 -2.61332187758776 -3.23593712021202 -0.57208855895590
 6  1.22945449394939  0.70611195279528  0.27867278427843
 6 -1.27465563866387 -1.01234980698070 -0.46981568666867
 6  1.10092446464646 -0.70539548674868 -0.07195471517152
 6  0.04338487808781 -1.48855509530953 -0.41163491949195
 1  14.09343944974497 -0.08283585408541  0.08734677757776
 1  13.85235224902490 -0.20647902360236 -1.70378391679168
 1 -12.75593195819582  2.05019740994099  1.85603916871687
 1 -13.96475733333333  0.68038753105311  1.64071050915092
 1  14.03758438043804 -2.39445026272627 -1.02080552635264
 1  12.31276715841584 -2.19898379837984 -1.71877800110011
 1 -14.22037542574257  2.84598795879588  0.26358739633963
 1 -13.80639542334234  1.37497717191719 -0.95637966006601
 1  13.28356031983198 -2.13607611421142  1.39475135713571
 1  12.06455390989099 -3.25325901800180  0.75515237083708
 1 -11.80215000710071  3.32234995569557  0.08149466646665
 1 -12.20616683058306  3.03567707550755 -1.58718261946195
 1  10.99095246574658 -0.47974105140514 -2.49420755345535
 1  12.19512639333933  0.64426908820882 -2.96915348934894
 1  10.60300787208721  1.29253236493649 -1.84306502600260
 1  12.70452140624062  1.81876877877788  0.79417675817582
 1  11.66428483538354  2.62182209310931 -0.28494265126513
 1  13.32096395269527  2.47781805170517 -0.86208847994799
 1 -13.44129336003600 -0.47329133813381 -0.72162826352635
 1 -13.75344751735174 -1.53548935313531  0.79867708840884
 1 -12.30872847604761 -1.82595100000000 -0.18501438393839
 1 -11.18884137503750  0.04527888848885  2.95530518961896
 1 -11.05833235863586 -1.58668966966697  2.00597461366137
 1 -12.71299536353635 -1.09007347524753  2.74282281038104
 1  10.00305371197120  1.64272913301330  0.64633054095410
 1 -10.04928937363736 -1.77924303430343 -0.21381775977598
 1  9.46148022552255 -1.25996359105911  2.23270702830283
 1  10.84894570867087 -1.89747594549455  2.92965439543954
 1  9.68534060126013 -2.72948279827983  1.91121074267427
 1 -9.33418045334533  1.04504681728173 -2.04450694759476
 1 -9.34947975287529  2.68279180118012 -1.41122116831683
 1 -10.56343660866087  2.35873087848785 -2.52455242854285
 1  8.29233482428243 -0.58698947914791  0.08021107070707
 1 -8.24393778897890  0.51973616771677  0.13425977347735
 1  8.16927015911591  2.88619365526553  1.77280666316632
 1  6.78888076877688  3.47979568376838  0.54351693139314
 1  8.52917715541554  3.30565922792279 -0.01345456835684
 1 -8.57023797599760 -2.80009706880688 -1.34968166176618
 1 -8.27423841214121 -3.74394758205821  0.10552669196920
 1 -6.91033558615862 -3.39812246354635 -0.58530741594159
 1  6.14535540004000 -0.23307853465346  0.25893387668767
 1 -5.91769375397540  0.05357729622962 -0.25909618641864
 1  4.85336869416942  2.52352079617962  0.71569447624762
 1 -4.89697979827983 -2.59371288768877 -0.48230037113711
 1  3.84412467916792 -0.20041461136114  0.04099373777378
 1 -3.54247187838784  0.10527685758576 -0.22211407810781
 1  2.76676737613761  3.10568096419642  1.95559421472147
 1  1.16308350915092  3.35880661246125  1.10318004550455
 1  2.56102316111611  3.54959543304330  0.01748777917792
 1 -3.29877174677468 -3.41841019691969 -1.64339935073507
 1 -3.10177178297830 -3.53224521742174  0.42611726312631
 1 -1.50888185948595 -3.64393472787279 -0.60047227362736
 1  0.23734613541354  1.15467138233823  0.37876852205221
 1 -1.50063115171517  0.07896588378838 -0.05534326042604
 1  2.07030557505751 -1.15160421012101 -0.08012757695770
 1  0.10740125092509 -2.41190623292329 -0.75420628152815

