%nproc=4
%Mem=2GB
# td=(NStates=1) B3LYP/6-31G(d,p) 

TD

0 1
 6  12.17349169176918  0.38797939843984 -0.76622274117412
 6 -12.09814212831283 -0.05233027462746  0.96402558145815
 6  13.48387780048005 -0.32324198419842 -0.62996899589959
 6 -13.03847034693469  0.99564395589559  1.30344105850585
 6  13.23313562776278 -1.84737040944094 -0.63293505230523
 6 -13.47668226432643  1.94099261136114  0.09800016711671
 6  11.04162595649565 -0.07577331283128  0.21655919371937
 6 -11.04744241204120  0.34272415471547 -0.14104173897390
 6  12.49796423382338 -2.17987028102810  0.70364434073407
 6 -12.14620450305030  2.55969627782778 -0.55620395629563
 6  11.15234494249425 -1.18045009950995  0.91798836723672
 6 -11.08818361256126  1.51205682748275 -0.82105097879788
 6  11.64406499419942  0.53097422252225 -2.21335981458146
 6  12.54837825122512  1.86570062516252 -0.32792431143114
 6 -13.04706229702970 -1.24561167986799  0.30535436533653
 6 -11.42314118211821 -0.71325449904990  2.10659880808081
 6  9.96042410501050  0.82501861546155  0.32107410791079
 6 -9.98844865176518 -0.53611615371537 -0.33665775357536
 6  10.18181235753575 -1.67667747944794  1.97299993489349
 6 -10.01211418161816  1.95040677977798 -1.87376884178418
 6  8.67749398909891  0.40754071027103  0.33031123732373
 6 -8.71323428182818 -0.31559142444244 -0.31934825772577
 6  7.50412898109811  1.23240204050405  0.42224483708371
 6 -7.57794668856886 -1.27024549964997 -0.41706210311031
 6  7.69877292699270  2.67700033723372  0.56461889888989
 6 -7.95266245444544 -2.69812982408241 -0.78709598719872
 6  6.22092599409941  0.77927231623162  0.27798995799580
 6 -6.31420002990299 -0.87068789138914 -0.27801991369137
 6  4.87594824552455  1.38316064796480  0.30115977497750
 6 -5.14803441524152 -1.66452243004300 -0.37922930453045
 6  3.73570228182818  0.74682224742474  0.28375032433243
 6 -3.85226061126113 -0.99628026072607 -0.24809724742474
 6  2.38195149654966  1.30385109280928  0.30761524942494
 6 -2.60687968736874 -1.61112617131713 -0.33832711281128
 6  2.39457382898290  2.86567593409341  0.53318769206921
 6 -2.58620916631663 -3.12566609310931 -0.79703105320532
 6  1.23489503800380  0.72424376597660  0.16969188618862
 6 -1.40858903200320 -0.84450302230223 -0.13743244834483
 6  1.03246761896190 -0.65529047624762  0.01093357365737
 6 -0.13359281968197 -1.35820206000600 -0.19792354835484
 1  13.88513861966197  0.16802923242324  0.41609965286529
 1  14.19191620542054 -0.16778515421542 -1.52403594199420
 1 -12.63263962896290  1.58292068226823  2.01178474327433
 1 -13.95514637223723  0.62344183648365  1.85859229732973
 1  14.30173079507951 -2.33178399609961 -0.65310875667567
 1  12.71442732443244 -2.17831173117312 -1.68919504280428
 1 -14.10197358555856  2.76801016101610  0.54917595519552
 1 -13.88962374617462  1.30255993019302 -0.61013503560356
 1  12.91946391019102 -2.19539204580458  1.79901178317832
 1  12.20506796129613 -3.26127982008201  0.83840069566957
 1 -11.74233402550255  3.34929264996500  0.10804732173217
 1 -12.56011222512251  3.27962146994700 -1.46942084328433
 1  11.54841821232123 -0.45201827912791 -2.57873600630063
 1  12.16039291999200  1.42243690499050 -2.96798337233723
 1  10.55718328962896  0.83402651435143 -2.06206692619262
 1  12.72676363046305  1.98894579647965  0.92185952645265
 1  11.82240064696470  2.73423333423342 -0.61346550355036
 1  13.57700955725573  2.02820309020902 -0.64892716381638
 1 -13.73353258395840 -1.11805581458146 -0.49356545724572
 1 -13.64589676227623 -1.67427323152315  1.03529074977498
 1 -12.18771637483749 -2.05107351225123 -0.25189107160716
 1 -10.66230872177218 -0.04780041944194  2.55638529762976
 1 -11.03331985738574 -1.79329032973297  1.87540155635564
 1 -12.08529259325933 -1.01483595149515  2.95534406250625
 1  10.12768617521752  1.85583044314431  0.61837774567457
 1 -10.10660510521052 -1.75223033303330 -0.39483586158616
 1  9.60099417691769 -0.96172376707671  2.57124088168817
 1  10.84337515161516 -1.94867106500650  2.76997842784278
 1  9.59127119431943 -2.64955480548055  1.63896351795180
 1 -9.51174821012101  1.06065837843784 -2.10090258715872
 1 -9.44865967086709  2.82466598859886 -1.51844189038904
 1 -10.76124638963896  2.38151315671567 -2.73279325262526
 1  8.51783737453745 -0.59547032723272 -0.22574952535254
 1 -8.37581097629763  0.74035822992299 -0.27166081858186
 1  8.15908914101410  2.83755879177918  1.54829421192119
 1  6.79925180588059  3.24548225242524  0.62283486318632
 1  8.41911614931493  3.07625628762876 -0.20964418731873
 1 -8.40409136133613 -2.73518057715772 -2.05043173677368
 1 -8.72403339163916 -2.95822901020102 -0.04383824452445
 1 -7.05443999659966 -3.32864551585159 -0.64650353555355
 1  6.16081694619462 -0.12692791959196  0.19673765706571
 1 -6.07004898949895  0.13421536003600 -0.11018129492949
 1  4.76048940624062  2.61335978007801  0.40595350215022
 1 -5.08863896419642 -2.77031054745475 -0.54899704080408
 1  4.05207547424742 -0.33111768166817  0.47561720012001
 1 -3.84415204640464  0.03019934983498 -0.05305717241724
 1  2.95799649904991  3.14525492159216  1.37312596789679
 1  1.35400260106011  3.20164089588959  0.61014074157416
 1  2.93875093389339  3.52055252875288 -0.18449241884188
 1 -2.87363923352335 -3.15516387228723 -1.89719473027303
 1 -3.11329293509351 -3.99141113401340 -0.17393274187419
 1 -1.50985195649565 -3.53573390779078 -0.68424065046505
 1  0.21495389618962  1.06374228942894  0.36688733393339
 1 -1.62253334193419  0.26735472267227 -0.06957468356836
 1  2.01874041854185 -1.33062211191119 -0.13182274647465
 1 -0.01500098929893 -2.49177421972197 -0.41884274517452

