%nproc=4
%Mem=2GB
# td=(NStates=1) B3LYP/6-31G(d,p) 

TD

0 1
 6  12.10711505410541  0.71028162866287 -0.70406652555256
 6 -11.91917423152315  0.09416437483748  0.95561474037404
 6  13.36658607130713 -0.29686934693469 -0.71631763076308
 6 -12.76442294219422  1.35274966646665  1.41501221562156
 6  13.10065237943794 -1.76125179757976 -0.59208096689669
 6 -13.28321291739174  2.16112462456246  0.17494786188619
 6  11.02741453535354  0.02666693119312  0.27029456725673
 6 -10.88569623742374  0.51031091339134 -0.10581821662166
 6  12.31750618801880 -2.21550384438444  0.63151712801280
 6 -12.06176605920592  2.64514482268227 -0.54704304020402
 6  11.14157386538654 -1.18648070257026  0.87011357975798
 6 -10.95070986518652  1.64451007280728 -0.88473734743474
 6  11.57345793349335  0.84908603370337 -2.16395487408741
 6  12.61979539293930  2.04625868096810 -0.11647316631663
 6 -12.97993558435844 -0.91239835853585  0.39111294119412
 6 -11.41432030003000 -0.49170234383438  2.12433058125813
 6  9.79663772637264  1.00883699729973  0.43813581408141
 6 -9.92998280518052 -0.50999354145415 -0.29222331013101
 6  10.21891606790679 -1.85526533823382  1.91430406530653
 6 -10.02454542474247  1.89433117221722 -1.99395085998600
 6  8.49940618031803  0.56431638783878  0.28283648984898
 6 -8.56709966836684 -0.42581244654465 -0.28238456135614
 6  7.36578514671467  1.37553635393539  0.36939955255526
 6 -7.55564445834584 -1.38996747184718 -0.43909430633063
 6  7.50953400310031  2.88630126732673  0.63265570257026
 6 -7.92526971517152 -2.84484449554955 -0.69253653125313
 6  6.10803470497050  0.75479986898690  0.46499865886589
 6 -6.21125973587359 -1.03050387298730 -0.24251636333633
 6  4.82171282198220  1.27160949284928  0.50850050905090
 6 -5.05400501230123 -1.80276625442544 -0.39103048464846
 6  3.63759247084708  0.63083064826483  0.27738968826883
 6 -3.83184857005701 -1.28999963266327 -0.36536897459746
 6  2.34660796219622  1.21691239893989  0.22807729562956
 6 -2.50573957335734 -2.01734679337934 -0.37079035913591
 6  2.18455282688269  2.71530089658966  0.56256062936294
 6 -2.54697524292429 -3.52901642814281 -0.62698404850485
 6  1.19649119761976  0.51734307590759  0.03617853485349
 6 -1.45171334443444 -1.19323789578958 -0.35279398449845
 6  1.06771114331433 -0.91610655785579 -0.23836135583558
 6 -0.06403586398640 -1.64002024182418 -0.44353810981098
 1  13.92774288008801 -0.09165673617362  0.32556059895990
 1  13.75916293009301 -0.17389576527653 -1.84829836823682
 1 -12.17176354135414  2.12438482868287  1.81489505430543
 1 -13.67368822642264  1.10758025032503  2.14224066216622
 1  14.02069269126913 -2.41884270197020 -0.70298374417442
 1  12.77484336603660 -2.07707160716072 -1.49889601290129
 1 -13.64444783298330  3.08036139613961  0.57939897749775
 1 -13.96778156195620  1.45299497369737 -0.38066208830883
 1  12.91680364416442 -2.31524403100310  1.58990087208721
 1  11.94782223672367 -3.30386407850785  0.64869172477248
 1 -11.60693048514852  3.62405012571257 -0.05657914091409
 1 -12.44229044294429  3.11533504130413 -1.45391929312931
 1  11.24019739023902 -0.29700277757776 -2.65838397109711
 1  12.49165604630463  1.18244290559056 -2.77935450945095
 1  10.85995356665667  1.78108121982198 -2.26012673217322
 1  13.13024397849785  1.94982188408841  0.97571491199120
 1  11.67291569846985  2.70835074597460  0.16702254525453
 1  13.29600145644564  2.57401767166717 -0.99462173327333
 1 -13.45366459715972 -0.60274428342834 -0.55254135483548
 1 -13.97269944254425 -1.17135293949395  0.99111633233323
 1 -12.51842944614462 -1.88916732163216  0.21612573007301
 1 -10.90290278117812  0.19195355595560  2.84525418451845
 1 -10.64125065046505 -1.35726672737274  2.06898091429143
 1 -12.09416348034804 -0.75328979687969  2.73192172027203
 1  9.91876528312831  1.92924778487849  0.73431933983398
 1 -10.16876132083208 -1.65928103810381 -0.26130250825083
 1  9.06511058855886 -1.26162375707571  2.16717047464746
 1  10.95493630773077 -2.01458765666567  2.80058148814881
 1  9.84470653785379 -2.89895974597460  1.32550217181718
 1 -9.32791982728273  1.19261157375738 -2.13488598549855
 1 -9.72715752065206  3.03079660166017 -1.60673071927193
 1 -10.77981824682468  2.25986099149915 -2.89122909620962
 1  8.46595218601860 -0.55895667586759  0.16562961256126
 1 -8.19946334153415  0.64283847794779 -0.38150180268027
 1  8.02820605270527  3.22561759765977  1.69516889938994
 1  6.53692557325733  3.34590229442944  0.58362094179418
 1  8.19665390309031  3.51472013401340 -0.11184440734073
 1 -8.42219317151715 -2.79754681378138 -1.59217591119112
 1 -8.45582657095710 -3.35266845414541  0.21059719901990
 1 -7.18461301390139 -3.65790844214421 -0.71803068826883
 1  6.13953481798180 -0.28357358415842  0.19522750605060
 1 -6.05843782838284  0.17300923942394 -0.42362263906391
 1  4.49511286858686  2.47692613671367  0.60163307010701
 1 -4.93496359665967 -2.77205072147215 -0.42223436453645
 1  3.75363563026303 -0.36511108100810  0.05676531493149
 1 -3.69861749294930 -0.33908757885789  0.04075220852085
 1  2.71385208460846  2.92728312441244  1.50557921322132
 1  1.14076127692769  3.00031076287629  0.68779850735074
 1  2.63167022582258  3.46437691119112 -0.19407337693769
 1 -2.76142801240124 -3.40411876777678 -1.69889490029003
 1 -3.21236284208421 -3.97146913981398 -0.07746309490949
 1 -1.29707067836784 -3.90269060346035 -0.48385061146115
 1  0.13265566636664  0.98796471167117  0.11567221242124
 1 -1.71399248784878  0.03839182638264 -0.20203792989299
 1  2.17046559105911 -1.49257830753075 -0.14719428362836
 1  0.14716522732273 -2.62343738603860 -0.65083594449445

