%nproc=4
%Mem=2GB
# td=(NStates=1) B3LYP/6-31G(d,p) 

TD

0 1
 6  12.12611695429543  0.41707230773077 -0.59617573647365
 6 -12.00624293839384 -0.05403044464446  0.88133731263126
 6  13.41411082378238 -0.46424608460846 -0.71391739073907
 6 -12.82707920782078  1.14006839833983  1.42102281668167
 6  13.03228554275428 -1.88489416181618 -0.54594635343534
 6 -13.40393498959896  2.03619213131313  0.34982534963496
 6  11.05489728362836  0.01551581608161  0.37666520432043
 6 -10.86556422422242  0.39964984728473 -0.07996563136314
 6  12.15974041144114 -2.21467376137614  0.72065604190419
 6 -12.11302118471847  2.62715302350235 -0.39534787068707
 6  11.14019372737274 -1.19390144464446  0.98824539293929
 6 -11.02311710591059  1.55030065186519 -0.74823369706971
 6  11.48719930763076  0.49743086818682 -2.00795927452745
 6  12.50297371077108  1.91627568266827 -0.20036155515552
 6 -12.97870546134613 -1.16048316701670  0.38266209610961
 6 -11.18686755475547 -0.70892406600660  2.11089923812381
 6  9.82773083568357  0.92132824642464  0.51594359485949
 6 -9.87181698859886 -0.63999654175418 -0.23954804260426
 6  10.17986216251625 -1.71575138683868  2.06985962086209
 6 -10.12191516171617  2.04118585768577 -1.81267273217322
 6  8.57547378707871  0.50088004420442  0.22130033623362
 6 -8.50539349774978 -0.31801166646665 -0.34530085298530
 6  7.34231279947995  1.41292009230923  0.41809442204220
 6 -7.51586047994800 -1.37928640374037 -0.46344674157416
 6  7.67358040774077  2.83372600980098  0.74370680768077
 6 -7.84405159335934 -2.79911992309231 -0.74780205780578
 6  6.12820672217222  0.79036342534253  0.20499265826583
 6 -6.20704931483148 -0.86022684528453 -0.38074018571857
 6  4.86575722642264  1.50880321222122  0.32884254325433
 6 -5.04937454925493 -1.57416339413941 -0.60319170077008
 6  3.67000571217122  0.83132069726973 -0.04291234193419
 6 -3.77913329852985 -1.09669030173017 -0.31931436913691
 6  2.28005130653065  1.34219492719272  0.00050453835384
 6 -2.52545154455446 -1.79453451215122 -0.45431871197120
 6  2.25644001560156  2.79603897039704  0.32979735303530
 6 -2.52760330573057 -3.30822434893489 -0.77772912301230
 6  1.15779732823282  0.60682202380238 -0.06102118511851
 6 -1.35177335043504 -1.08103667566757 -0.21316002110211
 6  1.01323569576958 -0.82494744194419 -0.10928844854485
 6 -0.00112957335734 -1.58699493929393 -0.28488224422442
 1  14.01963206900690 -0.16941451195120  0.24931297419742
 1  13.85642265606561 -0.23196157185719 -1.63620715911591
 1 -12.28732509750975  1.69094148434843  2.11189475427543
 1 -13.63026388398840  0.83412290459046  1.83880031813181
 1  13.74552517451745 -2.42716353405341 -0.57365081088109
 1  12.45591147284729 -2.22703660366037 -1.35479160246025
 1 -14.13214660286029  2.74621798179818  0.63391442904290
 1 -13.92259704350435  1.59126880108011 -0.54599862196220
 1  12.70745270907091 -2.43270577717772  1.55337721972197
 1  11.74134158865887 -3.20004369646965  0.67862471807181
 1 -11.84526431853185  3.41369909060906  0.19079559655966
 1 -12.43403961786179  3.13254676247625 -1.47010091129113
 1  11.29012238273827 -0.60235331263126 -2.32765089778978
 1  12.10963784448445  0.98330299159916 -2.92696927092709
 1  10.57212478377838  1.18077118881888 -1.99375009450945
 1  12.95175612971297  1.96967386928693  0.75503284378438
 1  11.62510091699170  2.63124303520352 -0.15536969396940
 1  13.21200305660566  2.65479574947495 -0.74034630573057
 1 -13.74535376607661 -0.83004701370137 -0.42364846554655
 1 -13.63037521012101 -1.49219502370237  1.32381960266027
 1 -12.43417102030203 -1.96220462536254  0.07184130163016
 1 -10.57798028892889  0.05304966556656  2.31198085718572
 1 -10.56554307970797 -1.48473947464746  1.52283629982998
 1 -12.07332139613961 -0.98641310921092  2.80652918101810
 1  10.13261666826683  1.96928178827883  0.85309121702170
 1 -10.17592203690369 -1.73948905890589  0.06792041404140
 1  9.58640271777178 -0.78053564826483  2.44883864146415
 1  10.70262107620762 -1.93493969186919  3.03173460346035
 1  9.50759282648265 -2.50252010201020  1.70098972057206
 1 -9.73455049034903  1.12967528012801 -2.29535203210321
 1 -9.17460226512651  2.65627914991499 -1.29803985018502
 1 -10.61853211821182  2.50539554495449 -2.69123909720972
 1  8.31940753155316 -0.56104688488849 -0.29677662806281
 1 -8.23544693989399  0.72809700380038 -0.31490514301430
 1  8.38883211531153  3.04407944384438  1.56155553805381
 1  6.68564044474447  3.40792849704971  0.92582516221622
 1  8.20636487418742  3.38588725072507 -0.09506272917292
 1 -8.11079203140314 -3.06633369246925 -1.80339703330333
 1 -8.62768375667567 -3.13148633593359 -0.08674253495350
 1 -6.93996854945495 -3.40647329862986 -0.47970685588559
 1  6.20933179767977 -0.28489371617162 -0.08837085378538
 1 -6.21991397599760  0.11869380788079  0.03855357855786
 1  4.90537389468947  2.61851029512951  0.35334824162416
 1 -5.05353545384538 -2.57078059445945 -0.68031017211721
 1  3.80313057975798 -0.28368293819382 -0.16823718531853
 1 -3.64738236943694 -0.07903157325733 -0.26648851555156
 1  2.56111681108111  3.29708010411041  1.26725538083808
 1  1.17709491029103  3.23574430623062  0.32616234373437
 1  2.92334939373937  3.50393086658666 -0.43213718331833
 1 -3.05205707530753 -3.60563891979198 -1.70837584838484
 1 -2.80190179597960 -3.86189818271827  0.23332798419842
 1 -1.57752872417242 -3.53001333573357 -0.85376760316032
 1  0.28445084588459  1.21423733893389 -0.06573592839284
 1 -1.56549763836384  0.09831781898190 -0.11332905900590
 1  2.08739728422842 -1.07531658135814  0.00861129692969
 1  0.39917042784278 -2.68527356965697 -0.64590545144514

