%nproc=4
%Mem=2GB
# td=(NStates=1) B3LYP/6-31G(d,p) 

TD

0 1
 6  12.13557790039004  0.45840644114411 -0.85334145304530
 6 -12.06939925402540 -0.10023506510651  0.91353053195320
 6  13.41348076077608 -0.34682434243424 -0.71485748474847
 6 -13.01451795169517  1.13242763426343  1.33514422882288
 6  13.12019433363336 -1.86890256265627 -0.55831759055906
 6 -13.41361595769577  2.09442795489549  0.14750511761176
 6  11.03589538343834  0.05875013951395  0.18648618641864
 6 -11.04929259705970  0.41719160146015 -0.08559619441944
 6  12.48808324572457 -1.95727802180218  0.73806778307831
 6 -12.13775365796580  2.64142445064506 -0.48130646654665
 6  11.23479318731873 -0.97707976247625  1.09271583998400
 6 -11.02119691389139  1.62931855365537 -0.85696457015702
 6  11.45651623932393  0.40147127222722 -2.29420789938994
 6  12.51156456985699  1.91211526662666 -0.67923944294429
 6 -13.02527011781178 -1.22182930163016  0.24426825672567
 6 -11.45705457345735 -0.64189736333633  2.07498564676468
 6  9.80894895749575  0.82235834943494  0.43200520102010
 6 -9.94925473237324 -0.50159270137014 -0.31885597339734
 6  10.40669484578458 -1.49984979667967  2.11702433733373
 6 -10.02090506070607  2.05855759485949 -1.85924738963896
 6  8.57360360006001  0.38070802700270  0.38475668186819
 6 -8.60973393179318 -0.30929079437944 -0.15731205410541
 6  7.36315488368837  1.26999579987999  0.56929954255426
 6 -7.51714060796080 -1.22305078017802 -0.37373777067707
 6  7.53865691539154  2.83696633383338  0.61750418741874
 6 -8.06344353255326 -2.62746275737574 -0.83039031663166
 6  6.10555445694570  0.71129551855186  0.38837099609961
 6 -6.17589619951995 -0.81477229982998 -0.32070418211821
 6  4.83282393309331  1.42185451735174  0.40708036703670
 6 -4.99490910271027 -1.55716169396940 -0.59131051265126
 6  3.65376408800880  0.60524809000900  0.35824777407741
 6 -3.76580196539654 -1.09326995969597 -0.31821425912591
 6  2.42354565596560  1.21827253495350  0.37641212911291
 6 -2.50129912931293 -1.84855991469147 -0.39157243734373
 6  2.34514888648865  2.64705407190719  0.76276064936494
 6 -2.43393393879388 -3.32178570507051 -0.80044139423942
 6  1.17347889638964  0.49913125472547  0.20128504550455
 6 -1.35072324542454 -1.18313688568857 -0.33768247334733
 6  1.13325769796980 -0.86332127932793 -0.08452597229723
 6  0.00594113371337 -1.60406664646465 -0.35213896989699
 1  14.06558666446645 -0.02252982348235  0.11843988688869
 1  13.91115812961296 -0.05637401310131 -1.56560009840984
 1 -12.41317768276827  1.75881827202720  1.99105267006701
 1 -13.89914077167717  0.65782527482748  1.86330276837684
 1  14.18419904190419 -2.44843566126613 -0.83337678347835
 1  12.44030991269127 -1.96461036103610 -1.35275139843984
 1 -13.92941632983298  2.69284264426443  0.46334737233723
 1 -13.86527131093109  1.77298697289729 -0.72245626772677
 1  13.32977494129413 -1.77613011961196  1.48671055305531
 1  12.10135759025903 -3.17445113721372  1.03474032963296
 1 -11.94217400950095  3.61794951565156  0.05949246624662
 1 -12.19894610851085  3.18357186498650 -1.67728162936294
 1  11.15653902440244 -0.63147622492249 -2.61088922162216
 1  12.12136901760176  0.74720938223822 -3.11051762576258
 1  10.54178174947495  0.95073818551855 -2.25838655815582
 1  12.71302225632563  2.22604950685068  0.22523986448645
 1  11.80448885578558  2.68824873577358 -0.94511866886689
 1  13.35244710101010  2.36463673357336 -1.11020329142914
 1 -13.73047227792779 -0.87428143714371 -0.61357745844585
 1 -13.69837200980098 -1.57505330953095  0.98985620632063
 1 -12.56253385658566 -1.98809721462146 -0.00361624412441
 1 -10.81070356125613  0.14037839843984  2.43529318841884
 1 -10.74132065746575 -1.72517351805180  1.89385340154015
 1 -12.27178124212421 -1.00043451135113  2.79830835893589
 1  10.05229863646365  1.92705756585659  0.45643155105511
 1 -9.97233167786779 -1.62651776177618 -0.62337871587159
 1  9.54577865536554 -0.67256485118512  2.45532929052905
 1  10.97675848994900 -1.91387758565857  2.79291072107211
 1  9.82953502070207 -2.33456330633063  1.89983960556056
 1 -9.29589662496250  1.39936224882488 -2.06506900380038
 1 -9.52983778867887  2.85033855585559 -1.50129017521752
 1 -10.56030629562956  2.45735074047405 -2.65848582188219
 1  8.43000859165917 -0.65191597179718  0.26965001460146
 1 -8.32982637783778  0.54013820792079 -0.01285493799380
 1  8.11658489058906  3.08335337123712  1.59274865736574
 1  6.60911279197920  3.40490819501950  0.61309388908891
 1  7.97024126182618  3.30139880188019 -0.09700292319232
 1 -8.65429638183818 -2.66002306140614 -1.70199689328933
 1 -8.37244823312331 -3.34176736403640  0.05348148744874
 1 -7.28509306190619 -3.38590124142414 -1.00289917511751
 1  5.96709757425743 -0.34326955375538  0.49827781108111
 1 -6.35843782838284  0.36023796229623  0.01873159635964
 1  4.89311266856686  2.43359180328033  0.46665957275728
 1 -5.16134623492349 -2.60676419281928 -0.83065520662066
 1  3.83549381608161 -0.48041261116112  0.13009264766477
 1 -3.91141877307731 -0.06376004610461  0.07115524882488
 1  2.65434613401340  2.90528092419242  1.81794044934493
 1  1.27254445524552  2.92334306610661  0.68178790629063
 1  2.88507556635664  3.38223869736974  0.18753478387839
 1 -2.95369723932393 -3.35474383028303 -1.78603361416142
 1 -2.84017562336234 -3.93974596749675 -0.16034138273827
 1 -1.32545351665167 -3.75804613901390 -0.99822204860486
 1  0.22488488928893  1.23830974617462  0.40607125232523
 1 -1.33155424402440 -0.11553356615662 -0.06712443854385
 1  2.17113565806581 -1.35209425912591 -0.09428899309931
 1  0.07802831363136 -2.73544858715872 -0.38826968786879

