%nproc=4
%Mem=2GB
# td=(NStates=1) B3LYP/6-31G(d,p) 

TD

0 1
 6  12.02304664726473  0.51971257175718 -0.86599271817182
 6 -12.18139045314531 -0.10720576217622  0.65243442234223
 6  13.33719313201320 -0.23366302630263 -0.90335633463346
 6 -13.10950745064507  1.10775516701670  0.96622733713371
 6  13.09306162036204 -1.72357803020302 -0.79363112191219
 6 -13.28842343844384  2.07351586368637 -0.17464709760976
 6  11.08330012391239 -0.01393712921292  0.30278781658166
 6 -10.94270193799380  0.42909279157916 -0.06482411721172
 6  12.40233467086709 -2.11066336033603  0.48088206450645
 6 -11.96745662826283  2.63918422662266 -0.72072040794079
 6  11.17166687468747 -1.20789284378438  0.74341090949095
 6 -10.86720151435143  1.66279190099010 -0.67340621432143
 6  11.29067965566557  0.55538666376638 -2.19732821142114
 6  12.48176158955896  1.96315037013701 -0.53361488048805
 6 -12.86451404220422 -1.13036015471547 -0.11705787588759
 6 -11.74556342434243 -0.73792696629663  2.00416856505651
 6  9.92507056965697  0.80259637323732  0.47107910841084
 6 -9.81933174007401 -0.41443398549855 -0.34077816561656
 6  10.18380255655565 -1.70793060476048  1.80475311021102
 6 -9.85267823802380  2.17062880198020 -1.59716118101810
 6  8.62647888758876  0.46803675987599  0.41948015421542
 6 -8.52969592799280 -0.21696156145615 -0.11957828072807
 6  7.41682025022502  1.37201600190019  0.56376898949895
 6 -7.57201609550955 -1.22623109820982 -0.32842323922392
 6  7.66753980368037  2.87531016821682  0.95774821182118
 6 -7.96591377957796 -2.65891590269027 -0.52901017861786
 6  6.17220112161216  0.85638002700270  0.28191035003500
 6 -6.23513212311231 -0.99098992159216 -0.25029714141414
 6  4.83647429812981  1.42705503740374  0.36494615361536
 6 -5.01448105990599 -1.76060203800380 -0.31495287688769
 6  3.71687039863986  0.75582314751475  0.14029597889789
 6 -3.73581896709671 -1.17568820152015 -0.11936437413741
 6  2.34945824722472  1.24397510521052  0.40241472937294
 6 -2.53179217861786 -1.90638569726973 -0.16630991109111
 6  2.24116848844885  2.66427579407941  0.72147652095210
 6 -2.53014355975598 -3.42699622612261 -0.39874122422242
 6  1.17971952045205  0.41924326592659  0.29137405440544
 6 -1.40300847394739 -1.12250082208221  0.01793308820882
 6  1.11463583578358 -0.85489043624362 -0.12708022772277
 6 -0.01862132253225 -1.59248548834883 -0.09457321332133
 1  13.79404951075107  0.16668909840984 -0.13686564366437
 1  14.01002801660166 -0.10808918461846 -1.86193973237324
 1 -12.81453781878188  1.68547093729373  1.85477904270427
 1 -14.35071592919292  0.78030752305231  0.89581601970197
 1  13.98907952995300 -2.31722253995399 -1.01207465326533
 1  12.32149803150315 -1.91175507550755 -1.63298942224222
 1 -13.99371275947595  2.78270163016302  0.02992403000300
 1 -13.68741352515252  1.42058173237324 -1.11041506360636
 1  13.07310927472747 -2.26858936553655  1.25396727872787
 1  11.97383483798380 -3.14138783088309  0.48908576417642
 1 -11.82171196329633  3.61942966366637  0.00047656465647
 1 -11.83992020592059  3.16179968776878 -1.76245014621462
 1  11.12017538803880 -0.41553463076308 -2.11090922362236
 1  11.99796667736774  0.91913657495750 -3.12580915491549
 1  10.30386795809581  1.11059417111711 -2.27435815531553
 1  13.07747870197020  1.97159406130613  0.46610395089509
 1  11.57405581248125  2.67100701160116 -0.43533769076908
 1  13.15553741004100  2.37579784968497 -1.29363163426343
 1 -13.59714894559456 -1.09865387438744 -1.09098519921992
 1 -13.70379255185519 -1.45397120132013  0.40508772947295
 1 -12.25626322952295 -2.04638304320432 -0.36520240274027
 1 -11.10478296919692  0.22704706530653  2.52638229732973
 1 -11.13348987438744 -1.55949695039504  2.05263928012801
 1 -12.62283634763476 -0.85557002490249  2.46504503260326
 1  10.08519192579258  1.90378523862386  0.50470637853785
 1 -10.13662810751075 -1.50224533453345 -0.53148952695270
 1  9.57977205470547 -0.90889848454845  2.18953271087109
 1  10.60564137823782 -2.24425062296230  2.79095052505251
 1  9.55613768096810 -2.37344719471947  1.36389601120112
 1 -9.43372040734073  1.39274158675868 -2.06982947984798
 1 -9.02122692759276  2.78199172117212 -1.28341838803880
 1 -10.34644490949095  2.72267727312731 -2.24867484078408
 1  8.29686527732773 -0.36949772997300  0.11048409800980
 1 -8.25141853705371  0.71069526362636  0.44834118161816
 1  8.02032526462646  2.80390542644264  2.10566994949495
 1  6.57832971367137  3.52183988818882  0.86249882958296
 1  8.34296853455346  3.32502116411641  0.37452422952295
 1 -8.67423837603760 -2.82433949304930 -1.33224991859186
 1 -8.42352334063406 -3.09867305460546  0.40937707700770
 1 -7.17424197679768 -3.28378102940294 -0.79268815401540
 1  6.13740460496050 -0.08319354615462  0.11369935323532
 1 -5.99251123572357  0.13966590509051  0.07434715791579
 1  4.94956831413141  2.55614405850585  0.44520742754275
 1 -4.81683178347835 -2.80180369676968 -0.77717985908591
 1  3.75800606730673 -0.25580014991499  0.02277191559156
 1 -3.83055068626863 -0.05999967006701  0.22888102140214
 1  2.81364206360636  2.90049044514452  1.68202685798580
 1  1.26543374417442  3.09811054285429  0.75179490699070
 1  2.70272733153315  3.38063853735374 -0.09570353995400
 1 -3.36288815841584 -3.41555991189119 -1.05719072987299
 1 -2.64810641644164 -4.05535752865287  0.67812246364636
 1 -1.44769574087409 -3.68915925032503 -0.66188841524152
 1  0.24915731653165  0.89919583478348  0.18836948214821
 1 -1.51454254285429 -0.27351936473647  0.52703497739774
 1  2.07241578607861 -1.48417746744674 -0.37440700490049
 1  0.08216872767277 -2.57364240654065 -0.62212307320732

