%nproc=4
%Mem=2GB
# td=(NStates=1) B3LYP/6-31G(d,p) 

TD

0 1
 6  12.03554789738974  0.61248184868487 -0.70433655255526
 6 -12.14392670677068  0.04567952635264  0.91653083198320
 6  13.35057447014702 -0.27701736173617 -0.48509450845085
 6 -13.02158865876588  1.15253964546455  1.25258597299730
 6  13.11763407760776 -1.88749442184218 -0.48301005980598
 6 -13.38658325442544  2.15020353245325  0.19707007410741
 6  11.00487228112811  0.06552081658166  0.28434597239724
 6 -10.93775144294429  0.42910279257926 -0.12674030883088
 6  12.24934937233723 -2.07019931393139  0.76026000230023
 6 -12.04708459105911  2.65160546874687 -0.44344268016802
 6  11.10370007800780 -1.16084813931393  0.84777134553455
 6 -10.95036983118312  1.61017663946395 -0.72397127082708
 6  11.58580916861686  0.38546967206721 -2.11116959555956
 6  12.54961837523753  2.01382543764376 -0.31518303730373
 6 -12.93367095789579 -1.20281740044004  0.26678050795080
 6 -11.53291215921592 -0.59047222082208  2.30264841304130
 6  9.83553161576158  0.91279739333933  0.23892589308931
 6 -9.88482828972897 -0.53855639773977 -0.31539562736274
 6  10.16553072937294 -1.76653646534653  1.95202783768377
 6 -9.89186215641564  2.11155289438944 -1.68038950385039
 6  8.55381162086209  0.43447340354035  0.28843704990499
 6 -8.54529748814881 -0.35100496579658 -0.27901422432243
 6  7.38641720992099  1.31856065636564  0.42822543514351
 6 -7.46882577647765 -1.34669314441444 -0.44949534643464
 6  7.50760381008101  2.82336497369737  0.44542697969797
 6 -7.87531471967197 -2.81398140924092 -0.68126540414041
 6  6.17322122362236  0.80224461346135  0.30710286928693
 6 -6.17534614451445 -0.96529735233523 -0.38578068976898
 6  4.81593224392439  1.37875020692069  0.44100375937594
 6 -4.96218583038304 -1.71904788258826 -0.68765014661466
 6  3.70195890749075  0.71234880008001  0.33244519381938
 6 -3.74327971317132 -1.12925355805581 -0.41020345804580
 6  2.41095439683968  1.28249895759576  0.27997248514851
 6 -2.40844984438444 -1.85636069476948 -0.46070935103510
 6  2.19396376797680  2.81701106760676  0.65988036133613
 6 -2.49184973037304 -3.35092861936194 -0.53967531763176
 6  1.19963151165117  0.54911625322532  0.13053797079708
 6 -1.34021219431943 -1.07054562656266 -0.34772347744775
 6  1.14594896709671 -0.83176812401240 -0.21638915861586
 6  0.03606414601460 -1.58940518031803 -0.44039779577958
 1  14.00598070387039  0.06826925642564  0.27544558745875
 1  13.96668368216822 -0.20535891159116 -1.39794333273327
 1 -12.72899926492649  1.74141653185319  2.16434999979998
 1 -13.89832068966897  0.52141163346335  1.88662510061006
 1  14.18522914491449 -2.37638845654565 -0.50474392019202
 1  12.46951283298330 -2.10569446944694 -1.25078120142014
 1 -14.20333372157216  2.69106246624662  0.53113415101510
 1 -13.74459924372437  1.46020569476948 -0.65726974907491
 1  12.78976093989399 -2.17821032763276  1.68710059205921
 1  11.63341079557956 -3.18168186028603  0.58605546114611
 1 -11.48858865096510  3.66239396009601  0.03570008700870
 1 -12.36847306120612  3.05683919171917 -1.42782668386839
 1  11.51338470897090 -0.71444452175217 -2.33426155885589
 1  12.08181506220622  0.82730739203920 -2.90693726772677
 1  10.68757632893289  0.91734484618462 -2.31789250875088
 1  12.66899785388539  1.99094599649965  0.76961430193019
 1  11.74498290519052  2.64200411131113 -0.59518367536754
 1  13.40262211851185  2.45277554745475 -0.96026829792979
 1 -13.37312654335433 -0.62508651765177 -0.62301840254025
 1 -13.67785995859586 -1.70942674687469  0.97315453615362
 1 -12.32892049524953 -2.11801020592059 -0.24285016751675
 1 -11.02948543944395  0.18365272587259  2.83564322342234
 1 -11.02121864726473 -1.59719071977198  2.17735175137514
 1 -12.55503956795680 -1.02911737963796  2.97315584368437
 1  9.97476088268827  2.04976983708371  0.29989589748975
 1 -10.24878932363236 -1.56500161016102 -0.45097147514751
 1  9.55397947544755 -0.78636623132313  2.26080983858386
 1  10.69068988308831 -2.13544974287429  2.85411684168417
 1  9.44066613381338 -2.41067091709171  1.45587520912091
 1 -9.10768780408041  1.46600891349135 -2.15306780368037
 1 -9.24742954785478  2.81710523252325 -1.05187523372337
 1 -10.33971423642364  2.41764677007701 -2.55920589388939
 1  8.28146373717372 -0.56546732693269  0.15589863946395
 1 -8.25683907910791  0.64731892599260 -0.20697434993499
 1  8.38759199129913  3.15729076497650  1.47310669316932
 1  6.47384926562656  3.55220292449245  0.52570515021502
 1  8.09537377507751  3.16693535553555 -0.44128735163516
 1 -8.52596354855486 -2.83011007010701 -1.61330802440244
 1 -8.58043903220322 -3.21144433173317  0.11431757105711
 1 -7.00396494909491 -3.41161381268127 -0.63842272747275
 1  6.12349321382138 -0.27729295609561  0.30350833413341
 1 -6.13525551015101  0.12838477697770 -0.23184346114612
 1  4.67830118741874  2.30419886398640  0.56947985478548
 1 -5.14042414271427 -2.79465298169817 -0.89694183528353
 1  3.72312257895790 -0.41029559945995  0.09249888828883
 1 -3.88972660386039 -0.15736940704070 -0.29874174087409
 1  2.50692139153915  3.12233262936294  1.65380403570357
 1  1.13152035283528  2.91417214901490  0.56696642414241
 1  2.60057711651165  3.46440691419142 -0.14063803340334
 1 -3.06603847344734 -3.39814817071707 -1.40619563036304
 1 -3.23320492629263 -3.78888088098810  0.04193884528453
 1 -1.52606357765777 -3.81587192159216 -0.90187241364136
 1  0.27932033283328  1.15525144034403  0.08065871107111
 1 -1.57620870947095 -0.05339735253525 -0.28652637873787
 1  2.04322286678668 -1.44046309600960 -0.29704926912691
 1  0.23447395819582 -2.60361540384038 -0.77232809370937

