%nproc=4
%Mem=2GB
# td=(NStates=1) B3LYP/6-31G(d,p) 

TD

0 1
 6  12.23883822642264  0.60527112761276 -0.65292141104110
 6 -12.33399571367137 -0.01393643524352  0.91571074997500
 6  13.45622503520352 -0.18547820782078 -0.41499749874987
 6 -13.11300780068007  1.26359075057506  1.21906262066207
 6  13.25632794699470 -1.67469314171417 -0.65081684048405
 6 -13.46416101220122  2.02557106920692 -0.06915654855486
 6  11.08690048394840  0.01208547304730  0.29641717951795
 6 -11.07358502630263  0.44168405070507 -0.08304593939394
 6  12.36084052145215 -2.15492778677868  0.53572754905491
 6 -12.29878976157616  2.63413372157216 -0.67274561046105
 6  11.13772348034803 -1.22049410391039  0.74432100050005
 6 -11.10687548174817  1.55633125492549 -0.71652052575258
 6  11.80566115381538  0.61399252435244 -2.12887136573657
 6  12.59115252865287  2.06946100120012 -0.12311383038304
 6 -13.03696128692869 -1.14945206390639  0.03459728962896
 6 -11.72784165216522 -0.64713788738874  2.11110925912591
 6  9.95078314091409  0.82613872747275  0.35968796929693
 6 -10.01163096999700 -0.58126066816682 -0.27099118691869
 6  10.20459463576358 -1.82834264596460  1.69756239113911
 6 -9.99625259545955  2.10258199729973 -1.61425289018902
 6  8.65131137083708  0.42316227242724  0.27107531373137
 6 -8.57994095249525 -0.38562842814281 -0.11865818871887
 6  7.49169773797380  1.23492229252925  0.26836944954495
 6 -7.51042993689369 -1.30731920702070 -0.34372476937694
 6  7.59409245894590  2.74175681288129  0.77790022702270
 6 -7.93737092529253 -2.79798981008101 -0.38593587118712
 6  6.20210411191119  0.66534092309231  0.13370552955296
 6 -6.24506311621162 -0.81514233683368 -0.28016012771277
 6  4.92313296399640  1.37000933283328  0.25373503250325
 6 -4.99998961076108 -1.57975395319532 -0.32366374797480
 6  3.77203591519152  0.69665723092309  0.18190013931393
 6 -3.75670105530553 -1.05235586828683 -0.24135657335734
 6  2.41258455985599  1.28558926662666  0.10352484038404
 6 -2.50546954635464 -1.78893395209521 -0.33138641874187
 6  2.26904127572757  2.69072843934393  0.44656903020302
 6 -2.58774932033203 -3.22051557805781 -0.66378772887289
 6  1.22680422892289  0.52563390499050  0.09612452945295
 6 -1.33984215731573 -1.15705427742774 -0.16758546364636
 6  1.17879225142514 -0.93916886408641 -0.02493001270127
 6  0.01439197879788 -1.63500974077408 -0.24856861286129
 1  13.60694079987999 -0.01436900740074  0.54673271617162
 1  14.23043005680568  0.29214083838384 -1.05510904930493
 1 -12.67062342734273  2.10599298949895  1.88150171497150
 1 -13.91963282088209  0.91245073737374  1.80270670877088
 1  14.28868949094910 -2.06547736543654 -0.79565301110111
 1  12.86554243594360 -1.98889278927893 -1.59455557885789
 1 -14.23038642684268  2.81202456245625  0.07469850745075
 1 -13.96277106090609  1.36974664886489 -0.90837485958596
 1  12.96707867166717 -2.25407791439144  1.40010189218922
 1  11.75654310881088 -3.21070476257626  0.35633248884888
 1 -11.96188598069807  3.39503722442244 -0.08248173117312
 1 -12.42029824372437  2.99310281808181 -1.77537143834383
 1  11.83678704920492 -0.34192727002700 -2.68125625832583
 1  12.73076995769577  1.14582924422442 -2.66273284728473
 1  11.01647921922192  1.29322243394339 -2.12445316481648
 1  12.67978893299330  2.13778067996800  1.03515085558556
 1  11.63592199909991  2.80565047594759 -0.61155531253125
 1  13.59042089838984  2.49395966586659 -0.65500777187719
 1 -13.73290252095209 -0.72030603960396 -0.61218731943194
 1 -13.78295046764677 -1.59882568676868  0.60182740344034
 1 -12.46012361556156 -1.93614201910191 -0.58553443594359
 1 -11.06810930183018  0.14359872047205  2.74411407050705
 1 -10.85187171257126 -1.39810081078108  1.92272628882888
 1 -12.54339840384038 -1.16682115001500  2.73458198629863
 1  10.08816222282228  1.93619847994800  0.90397630553055
 1 -10.33649809450945 -1.64906001600160 -0.37817419541954
 1  9.56878095559556 -1.18265586028603  2.36530028762876
 1  10.79621043514351 -2.39083528142814  2.46243767376738
 1  9.55333740094009 -2.68990884088409  1.36270589218922
 1 -9.24737177247725  1.14413672627263 -1.94268676557656
 1 -9.46808161306130  2.87670119211921 -1.02233227942794
 1 -10.38170843584358  2.64401940734073 -2.51332130543054
 1  8.39906549734973 -0.56229700990099 -0.24445139553955
 1 -8.19559295449545  0.58112230633063 -0.19708336083608
 1  8.12696592869287  2.68444348024802  1.64098348084809
 1  6.49263114381438  2.94242194639464  0.78530110981098
 1  8.29264350205021  3.32924158615862  0.09791656875688
 1 -8.42661361356136 -2.97263432253225 -1.25808250185019
 1 -8.54491547984798 -3.09335252255226  0.39944608390839
 1 -7.18175272787279 -3.72192484378438 -0.49892877807781
 1  5.94544540904090 -0.45203042984298 -0.14006602330233
 1 -6.27102908750875  0.45946788528853 -0.07443772057206
 1  4.73585694299430  2.37927637173717  0.53241614841484
 1 -4.97914801510151 -2.63283680008001 -0.28248038913891
 1  3.74121438813881 -0.44111868176818  0.25174481288129
 1 -3.71821945314531  0.08898522842284 -0.19261112781278
 1  2.66656735613561  3.06836723282328  1.56533518881888
 1  1.15525272607261  2.97274800660066  0.31110083758376
 1  2.72144920372037  3.27918839233923 -0.28433240284028
 1 -3.09234110371037 -3.35397375327533 -1.55287029782978
 1 -3.10256186198620 -3.79953194609461  0.11852650405040
 1 -1.69820079137914 -3.81134146854685 -0.67712993939394
 1  0.41695409620962  1.29478539373937 -0.04806416121612
 1 -1.49894098269827 -0.10536254905491  0.20549282318232
 1  2.06714525902590 -1.67696674637464  0.17110754655466
 1  0.16600711151115 -2.72836787908791 -0.56593745464546

