%nproc=4
%Mem=2GB
# td=(NStates=1) B3LYP/6-31G(d,p) 

TD

0 1
 6  12.03558790139014  0.59622022252225 -0.87363348224822
 6 -12.19461177527753 -0.01561660326033  0.80505968486849
 6  13.35513492619262 -0.31646130613061 -0.85175117411741
 6 -12.97514401430143  1.29936432793279  1.29680039443944
 6  13.06061837603760 -1.79055472787279 -0.69653141194119
 6 -13.33321791789179  2.09104761686169  0.04471483858386
 6  11.01481327522752  0.00599486398640  0.23316085388539
 6 -11.03555122292229  0.33090297259726 -0.14807244204420
 6  12.31838627602760 -2.14814710871087  0.58284226052605
 6 -12.03974385698570  2.60681098929893 -0.69074741064106
 6  11.16540624862486 -1.14075613011301  0.88151471987199
 6 -10.95688048224822  1.52036765856586 -0.82911178487849
 6  11.47077766546655  0.50599172427243 -2.20473895249525
 6  12.58482189558956  2.02108616371637 -0.55313683268327
 6 -12.99938752955295 -1.13425054375438  0.14693852375238
 6 -11.64940380838084 -0.58663183678368  2.06890503870387
 6  9.82159022162216  0.80106622022202  0.35772777327733
 6 -9.93473328022802 -0.58712125422542 -0.30432452025203
 6  10.24076825312531 -1.56200601230123  1.98528116301630
 6 -9.91212418261826  2.03328506760676 -1.76405787068707
 6  8.55942218191819  0.44262421862186  0.47526573277328
 6 -8.57226018441844 -0.34684454975498 -0.23933025592559
 6  7.40334890309031  1.33644244454445  0.58343095569557
 6 -7.45104399829983 -1.31587006210621 -0.28969936683668
 6  7.62254530423042  2.79665230243024  0.84012644964496
 6 -7.86610379857986 -2.81354136523652 -0.47594487208721
 6  6.12083598509851  0.74009839883988  0.41694385338534
 6 -6.25011362126213 -0.85139596219622 -0.30475258695870
 6  4.85929658035804  1.34759709160916  0.54172383138314
 6 -5.05763537533753 -1.72859883768377 -0.39486086768677
 6  3.64687339893989  0.73841140634063  0.37881983128313
 6 -3.81479686488649 -1.10905153785379 -0.29667210491049
 6  2.35663896529653  1.28232894059406  0.46897138503850
 6 -2.49638863826383 -1.76799185788579 -0.37364064416442
 6  2.19161353295330  2.78104747124712  0.63137751105111
 6 -2.48537908330833 -3.25981950845085 -0.89042039213921
 6  1.26639818831883  0.48771011261126  0.19065398239824
 6 -1.28485665876588 -1.09042761476148 -0.21622032713271
 6  1.19142351455146 -0.86057100430043 -0.13041056075608
 6  0.01839237883788 -1.59701594139414 -0.33215697169717
 1  14.22131223702370 -0.16190376087609 -0.10820277737774
 1  13.87463447724772 -0.01313968966897 -1.54741828022802
 1 -12.28195456045604  1.81641403160316  2.00278384318432
 1 -13.88057891549155  0.84766425872587  1.81128756685669
 1  13.89292991499150 -2.44314513221322 -0.74691813761376
 1  12.41132701440144 -2.28276217621762 -1.40736685998600
 1 -13.92096548474847  2.97489084908491  0.31062209980998
 1 -13.72609739353936  1.63447312151215 -0.72073609570957
 1  13.00530249404940 -2.21177368396840  1.45792767476748
 1  11.86145359985999 -3.22032572467247  0.71204806040604
 1 -11.64478427052705  3.41472919361936 -0.03613709670967
 1 -12.26248246214621  2.91185469326933 -1.72605650685069
 1  11.05316868736874 -0.47390046734673 -2.44402253495350
 1  12.32377925862586  0.79186384768477 -2.81805837983798
 1  10.60204777607761  1.00953406510651 -2.17470819031903
 1  12.98022897699770  2.05376227812781  0.43336067656766
 1  11.80400880778078  2.86497640854085 -0.54785894289429
 1  13.40563241954195  2.16266653655366 -1.35076734783478
 1 -13.59504873557356 -0.83236724572457 -0.93128922962296
 1 -13.78408058065807 -1.62741854605461  0.70627784848485
 1 -12.28467607080708 -2.05384378927893  0.02824694219422
 1 -10.93242573347335  0.18628298889889  2.52275193429343
 1 -11.06548307370737 -1.49472047274727  1.85426944314431
 1 -12.39409347334733 -0.86758122602260  2.86947547564756
 1  10.05396880348035  1.87788264836484  0.62771867976798
 1 -10.10758520322032 -1.70670578057806 -0.19130550855086
 1  9.42610668816882 -0.82972056675668  2.23081683928393
 1  10.95448626272627 -1.87728392629263  2.83997542754275
 1  9.88731079827983 -2.59853970397040  1.67231685328533
 1 -9.37087412271227  1.15372768536854 -2.27755025192519
 1 -9.27784258915892  2.76806032803280 -1.14960500670067
 1 -10.14300456545655  2.84338934433443 -2.60093006630663
 1  8.36023161396140 -0.66282706290629  0.35274832443244
 1 -8.11873526872687  0.71890608470847 -0.20419407190719
 1  7.89507273937394  2.95786082198220  2.03646302880288
 1  6.76683856455646  3.33571127532753  0.45410799049905
 1  8.61983622132213  3.07826648864887  0.28257503460346
 1 -8.22363331553155 -2.91038809790979 -1.49066576017602
 1 -8.69102009030903 -2.87917110441044  0.26943308260826
 1 -7.14904945754575 -3.50673332463246 -0.15901478667867
 1  6.33676454095410 -0.49636486328633  0.18929691299130
 1 -6.07122910751075  0.21146308480848 -0.21750202700270
 1  4.71628498579858  2.32394083818382  0.80761366816682
 1 -5.05889598989899 -2.79730324672467 -0.46309845094510
 1  3.72826309300930 -0.25545011491149  0.04128376677668
 1 -3.74854248544854  0.00464679457946 -0.41008287498750
 1  2.89471017041704  3.20906130223022  1.39547820312031
 1  1.09329653045305  2.92396312811281  0.87215694319432
 1  2.58399545834583  3.30475094859486 -0.15259922952295
 1 -3.07951982158216 -3.33024138003800 -1.91663667446745
 1 -3.14336594239424 -3.75516750965097 -0.22574792339234
 1 -1.49623059435944 -3.91231156555656 -1.06800902730273
 1  0.23254565536554  1.07407332253225  0.17179782498250
 1 -1.46166725532553 -0.02612462526253 -0.02869059515952
 1  2.09423796829683 -1.37266631633163 -0.07114667886789
 1 -0.06666615581558 -2.70560560286029 -0.46719758065807

