%nproc=4
%Mem=2GB
# td=(NStates=1) B3LYP/6-31G(d,p) 

TD

0 1
 6  12.14873921652165  0.65509611011101 -0.60721684058406
 6 -12.12391470557056  0.05416037443744  0.96490566946695
 6  13.41851126382638 -0.29536919691969 -0.45921192019202
 6 -12.95291179107911  1.31811620312031  1.32045275967597
 6  13.15337765196520 -1.70132580498050 -0.57484924372437
 6 -13.26820141624162  2.28269678177818  0.23019338643864
 6  11.05505729962996  0.10375463996400  0.29914745254525
 6 -10.92732039983998  0.48104798709871 -0.10873850865087
 6  12.33353779117912 -2.01189348334834  0.65572954925493
 6 -11.97953783638364  2.61220152835284 -0.51176951285129
 6  11.13746345434543 -1.12464451895189  0.90056662506251
 6 -10.94527932213221  1.62425804760476 -0.68481735543554
 6  11.66069665736574  0.65967709280928 -2.01550002860286
 6  12.49339275267527  2.04591864696470 -0.30151167016702
 6 -12.99114670547055 -0.91401852055206  0.27291112101210
 6 -11.60111897989799 -0.65730890449045  2.26920506870687
 6  9.83644170677068  0.89886600020002  0.35450745124512
 6 -9.92316212311231 -0.53013555565557 -0.16569065686569
 6  10.26068024432443 -1.70543035473547  2.00504313921392
 6 -9.90349331953195  2.03387512661266 -1.77682914781478
 6  8.59369560926093  0.53162311851185  0.28007621382138
 6 -8.57974093249325 -0.26893675897590 -0.15743206610661
 6  7.42770133833383  1.34956375667567  0.38850146274627
 6 -7.54007290119012 -1.33031150625063 -0.37425782268227
 6  7.54538758845885  2.87905054225422  0.49056149314931
 6 -7.92362955115512 -2.78952896399640 -0.64849212681268
 6  6.12925682718272  0.80926531553155  0.23341550055006
 6 -6.24739334923492 -0.97511833443344 -0.37233934563456
 6  4.86416706740674  1.31550388228823  0.39843950295030
 6 -5.09816942874287 -1.75593157095710 -0.62139352095210
 6  3.61175988758876  0.68800636583658  0.31779372867287
 6 -3.81329671487149 -1.23372400510051 -0.49230166786679
 6  2.37991129252925  1.13398410611061  0.23391787968797
 6 -2.60219921932193 -1.92575763446345 -0.59683296339634
 6  2.07610198179818  2.61049041554155  0.46584095739574
 6 -2.52279282468247 -3.44775830233023 -0.70611196129613
 6  1.24939648814882  0.38885022662266  0.06193111011101
 6 -1.35690386348635 -1.24949352135214 -0.35367407250725
 6  1.12131650385038 -1.08581352855286 -0.18475599529953
 6 -0.03825328572857 -1.75413165296530 -0.46437019301930
 1  14.00179028482848 -0.00882845334533  0.47782582548255
 1  13.98311532533253  0.15317694199420 -1.38170170857086
 1 -12.39479584458446  1.98946133633363  2.02722628742874
 1 -13.86905776337634  0.98564805710571  1.73841027912791
 1  14.08459908190819 -2.24821563926393 -0.22647609340934
 1  12.54421030273027 -2.05043894389439 -1.55268139143914
 1 -13.84424781298130  3.21502486248625  0.49539057665767
 1 -14.09033381718172  1.81947162136214 -0.63657767986799
 1  12.97589955375538 -1.92459496609661  1.38600048204820
 1  11.93332078657866 -3.07373106520652  0.70905776137614
 1 -11.52354214631463  3.39973769446945  0.04916143314331
 1 -12.28795500940094  3.06618012581258 -1.40807470867087
 1  11.19252262276228 -0.40621369866987 -2.14900303300330
 1  12.58172505320532  0.84694935623562 -2.42713928792879
 1  10.84539211051105  1.20045315701570 -2.18529924942494
 1  12.57632858695870  2.36290319221922  0.74446178667867
 1  11.71039944684468  2.87014692559256 -0.46020017701770
 1  13.45130698699870  2.22404267416742 -0.66283855495550
 1 -13.63013224392439 -0.54733874287429 -0.62831893259326
 1 -13.70198237083708 -1.20800660486049  1.06090331103110
 1 -12.27585518871887 -1.75530393529353 -0.08541442394239
 1 -10.69174166506651 -0.11759739913991  2.88055771487149
 1 -11.20363688908891 -1.68807980868087  1.82343635983598
 1 -12.45769983398340 -0.91718618651865  2.91906043414341
 1  10.06245965256526  1.85145000510051  0.55482139003900
 1 -10.19168361306131 -1.55721083108311 -0.21068744674467
 1  9.38256233373337 -1.20482807750775  2.29589334693469
 1  11.02651346544654 -2.01586778467847  2.99609103910391
 1  9.83582564976498 -2.75121497149715  1.66213583518352
 1 -9.10865790109011  1.30561287388739 -1.87980047694770
 1 -9.39879468436844  2.99556307830783 -1.65664571077108
 1 -10.57232749774978  2.18784378977898 -2.67404737803780
 1  8.54162975377538 -0.45091587178718  0.27081013061306
 1 -8.07458085328533  0.61961615571557  0.17453380088009
 1  8.18821205330533  3.03566860276028  1.31020040254025
 1  6.71363324402440  3.31455916011601  0.56141872157216
 1  8.23845808350835  3.30019868186819 -0.26219944284428
 1 -8.75875682788279 -2.77177423652365 -1.32806950055006
 1 -8.08421941024102 -3.25805899319932  0.30326646594660
 1 -7.03302785538554 -3.46883953525353 -1.19334822002200
 1  6.12661352585259 -0.28151337813781  0.07946592989299
 1 -6.14464644924492  0.09215115361536 -0.04063434023402
 1  4.81906526382638  2.44375281938194  0.54033694049405
 1 -5.44240434073407 -2.84312782918292 -0.75197733883388
 1  3.48657892459246 -0.28657322722272  0.26085572397240
 1 -3.69071670287029 -0.14092776287629 -0.51678354505451
 1  2.60298099749975  3.00482087818782  1.44523317861786
 1  0.93370057085709  2.73926465826583  0.50140986848685
 1  2.64180123892389  3.36777725122512 -0.26514048364837
 1 -2.95334720432043 -3.91116947284729 -1.58770378117812
 1 -3.07649925572557 -4.00741273417342  0.06717136853685
 1 -1.51568253955396 -3.86995733013301 -0.49496172257226
 1  0.25499790059006  0.84739065426543 -0.00535989078908
 1 -1.71445253385339 -0.29061107390739 -0.09739746584658
 1  2.04644318881888 -1.59548859855986 -0.51800136433643
 1  0.05994650545055 -2.72201724402440 -0.73139400030003

