%nproc=4
%Mem=2GB
# td=(NStates=1) B3LYP/6-31G(d,p) 

TD

0 1
 6  12.12466680928093  0.41269186968697 -0.69967608650865
 6 -12.10446276037604 -0.17308234983498  0.97639681858186
 6  13.51730114281428 -0.46282594259426 -0.43791979097910
 6 -13.02573907380738  1.04395878737874  1.27576829122912
 6  13.03381569576958 -2.00770644304430 -0.31006276507651
 6 -13.42141673777378  1.99137764986499  0.13020338743874
 6  10.99383117701770 -0.02168790429043  0.32999053685369
 6 -10.95748341614161  0.33769365166517 -0.01106874167417
 6  12.13024746214622 -2.11991428542854  0.87072104840484
 6 -12.12506238883888  2.60544085228523 -0.32454078997900
 6  11.10156986498650 -1.18096015051505  1.00393696209621
 6 -10.99258405260526  1.59708533033303 -0.58341721542154
 6  11.59831041874187  0.21828295339534 -2.24606308490849
 6  12.59894330773077  1.83100715581558 -0.47634915391539
 6 -12.88958654945495 -1.19784690339034  0.14992882278228
 6 -11.55972484048405 -0.72608578217822  2.32511065926593
 6  9.84912297489749  0.91229734333433  0.45527752825283
 6 -9.86437624452445 -0.60034257635764 -0.07605169296930
 6  10.05899007530753 -1.46098591029103  2.15083771867187
 6 -9.95775874607461  2.22330406950695 -1.61439290419042
 6  8.57803404310431  0.54226418261826  0.21695990219022
 6 -8.52133509190919 -0.33470333563356 -0.24806112901290
 6  7.42292086028603  1.39491829212921  0.36414902750275
 6 -7.51811070497050 -1.38529700480048 -0.32938333523352
 6  7.59202225192519  2.92454509170917  0.43595603260326
 6 -7.92514970317032 -2.71851186228623 -0.63520079767977
 6  6.23341724322432  0.79442383138314  0.24487664666467
 6 -6.16899550945094 -0.87115793839384 -0.47218933063306
 6  4.84792544324432  1.48505083698370  0.29281894089409
 6 -5.00049966176618 -1.67106308410841 -0.69916129772977
 6  3.67081579317932  0.78708627382738  0.31330327962796
 6 -3.74542992819282 -1.08152878557856 -0.48662109980998
 6  2.35124842624262  1.44101480918092  0.23774826272627
 6 -2.48194719411941 -1.78151321002100 -0.74867814791479
 6  2.25469984158416  2.88412777927793  0.62080645394539
 6 -2.49057960336034 -3.27565109160916 -1.00296164626463
 6  1.21062261076108  0.69916125772577  0.02929784678468
 6 -1.31450962406241 -1.03554212621262 -0.42552125722572
 6  1.15064943714371 -0.75728067526753 -0.18352587228723
 6  0.03393393299330 -1.58141438123812 -0.57040079607961
 1  13.96108621442144 -0.16953452395240  0.45896393929393
 1  14.14478149194919 -0.32135051075107 -1.49133267166717
 1 -12.64673103810381  1.63002539273927  2.07175073987399
 1 -13.68906976457646  0.48634812711271  2.00420685878588
 1  14.07470809280928 -2.47459827752775 -0.17007045284528
 1  12.46914279597960 -2.27122102210221 -1.29377550085009
 1 -14.19406279447945  2.76770013001300  0.26778781638164
 1 -13.90899568336834  1.28157783198320 -0.84126814891489
 1  12.69258122192219 -2.05350785738574  1.86513839583958
 1  11.84271172567257 -3.21387507960796  0.97772462806281
 1 -11.87656744884488  3.41274899559956  0.63726024302430
 1 -12.15365157905791  3.30264377217722 -1.23320722192219
 1  11.49567293779378 -0.90952402970297 -2.36339447214721
 1  12.27960484118412  0.87622228352835 -2.81294786878688
 1  10.67132470377038  0.73738685038504 -2.16730745024502
 1  12.53033398749875  2.09621652355236  0.59187652815281
 1  11.88709711661166  2.64037394829483 -0.84621877887789
 1  13.65635749204920  2.05448571847185 -1.11622389348935
 1 -13.61644087478748 -0.74921893089309 -0.67321342204220
 1 -13.64585675827583 -1.59084488868887  0.89532675337534
 1 -12.29683728692869 -2.11030943584358 -0.20295617811781
 1 -10.91604409530953  0.16358071867187  2.75261492059206
 1 -10.93795032043204 -1.62288328902890  2.22786680288029
 1 -12.29815387938794 -1.06782125002500  3.15552408050805
 1  10.00682408900890  1.97081194129413  0.63688959685969
 1 -10.03527797249725 -1.75018012801280  0.03096671867187
 1  9.44793887138714 -0.64364195889589  2.21491524912491
 1  10.41372218631863 -1.64354055195520  3.10687211721172
 1  9.27559962716272 -2.14713456345635  1.87623724532453
 1 -9.36221325662566  1.35538785138514 -1.94396689358936
 1 -9.55772057695770  3.23670719271927 -1.18947899409941
 1 -10.59759002400240  2.51078608400840 -2.42360233353335
 1  8.36842243304330 -0.54143492369237 -0.19872682308231
 1 -8.31713510871087  0.65168936303630 -0.35231888438844
 1  7.98848208030803  3.33912894879488  1.57578696119612
 1  6.69356123682368  3.56563426762676  0.41561414111411
 1  8.36775101280128  3.12375103710371 -0.41129435233523
 1 -8.38240919311931 -2.78084514361436 -1.53141983558356
 1 -8.34040502880288 -3.05661884918492  0.29926606590659
 1 -6.99539409200920 -3.39014166546655 -0.66815570077008
 1  6.20078094259426 -0.31934716151615  0.01650963426343
 1 -6.03533551815181  0.19606154465447 -0.24771504830483
 1  5.07092044934493  2.37943638773877  0.59415232203220
 1 -4.96718681898190 -2.75939945634563 -0.80241238233823
 1  3.52131239793979 -0.29302387228723  0.30262990139014
 1 -3.64168179937994 -0.00081375147515 -0.40058192489249
 1  2.88294899429943  3.06561695779578  1.42153080838084
 1  1.12032923372337  3.06978771057106  0.67463719121912
 1  2.55811287008701  3.54267474097410 -0.20748471807181
 1 -3.08577044664466 -3.46641499739974 -1.79339435023502
 1 -3.04716632243224 -3.66896888978898 -0.14523987258726
 1 -1.50712168346835 -3.62327266166617 -1.18211043744374
 1  0.27056945774577  1.11828774397440  0.20241088628863
 1 -1.35938702730273  0.03152113931393 -0.43224095019502
 1  2.04217276177618 -1.30430948064806 -0.14474403860386
 1  0.27659817061706 -2.62562760506051 -0.69489034993499

