%nproc=4
%Mem=2GB
# td=(NStates=1) B3LYP/6-31G(d,p) 

TD

0 1
 6  12.18381272387239  0.56341694219422 -0.64715083398340
 6 -12.10593290739074 -0.03758880048005  1.00082926182618
 6  13.54568398109811 -0.24291395139514 -0.48384438343834
 6 -12.98044454435444  1.21497588908891  1.36962767716772
 6  13.36808912311231 -1.75802147454745 -0.49116087488749
 6 -13.44109870597060  2.00323883598360  0.24535490259026
 6  11.12666446034603 -0.04002973847385  0.35261279907991
 6 -10.96679434723472  0.45409529182918 -0.00163779857986
 6  12.49410384778478 -2.13373566756676  0.68850282658266
 6 -12.27280716331633  2.49707001520152 -0.53437177307731
 6  11.22609231723172 -1.20183223772377  0.94411097949795
 6 -11.10478527272727  1.62374799659966 -0.78643751745174
 6  11.71955254295430  0.47417854295430 -2.06227470607061
 6  12.54529794319432  2.06824087918792 -0.30303182218222
 6 -12.95861345214522 -1.06393351205121  0.38604243414341
 6 -11.41616048404840 -0.68271144474447  2.23006115431543
 6  9.96859492209221  0.72876899049905  0.40930293079308
 6 -9.98713852075207 -0.54588713081308 -0.24304839263926
 6  10.29386356265626 -1.73985379707971  2.04499713461346
 6 -10.10901387158716  2.02917465656566 -1.87811927682768
 6  8.63565980568057  0.34416437263726  0.40575878207821
 6 -8.63678663706371 -0.32392225752575 -0.15881220412041
 6  7.48707727592759  1.24591339163916  0.44821743434343
 6 -7.64939383328333 -1.38418689378938 -0.36415681258126
 6  7.77625067476748  2.68482111931193  0.82066450345034
 6 -8.03277046524653 -2.74948495959596 -0.81160843844384
 6  6.23398730023002  0.80458484748475  0.16464862386239
 6 -6.36645525542554 -1.06830765336534 -0.37577968966897
 6  4.97300795149515  1.42477480938094  0.27867752675268
 6 -5.13026263806381 -1.74778075587559 -0.42648403000300
 6  3.71489020062006  0.84708227342734  0.10708265756576
 6 -3.87053243844384 -1.11439207190719 -0.45851828952895
 6  2.38044134553455  1.29621032873287  0.16343083098310
 6 -2.68471747114711 -1.74751981068107 -0.52421570167017
 6  2.23776814841484  2.74910427692769  0.40871524482448
 6 -2.62409295469547 -3.25530905740574 -0.62906425652565
 6  1.18834038253825  0.71266260786079 -0.10645572857286
 6 -1.50505867896790 -0.97392596459646 -0.29781848694869
 6  1.01275564776478 -0.77443239043904 -0.41720924062406
 6 -0.16315577597760 -1.45401164096410 -0.48052180818082
 1  14.11845195099510  0.18572100160016  0.43157120002000
 1  14.24471148494849  0.00244186848685 -1.37970150855086
 1 -12.51284764976497  1.94024641484148  1.93306687148715
 1 -13.95827668526853  0.74375386768677  1.96478291639164
 1  14.25833645564557 -2.21451226892689 -0.44327777357736
 1  12.90774665636564 -2.08591249124912 -1.42634875817582
 1 -14.19687307550755  2.81936529652965  0.47547858545855
 1 -13.92460724452445  1.27502717691769 -0.38923294539454
 1  13.01089305310531 -2.10783328992899  1.71588347034704
 1  12.15932338683868 -3.11193488558856  0.68105496109611
 1 -11.94885467756776  3.38170589128913  0.10897741474147
 1 -12.52409862376238  2.98143165096510 -1.44271817301730
 1  11.75919929042904 -0.48303138043804 -2.63296142884288
 1  12.30268714941494  1.06148080938094 -2.73040961496150
 1  10.75787335863586  1.04942805450545 -2.23638435793579
 1  13.28887984208421  1.97909481138114  0.58295563606361
 1  11.59967837473747  2.74676458735874 -0.19940409740974
 1  13.30935279157916  2.29124939483948 -1.30684295539554
 1 -13.49108833953395 -0.88141215021502 -0.44361046174617
 1 -13.64139631223122 -1.39902570677068  1.15953317401740
 1 -12.21768937213722 -1.94510291519152  0.11430554805481
 1 -10.47532002290229 -0.14149978937894  2.57153681278128
 1 -11.10684721012101 -1.71686268696870  1.85089910611061
 1 -12.09500356435644 -0.84541900980098  3.08764729282928
 1  10.12629603620362  1.78589344944494  0.25737164506451
 1 -10.44136858155816 -1.64647975797580 -0.62198857685769
 1  9.64163824132413 -0.96737433213321  2.43371712931293
 1  10.81543235733573 -1.91400759865987  2.70991242124212
 1  9.64249631683168 -2.55784563456346  1.56489611121112
 1 -9.57396443174317  1.18111042364236 -2.30277277417742
 1 -9.54246905180518  2.88553207520752 -1.60079012521252
 1 -10.77061732673267  2.31233623902390 -2.78446842014201
 1  8.57143273407341 -0.91021180138014  0.46751980158016
 1 -8.22634602980298  0.65274946904690  0.16845319281928
 1  8.40192342444245  2.59005404130413  1.67624700720072
 1  6.65644752545255  3.29650735493549  0.79703228292829
 1  8.54798903660366  3.20524918691869  0.11269804690469
 1 -8.40844179637964 -2.77880493959396 -1.82357905150515
 1 -8.82678366666667 -3.23213640094009 -0.09827368806881
 1 -7.10048460106011 -3.47764041534153 -0.77667655285529
 1  6.21005186968697 -0.23020824762476 -0.21482349904990
 1 -6.04169615421542 -0.04848290979098 -0.20687096389639
 1  5.02186554385439  2.57399584368437  0.54794770157016
 1 -5.38176827712771 -2.91393490989099 -0.12511465256526
 1  3.85929619631963 -0.18245281518152 -0.30595095669567
 1 -3.77263489468947  0.06015234513451 -0.49288115481548
 1  2.63034373377338  3.04769516561656  1.36109476477648
 1  1.16823402420242  3.12410314211421  0.04072379987999
 1  3.05272233103310  3.12818329182918 -0.29726369596960
 1 -3.32552442204220 -3.53656201210121 -1.36566157695770
 1 -3.20985259105911 -3.69448144104410  0.31528618001800
 1 -1.72830380168017 -3.75677601200120 -0.72495472187219
 1  0.20954335513551  1.20068598379838 -0.01094044884488
 1 -1.61764285288529  0.23078106530653 -0.19665739183918
 1  1.77032557705771 -1.41349039873987 -0.47704726892689
 1 -0.11358084728473 -2.37447248954896 -0.75507636853685

