%nproc=4
%Mem=2GB
# td=(NStates=1) B3LYP/6-31G(d,p) 

TD

0 1
 6  12.12186652925292  0.55756635713571 -0.92052817171717
 6 -12.10181249534953 -0.04996003760376  0.75732491139114
 6  13.37141655435544 -0.30886054605461 -0.79029502850285
 6 -13.05274177407741  1.17235162666267  1.13950466486649
 6  13.11090340454045 -1.81775744814481 -0.53664542334233
 6 -13.31856645274527  2.15582409450945 -0.14655428832883
 6  11.06520831473147  0.03787805230523  0.15355289308931
 6 -10.98472614041404  0.56431631393139 -0.16275391019102
 6  12.31159559695970 -2.03386568056806  0.61418539483948
 6 -12.08823870647065  2.70403071127113 -0.53527186308631
 6  11.21364107210721 -1.09989204370437  0.79493606200620
 6 -10.97056185038504  1.71422704450445 -0.78656753045305
 6  11.49757034473447  0.48051917701770 -2.30987946654665
 6  12.49409282268227  2.11548560366037 -0.60902242124212
 6 -12.93241083188319 -1.13908102680268  0.01396522642264
 6 -11.58817768576858 -0.69863303690369  2.03959210741074
 6  9.86031409400940  0.89475558915892  0.31354335483548
 6 -9.88536834373437 -0.50837337943794 -0.30787487528753
 6  10.27353152945294 -1.48826863856386  1.95211784668467
 6 -9.94924789498950  2.15455719481948 -1.73064452935294
 6  8.60016625632563  0.55558551475147  0.16720492669267
 6 -8.59364232263226 -0.36378624392439 -0.28548487138714
 6  7.33513208140814  1.31686048634863  0.47656026862686
 6 -7.52250114401440 -1.26310478557856 -0.42180257715772
 6  7.47837088678868  2.78475111231123  0.95818825582558
 6 -7.98430561876188 -2.62578258935894 -0.71055833343334
 6  6.19933383488349  0.72119650865086  0.33300545954595
 6 -6.21270988088809 -0.91980280288029 -0.20301241294129
 6  4.86109676037604  1.27809014091409  0.46379603860386
 6 -4.98111772357236 -1.77106308410841 -0.30362174377438
 6  3.67178589018902  0.64765233043304  0.22109405870587
 6 -3.75393077827783 -1.10422105480548 -0.20506294399440
 6  2.42655595699570  1.14998570627063  0.52791727962796
 6 -2.57272627202720 -1.91895695439544 -0.28469174927493
 6  2.24425879747975  2.60950031653165  0.77151152445245
 6 -2.54336488188819 -3.33980750725072 -0.58162951305130
 6  1.27688923742374  0.41587292889289  0.38660357735774
 6 -1.34155232833283 -1.35517408940894 -0.09461816691669
 6  1.15730010221022 -0.90964591179118  0.05793827412741
 6 -0.02103156355636 -1.66077231703170 -0.12868662466247
 1  14.03876398219822  0.03786621612161  0.08617666056606
 1  14.04829184298430 -0.05966434213421 -1.83422696109611
 1 -12.51375774077408  1.33857624782478  2.11392495729573
 1 -14.00844170177018  0.73632312461246  1.39295573367337
 1  13.98963958595860 -2.32507332503250 -0.71130457625763
 1  12.71324720642064 -2.09314321432143 -1.44939106240624
 1 -13.97561094929493  2.86995035503550  0.39827086468647
 1 -13.88238302210221  1.48660833503350 -0.76278030013001
 1  12.93738570237024 -2.08551105770577  1.64655653765377
 1  11.92649010351035 -3.19507319941994  0.52649950555056
 1 -11.62793258535854  3.42545026572657  0.32641915891589
 1 -12.20233644754475  3.21166467426743 -1.41503540474047
 1  11.11562493299330 -0.55169824712471 -2.68796692939294
 1  12.32205908660866  0.72957761906191 -3.07944451845184
 1  10.63569114041404  1.02411552325233 -2.42926364586459
 1  12.87533848794880  2.41101800370037  0.55284262476248
 1  11.56713512041204  2.70611052195220 -0.76248040504050
 1  13.27992984928493  2.46837710761076 -1.43108537963796
 1 -13.55408463916392 -0.81578558755876 -1.08113421412141
 1 -13.72343451605160 -1.49868567276728  0.71378859955996
 1 -12.49241684488449 -2.09121752665267 -0.09537542004200
 1 -11.16952944384439  0.18138249884989  2.77557721682168
 1 -10.90605713111311 -1.45991699239924  1.67172118831883
 1 -12.51511557555756 -1.25481994989499  2.64366289438944
 1  10.16063947054706  1.98153301340134  0.36605251315131
 1 -10.24400884558456 -1.56501161116112 -0.34728110611061
 1  9.26223030053005 -0.77112470717072  1.98609236683668
 1  10.85474628872887 -1.59312551045105  2.62925435543554
 1  9.89579164636464 -2.57000685068507  2.00231985358536
 1 -8.87213424872487  1.59464177677768 -2.00792328922892
 1 -9.48215302020202  3.21577509950995 -1.29564961116112
 1 -10.46914717971797  2.38336334173417 -2.67143711701170
 1  8.52611820262026 -0.57298807900790  0.02633568316832
 1 -8.14307770297030  0.67688188228823 -0.14696834933493
 1  7.95537876997700  2.77790282618262  1.84939432193219
 1  6.49784166486649  3.28000570477048  1.15736831653165
 1  8.09307354505451  3.71344000600060  0.35776255335534
 1 -8.55460641284128 -2.57930498959896 -1.61273796739674
 1 -8.70421140944094 -3.02155534283428  0.06147228652865
 1 -7.15930048264827 -3.48079073037304 -0.68318720392039
 1  6.08931979647965 -0.39942516931693 -0.06683870057006
 1 -5.92529451405140  0.03296523502350  0.00430015321532
 1  4.56112947024702  2.35983442754275  1.03237614441444
 1 -5.11658175847585 -2.85268878527853 -0.43093523462346
 1  3.82726299299930 -0.38485305520552 -0.51426178777878
 1 -3.73050068126813 -0.09517318741874  0.10658879217922
 1  2.48753945334533  2.98698909500950  1.82505116041604
 1  1.13098029882988  2.83666439823982  0.78470819831983
 1  2.63724078287829  3.32353282678268 -0.02703667326733
 1 -3.14009587918792 -3.60440879677968 -1.43970898169817
 1 -3.20074167996800 -3.85351734463446  0.08430308170817
 1 -1.57144811611161 -3.63470380478048 -0.74174640104010
 1  0.44107650845085  1.02257817301730  0.72314295949595
 1 -1.65163625222522 -0.19085109790979  0.10688296219622
 1  1.99953849834983 -1.49797884758476  0.16377681348135
 1  0.19850036083608 -2.73951899419942 -0.52837369826983

