%nproc=4
%Mem=2GB
# td=(NStates=1) B3LYP/6-31G(d,p) 

TD

0 1
 6  12.10787513011301  0.57555815631563 -0.75209132803280
 6 -12.07855016911691 -0.00520556215622  0.76771595049505
 6  13.40719013171317 -0.30250991099110 -0.67351335033503
 6 -12.96447294719472  1.04251864336434  1.30592130653065
 6  13.17605992019202 -1.78196386878688 -0.47925968476848
 6 -13.39343393949395  2.04079259135914  0.24903527062706
 6  11.07525931983198  0.13305757025703  0.29151668946895
 6 -11.08337600540054  0.48369825212521 -0.17501513631363
 6  12.38888332573257 -2.01628392239224  0.72102607890789
 6 -12.15978586118612  2.67660796899690 -0.40127846374637
 6  11.19604931293129 -1.15883793829383  0.90817738613861
 6 -11.03033782798280  1.66809243104310 -0.72403127682768
 6  11.49880046774678  0.58450957605761 -2.21387986658666
 6  12.54308772217222  2.05390944604460 -0.50348186718672
 6 -12.96751434223422 -1.09070618931893 -0.02081825192519
 6 -11.48132700070007 -0.82661583518352  2.00552870107011
 6  9.80769883248325  0.97151326492649  0.51147314781478
 6 -9.84528433533353 -0.49623216531653 -0.28794288208821
 6  10.30496467276728 -1.49418923062306  2.05966860176018
 6 -9.87043001320132  2.27780952005200 -1.62086355125513
 6  8.66373261296130  0.43067302350235  0.30544875107511
 6 -8.53653661206121 -0.29255912121212 -0.42436875977598
 6  7.38233680188019  1.16448524882488  0.43574618721872
 6 -7.49918881278128 -1.19318779387939 -0.52033243014301
 6  7.60731378107811  2.70921355855586  0.62125456245625
 6 -7.83590077827783 -2.66482649374937 -0.59961723932393
 6  6.15390929242924  0.66969135813581  0.21819397839784
 6 -6.17683629352935 -0.80038086068607 -0.45889800150015
 6  4.87340799149915  1.34068640054005  0.28932859185919
 6 -5.05511512331233 -1.67947392519252 -0.36067744934493
 6  3.65991470307031  0.57256482168217  0.20709265856586
 6 -3.79199458465847 -0.99052968566857 -0.29241167886789
 6  2.34476777817782  1.14468517621762  0.26374086198620
 6 -2.58430743014301 -1.77035209390939 -0.35020830093009
 6  2.15715008660866  2.60917028352835  0.53008738203820
 6 -2.71840238563856 -3.32809633613361 -0.47967931803180
 6  1.20425197369737  0.33289463106311  0.17053197019702
 6 -1.35073324642464 -1.10377894989499 -0.11677038213821
 6  1.03751812401240 -1.03548849604960 -0.18082560226023
 6 -0.01202066246625 -1.69921616141614 -0.23897765376538
 1  14.23891399719972  0.16314874437444 -0.01599355645565
 1  14.04182119591959 -0.25943431913191 -1.76490002840284
 1 -12.35489185418542  1.68620101030103  2.18440200500050
 1 -13.89151000860086  0.61268076037604  1.95945238333833
 1  14.10461108310831 -2.47618843654365 -0.64606805260526
 1  12.58673455515552 -2.20725462546255 -1.40624674797480
 1 -13.94708809700970  2.73494685468547  0.60771180878088
 1 -14.08917370117012  1.58771844604460 -0.46071009310931
 1  13.06403836763676 -1.99289179577958  1.62513439543954
 1  11.98021547604760 -3.03804749684969  0.86705356095610
 1 -11.68224801690169  3.51217893859386  0.03191970897090
 1 -12.33541975587559  3.16743025082508 -1.33264716591659
 1  11.15713908440844 -0.53186626392639 -2.33679181188119
 1  12.23102998369837  0.82418708000800 -2.98303487748775
 1  10.70300787208721  1.36599971167117 -2.47549826932693
 1  13.03057401150115  2.24145104700470  0.55398273877388
 1  11.76151455835583  2.82393230413041 -0.61961611861186
 1  13.32458431473147  2.43672394229423 -1.06443871497150
 1 -13.75208443914392 -0.82437644664466 -0.81084718541854
 1 -13.67291946454645 -1.64621042524252  0.63774099479948
 1 -12.22671027422742 -1.96731513641364 -0.23813969646965
 1 -10.79945243614361 -0.16154179357936  2.44286394549455
 1 -10.91093761916192 -1.72669367006701  1.87336135233523
 1 -12.35041910591059 -1.02934740264026  2.72999152725273
 1  10.00571397799780  1.95639049914992  0.57296320422042
 1 -10.23802824752475 -1.62144725472547 -0.24627100510051
 1  9.49171324882488 -0.72033962866287  2.58768252585259
 1  11.02001281538154 -1.71586778467847  2.82027345734573
 1  9.57226929412941 -2.41743159315932  1.75223484508451
 1 -9.32187922322232  1.54584689728973 -2.03831632853285
 1 -9.12985779067907  2.72282580458046 -0.93969401560156
 1 -10.44271453645365  2.94497950335033 -2.36012598589859
 1  8.37033262406240 -0.51551233143314 -0.04950190059006
 1 -8.37597099229923  0.84511870597060 -0.41221487398740
 1  8.38628186028603  2.75985102100210  1.31331071357136
 1  6.62359424012401  3.13165086928693  1.12316489618962
 1  7.94783902160216  3.20561922392239 -0.27071029392939
 1 -8.77451840404040 -2.96515357445745 -1.28064475807581
 1 -8.24220520882088 -3.02849603690369  0.34790092939294
 1 -6.82497705030503 -3.24256690799080 -0.82088097329733
 1  6.05705657015702 -0.27977320412041 -0.14833685038504
 1 -5.97740972557256  0.33577551605161 -0.49126940374037
 1  4.79090244754475  2.33643208730873  0.42436534333433
 1 -5.02089218951895 -2.70865438183818 -0.30036217731773
 1  3.70292055875588 -0.54580915081508 -0.08453881548155
 1 -3.56483411461146  0.00121645154515 -0.30889275597560
 1  2.62574327372737  2.81486188228823  1.47605626092609
 1  1.14078127892789  2.85490622242224  0.51307103460346
 1  2.70662772157216  2.94493496699670 -0.33702767236724
 1 -3.15250712031203 -3.40358871477148 -1.50314532533253
 1 -3.50009161496150 -3.58692068496850  0.51128577997800
 1 -1.77551852315232 -3.72177251165117 -0.38938116451645
 1  0.38975137593759  1.13940985618562  0.49763040824082
 1 -1.49623071167117  0.11114910211021 -0.00180790689069
 1  2.20527907240724 -1.40426947664766 -0.34839440364036
 1 -0.05522501170117 -2.78704374667467 -0.40423128402840

