%nproc=4
%Mem=2GB
# td=(NStates=1) B3LYP/6-31G(d,p) 

TD

0 1
 6  12.11098544114411  0.56498709920992 -0.77401352025203
 6 -12.27312962706271 -0.07386242784278  0.73999317821782
 6  13.37274668736874 -0.24754441444144 -0.74903090209021
 6 -13.17499399929993  1.18024241574157  1.04884559895990
 6  13.16177849204920 -1.71249692209221 -0.69400115891589
 6 -13.47568216431643  2.07851636373637 -0.12835246814681
 6  11.01533332723272 -0.09910564606461  0.20866840464046
 6 -10.92768043584358  0.41111099339934 -0.03087072187219
 6  12.35359979737974 -2.07957025102510  0.66720069636964
 6 -12.09571945454545  2.66063637183718 -0.57075541144114
 6  11.22132184018402 -1.18482053655366  0.85000156855686
 6 -10.85851064526453  1.64654027582758 -0.68051692539254
 6  11.54698528622862  0.51475260036004 -2.16473495209521
 6  12.45809922332233  2.04088814391439 -0.39047056605661
 6 -13.01241883268327 -1.04377149584958 -0.04961113121312
 6 -11.83074194219422 -0.69796296989699  2.10524867306731
 6  9.80979904250425  0.80683679727973  0.27485948644864
 6 -9.79759956685668 -0.55921846394639 -0.17884197199720
 6  10.22538671497150 -1.80266007770777  1.88441107600760
 6 -9.75424839503951  2.05554729382938 -1.59788125302530
 6  8.51714795449545  0.39653961016102  0.31535974217422
 6 -8.53009596799680 -0.32838270357036 -0.15779210211021
 6  7.38441700990099  1.31615041534153  0.40446305890589
 6 -7.46859575347535 -1.30975945104510 -0.33275367226723
 6  7.64321737143714  2.89236187338734  0.47765020202020
 6 -7.88080526872687 -2.74391440254025 -0.59333661126113
 6  6.13233713521352  0.77595198419842  0.38914107310731
 6 -6.21167977787779 -0.91454227682768 -0.18333044474447
 6  4.85567621832183  1.50844317621762  0.38718837783778
 6 -5.00211982378238 -1.57567354515452 -0.37598898049805
 6  3.71880059165917  0.69824738993899  0.23317526682668
 6 -3.78702408760876 -1.15403603630363 -0.24888732643264
 6  2.40041334273427  1.23078378607861  0.44271875977598
 6 -2.50927992739274 -1.85323038173817 -0.37123040314031
 6  2.24550892249225  2.68882824932493  0.69238361166117
 6 -2.55125567096710 -3.36885041154115 -0.72689403950395
 6  1.26435798429843  0.44271561316132  0.33247816481648
 6 -1.33917209030903 -1.11519009100910 -0.19376808190819
 6  1.20162453465347 -0.86194114131413  0.02211469176918
 6  0.05991653125313 -1.58363460326033 -0.17118087408741
 1  13.85574568036804 -0.22740031053105  0.38094613751375
 1  14.07478449224923  0.05527715201520 -1.34607814621462
 1 -12.64899126412641  1.73511590179018  1.79382294709471
 1 -14.02833369096910  0.82783227552755  1.44713115121512
 1  14.32184280628063 -2.06654747244724 -0.66228967476748
 1  12.32458834053405 -1.99113301330133 -1.44312043534353
 1 -14.09950333853385  2.84647800780078  0.04562560016002
 1 -13.88765354915492  1.51720139433943 -0.91815583768377
 1  13.08884084788479 -2.22514502110211  1.60667254925493
 1  12.10580803530353 -3.17800149224923  0.40334719031903
 1 -11.84276406850685  3.44554227492749  0.24784130113011
 1 -12.11028724262426  3.21629513731373 -1.42158605980598
 1  11.34701807230723 -0.48418149544955 -2.78586671937194
 1  12.21568844954495  0.95956061736174 -2.88795536953695
 1  10.65406297759776  1.03277638933893 -2.17469818931893
 1  12.78973992809281  2.21327822972297  0.67156449694970
 1  11.53371177807781  2.70051996289629 -0.51223538053805
 1  13.36988884518452  2.35143541344134 -0.85054732583258
 1 -13.49264849554956 -0.83266727572757 -1.07892399309931
 1 -13.92551472407241 -1.34173997819782  0.44581180188019
 1 -12.26358396159616 -1.75922432733273 -0.47050293279328
 1 -11.36051854275428 -0.04088972837284  2.93696335543554
 1 -11.05787231263126 -1.50239123982398  2.04569858605861
 1 -12.68254231823182 -0.98804327222722  2.85078360646065
 1  10.02625603220322  1.90900576067607  0.21399730763076
 1 -10.27440188488849 -1.56737184718472 -0.39103548154815
 1  9.81084516201620 -0.99626722142214  2.47587134473447
 1  10.97151796589659 -2.06471266916692  2.68184961496150
 1  9.68756082328233 -2.34916476647665  1.47261688328833
 1 -9.17751478677868  1.10182249484948 -1.90772326922692
 1 -9.10666547144714  2.79187270927093 -1.22778282448245
 1 -10.38941920692069  2.47759276467647 -2.39111908520852
 1  8.20104569536954 -0.56263704390439  0.37930097969797
 1 -8.24514790999100  0.58495268936894  0.06417276477648
 1  8.35642887498750  3.13827886378638  1.36439582208221
 1  6.66490837153715  3.49333703790379  0.64311689138914
 1  8.13203744144414  3.17458612061206 -0.45246846974697
 1 -8.81798275047505 -2.68242530163016 -1.28475516911691
 1 -8.20415140344034 -3.11908509580958  0.16335247454745
 1 -7.09797435003500 -3.42701535283528 -1.14910379557956
 1  5.84717558205821 -0.33049827662766  0.23336131943194
 1 -6.36858884348435  0.24506644514451  0.04741446464647
 1  4.77416077337734  2.52437088118812  0.50468337513751
 1 -4.97737783808381 -2.49187270367037 -0.81239338043804
 1  3.83645391209121 -0.37025159505951  0.25610524892489
 1 -3.59692732393239  0.06394272417242 -0.08856072277228
 1  2.73959465886589  3.17428782488249  1.49929858515852
 1  1.15957315811581  3.15780651245125  0.87345707320732
 1  2.56898395719572  3.37974844834483 -0.27543151275127
 1 -3.20064193379338 -3.30653900980098 -1.63087809860986
 1 -3.18024963076308 -3.78639063196320  0.07277192859286
 1 -1.73874484578458 -3.92741307570757 -0.90806303270327
 1  0.48876127692769  1.20908682388239  0.41040168536854
 1 -1.42563365196520 -0.15638765156516  0.18564083798380
 1  2.19389793429343 -1.38158720842084  0.02541297709771
 1 -0.03036252545255 -2.56176121842184 -0.59748060896090

