%nproc=4
%Mem=2GB
# td=(NStates=1) B3LYP/6-31G(d,p) 

TD

0 1
 6  12.19942428502850  0.72437303780378 -0.54725084398440
 6 -12.06981929602960  0.07356231463146  0.87197637653765
 6  13.39595900860086 -0.19740940094009 -0.45567156615662
 6 -12.88279477937794  1.22961735323532  1.27727844224422
 6  13.02083439763976 -1.75142081448145 -0.47280903970397
 6 -13.23110770687069  2.20674918701870  0.14568493559356
 6  10.99758155205521  0.08748301280128  0.23554109190919
 6 -10.86144381218122  0.50039992229223 -0.10853848864886
 6  12.18197263466347 -2.11279357335734  0.65983996029603
 6 -12.09344922752275  2.74903521172117 -0.63053138903890
 6  11.03468317631763 -1.15490754525453  0.77588415681568
 6 -10.90222501670167  1.68756437823782 -0.69270814451445
 6  11.78955954365437  0.71955308040804 -2.11252973157316
 6  12.49025243864386  2.16137019211921 -0.10834235323532
 6 -12.88807639843984 -0.99831695039504  0.37436126602660
 6 -11.27904677267727 -0.46637981158116  2.13368151635164
 6  9.79624768736874  0.98100421402140  0.37381938243824
 6 -9.92299210611061 -0.55552809490949 -0.31358544634463
 6  9.96134031033103 -1.77993780548055  1.64733736863686
 6 -9.81844481468147  2.12647438653865 -1.67247871277128
 6  8.51469770947095  0.52317227342734  0.21665987218722
 6 -8.57449040744074 -0.34060392569257 -0.19895621852185
 6  7.39738830703070  1.40556935723572  0.39469208180818
 6 -7.50197909180918 -1.34188266336634 -0.43332372927293
 6  7.44656770647065  2.91580421762176  0.63530596759676
 6 -7.94277146534653 -2.72655266636664 -0.61679895749575
 6  6.18438233973397  0.81888627762776  0.27828998799880
 6 -6.20411902180218 -1.02717353995400 -0.31468358005801
 6  4.81490214091409  1.35360769266927  0.25894555355536
 6 -4.95135474727473 -1.75742171997200 -0.42585396699670
 6  3.64377308890889  0.60645821102110  0.21530347964796
 6 -3.71487687288729 -1.24253488618862 -0.31832427012701
 6  2.29063236463646  1.06544725242524  0.24046853475348
 6 -2.58005700510051 -2.09384444314431 -0.35536881698170
 6  2.07693206480648  2.55381474797480  0.44529890319032
 6 -2.61151169656966 -3.55097862436244 -0.75904725482548
 6  1.21161270977098  0.26272761436144  0.04990990799080
 6 -1.47358553165316 -1.29268784078408 -0.20151885698570
 6  1.13038741094109 -1.09352429962996 -0.09372689238924
 6 -0.08309777017702 -1.78918515831583 -0.28641239723972
 1  13.88641874767477 -0.17351492199220  0.61157920082008
 1  14.14289130293029  0.42419404370437 -1.05946948534854
 1 -12.26747311231123  1.92657504770477  2.02491605640564
 1 -13.65497635523552  0.66351584388439  1.80586702480248
 1  14.07828845084509 -2.15631644934493 -0.49233267906791
 1  12.60672655435544 -1.92354625462546 -1.53280940424042
 1 -13.66246963516352  3.14126748674867  0.43519455705571
 1 -13.80103488728873  1.73935360956096 -0.59598362046205
 1  12.73129509330933 -2.07982048864887  1.57643952595259
 1  11.80020747524752 -3.19969366146615  0.58526538213821
 1 -11.55460525262526  3.62810053075308 -0.21449493249325
 1 -12.41315752965297  3.21501500930093 -1.64122802400240
 1  11.59159252975298 -0.35404848214822 -2.49333746644665
 1  12.77560444114411  0.85739040034003 -2.59886646064606
 1  11.03494106540654  1.52624573627363 -2.34108482798280
 1  12.80719167326733  2.22180908280828  1.04713205370537
 1  11.98575698259826  2.94825473637364 -0.43949810681068
 1  13.48385024132413  2.51966223612361 -0.68509078017802
 1 -13.50013924462446 -0.70776478547855 -0.46015211591159
 1 -13.64797697029703 -1.25768157235724  1.06262348304831
 1 -12.25749335253525 -1.93035144004400  0.23627774527453
 1 -10.61034352525252  0.35667002760276  2.48868852795280
 1 -10.53156968236824 -1.27273827452745  1.83900791699170
 1 -12.02756682068207 -0.65865033293329  2.89286781488149
 1  9.90092349894990  2.11257611771177  0.50510641854185
 1 -10.26284072877288 -1.54278938893889 -0.48438481648165
 1  9.04281835933593 -1.12681027572757  1.80229398699870
 1  10.58633944804481 -1.87831402930293  2.60745217521752
 1  9.53906597379738 -2.62590244024402  1.14243386498650
 1 -9.28020505580558  1.30421273387339 -2.23675617251725
 1 -8.99980478537854  2.91292481448145 -1.25842588878888
 1 -10.40353061806181  2.55194019941994 -2.59118909220922
 1  8.45002059285929 -0.57834861506151 -0.17523447384738
 1 -8.16958035323532  0.58579277337734 -0.06874052655265
 1  7.84657788988899  3.13001803770377  1.91257063956396
 1  6.52247412811281  3.53242094629463  0.34041662136214
 1  8.36969120682068  3.26112477447745 -0.10074329722972
 1 -8.55581653385339 -2.65904296339634 -1.42876957055706
 1 -8.50319130743074 -3.17012019931993  0.13360950025003
 1 -6.99268382098210 -3.31980463176318 -0.77017590279028
 1  6.44651551605160 -0.41985721252125 -0.14218623532353
 1 -5.77451943654365  0.04006594509451  0.01942166536654
 1  4.73523688098810  2.40771921602160  0.15571847864786
 1 -5.04102420272027 -2.86387990439044 -0.69838197929793
 1  3.66506677337734 -0.36346091599160 -0.32545290689069
 1 -3.66758438963896 -0.11208487858786 -0.34603647034703
 1  2.77313801320132  2.90773116921692  1.55328398369837
 1  0.89302650345034  2.76455718751875  0.61840156765677
 1  2.33376043484348  3.23339381288129 -0.35770974057406
 1 -3.12265413501350 -3.57340569646965 -1.64519953075308
 1 -3.10444205000500 -4.09276126902690  0.01668632003200
 1 -1.50829180048005 -4.07945828022802 -0.71364359075908
 1  0.14830723152315  0.88892480768077  0.05147579277928
 1 -1.66755784438444 -0.24380639343934 -0.06967469356936
 1  2.01862040654065 -1.65343439313931 -0.05661522572257
 1 -0.07234672387239 -2.86759180148015 -0.69490035093509

