%nproc=4
%Mem=2GB
# td=(NStates=1) B3LYP/6-31G(d,p) 

TD

0 1
 6  11.97644198679868  0.54656525702570 -0.90599671857186
 6 -12.11316363046305  0.00461541994199  0.77965714461446
 6  13.27702711541154 -0.33781344134413 -0.74295029402940
 6 -12.97454395429543  1.23791818331833  1.26092680708071
 6  12.95143745794579 -1.84854052645265 -0.69561131993199
 6 -13.24229882598260  2.17377588968897  0.05290565766577
 6  10.92675446934694  0.06139040354035  0.16063360116012
 6 -10.99743741154115  0.46776665896590 -0.14236187098710
 6  12.23944838223822 -2.13612590659066  0.62845682198220
 6 -11.93599348194819  2.77778808700870 -0.56245458135814
 6  11.08736844484448 -1.18307036153615  0.92946951535154
 6 -10.96008080228023  1.68975459725973 -0.77026590029003
 6  11.50690127782778  0.61601272637264 -2.28722720132013
 6  12.48815222862286  2.00191424652465 -0.59167068606861
 6 -12.99012660346035 -0.98567568626863  0.03701753165317
 6 -11.60598946694669 -0.70770394399440  2.06008415661566
 6  9.86374443704370  0.97015312891289  0.44953695419542
 6 -9.85176498339834 -0.58884142624262 -0.21141522932293
 6  10.12268644494449 -1.62406221792179  2.00112274717472
 6 -9.89808277847785  1.97981972107211 -1.78853031793179
 6  8.59211545124512  0.54629458565857  0.40298850505050
 6 -8.53847680608061 -0.35581544684468 -0.24317063996400
 6  7.32485105330533  1.37401620192019  0.53465607820782
 6 -7.58536743064306 -1.36603507860786 -0.45478587548755
 6  7.50441349104910  2.80815345254525  1.02626506350635
 6 -7.99714690289029 -2.82647265836584 -0.54339161676168
 6  6.16598049954996  0.79490387938794  0.32693485248525
 6 -6.16876548644864 -0.96868769136914 -0.31320343204320
 6  4.88121877257726  1.45449778167817  0.29807946694669
 6 -4.98501811361136 -1.77220319811981 -0.35535691729173
 6  3.76342505410541  0.78297586278628  0.27611956125613
 6 -3.74528991419142 -1.32422305500550 -0.31644408210821
 6  2.32128542994299  1.35767647534753  0.31569605750575
 6 -2.49292829222922 -1.99231429012901 -0.34805808590859
 6  2.26193056465647  2.77282664916492  0.60406477977798
 6 -2.43425397079708 -3.42823635013501 -0.70911226132613
 6  1.34558610711071  0.54215555715572  0.31865678267827
 6 -1.35006317941794 -1.20425899789979 -0.29891859695970
 6  1.18153252545255 -0.91765671287129 -0.04033155285529
 6  0.05396593619362 -1.63634987478748 -0.21456521252125
 1  13.98336844264426 -0.05803337383738  0.09902794569457
 1  13.97963497729773 -0.20058843454345 -1.57925146354635
 1 -12.58862522752275  1.78313070327033  1.99406297109711
 1 -13.92625348294830  1.02787227952795  1.74058049614962
 1  13.86755737773777 -2.61678249594959 -0.65791923772377
 1  12.36282216391639 -2.31350525052505 -1.54900102340234
 1 -13.81293468166817  3.07901126112611  0.55445648324832
 1 -13.96907169096910  1.79555923012301 -0.75715973807381
 1  12.82059402320232 -2.15134764136414  1.28395027702770
 1  11.79476693119312 -3.34702839493949  0.68954581018102
 1 -11.43950374247425  3.44467218791879  0.11319783678368
 1 -12.06594280818082  3.26014952275227 -1.45926982818282
 1  11.21200457095710 -0.33983706100610 -2.61110924362436
 1  12.32494937563756  0.90935559685969 -3.02742931693169
 1  10.72351992329233  1.37630074177418 -2.40472119161916
 1  12.97360831493149  2.04226112801280  0.46526386688669
 1  11.65224363126313  2.68864877577758 -0.46900105710571
 1  13.40969282558256  2.31131140104010 -1.35789806090609
 1 -13.43789302000200 -0.46611062006201 -0.79987608830883
 1 -13.76042821542154 -1.39448525272527  0.59389661036104
 1 -12.53019062226223 -1.89275768066807 -0.14480036253625
 1 -10.83988647954796 -0.24530016941694  2.51031069016902
 1 -10.89900642604261 -1.61927292799280  1.88663267946795
 1 -12.27576164016402 -1.07171163906391  2.87190571867187
 1  10.06538994559456  1.90987584768477  0.86220212811281
 1 -10.22067651235123 -1.61293640364036 -0.30209658765877
 1  9.24506858435844 -0.82451004570457  2.06906066366637
 1  10.68912972707271 -1.87055325322532  2.97468889888989
 1  9.66131819901990 -2.61365121512151  1.62200182178218
 1 -9.35759279457946  1.17150946354635 -1.91088358525853
 1 -9.10952575747575  2.77019054105411 -1.42643268946895
 1 -10.18067833283328  2.47918292369237 -2.60001997529753
 1  8.45437102790279 -0.55804658485849  0.03455650525052
 1 -8.24950834603460  0.61222541664166 -0.07390104260426
 1  7.79764299639964  2.84734977087709  2.15459484198420
 1  6.50928280898090  3.31871957615762  1.21158373807381
 1  8.12733697139714  3.55900456245625  0.47377415451545
 1 -8.44564551675168 -2.98914597369737 -1.43467016061606
 1 -8.54027501580158 -3.33448663596360  0.22486862616262
 1 -7.19622417501750 -3.52420507180718 -0.80165905110511
 1  6.17520838533853 -0.38873410021002  0.13515149844984
 1 -6.20072205680568  0.18703064156416 -0.21648192499250
 1  5.02582593989399  2.63974241834183  0.30837374417442
 1 -5.19227932823282 -2.86250976737674 -0.45014715581558
 1  4.03647391409141 -0.30359492939294  0.30924056245625
 1 -3.68181581278128 -0.19738340844084 -0.10605247194720
 1  2.90559125852585  3.07596799289929  1.40023867916792
 1  1.11018821962196  3.18059879167917  0.78485821332133
 1  2.69316637543754  3.34702517601760 -0.33277724732473
 1 -2.94529639923992 -3.69879823572357 -1.77092210301030
 1 -2.95907751355135 -4.24707670057006  0.06346099749975
 1 -1.48992996429643 -3.81851218561856 -0.86221844824482
 1  0.39965236603660  1.20220613581358  0.27129777497750
 1 -1.54790587918792 -0.15543755655566 -0.05549327542754
 1  2.22970151465146 -1.49401845154515  0.15912634843484
 1  0.21579209000900 -2.68722376467647 -0.23308416931693

