%nproc=4
%Mem=2GB
# td=(NStates=1) B3LYP/6-31G(d,p) 

TD

0 1
 6  12.07000134273427  0.55775637613761 -0.61397751665167
 6 -12.03862617671767 -0.07945298689869  0.84408358725873
 6  13.38835824852485 -0.29311897189719 -0.42754875387539
 6 -12.97328382828283  1.10827521902190  1.36458717311731
 6  13.23564587878788 -1.83668934133413 -0.41283304210421
 6 -13.34538913501350  2.11430994309431  0.28793916101610
 6  10.90427222112211  0.07516178067807  0.24800233803380
 6 -10.95619328712871  0.39926980928093 -0.05855349014901
 6  12.24831926932693 -2.16181847584759  0.78025200150015
 6 -12.07034691729173  2.66740704890489 -0.35348368426843
 6  11.05177488548855 -1.13110516501650  0.86117268566857
 6 -10.98160295449545  1.57868349014901 -0.64599347304730
 6  11.68058864656466  0.40138126322632 -2.13037151575158
 6  12.41918533193319  1.96545060016002 -0.23299481848185
 6 -13.09987757855786 -1.00937805650565  0.10619444934493
 6 -11.51588045604560 -0.88217139073907  2.07652580078008
 6  9.77463552615262  0.87751386498650  0.43092509300930
 6 -9.85446525342534 -0.55109765186519 -0.49306339413941
 6  10.01840601690169 -1.69705951765177  1.86428906380638
 6 -9.92074504470447  2.21965370447045 -1.64872633753375
 6  8.52478871857186  0.54103405960596  0.43859206540654
 6 -8.55889884828483 -0.36724658995900 -0.10961728462846
 6  7.41840040824082  1.36412521282128  0.46922953555356
 6 -7.47135602950295 -1.31179965506551 -0.33646404330433
 6  7.75903895359536  2.83231586878688  0.54960739773977
 6 -7.92838002620262 -2.67762777387739 -0.75924320192019
 6  6.15604950645065  0.78496288528853  0.24219637863786
 6 -6.23468207810781 -0.91439226182618 -0.21800391209121
 6  4.90266091679168  1.52107443934393  0.24069372837284
 6 -5.06613622542254 -1.67617359515952 -0.34506588818882
 6  3.72042075367537  0.78293585878588 -0.03807185788579
 6 -3.67877326252625 -1.17363799649965 -0.29554199189919
 6  2.35983928532853  1.35053576127613  0.07138162606261
 6 -2.47237623702370 -1.95210026872687 -0.37192047214721
 6  2.28696306790679  2.73470283678368  0.33089746304630
 6 -2.62222276767677 -3.38254178067807 -0.58077942804280
 6  1.23036458495850  0.59937127872787 -0.10477556055606
 6 -1.33704187728773 -1.22855142714271 -0.25530423552355
 6  1.16935130733073 -0.88009295649565 -0.35201272097210
 6  0.05495603520352 -1.59938617841784 -0.45274903090309
 1  13.98401850765076  0.05839826932693  0.49104714761476
 1  14.05178219201920  0.05549717401740 -1.50609414781478
 1 -12.30829719471947  1.61448383858386  2.27929149394940
 1 -13.72678353595360  0.74734422672267  2.09352579067907
 1  13.98269889188919 -2.36410722842284 -0.29159260506051
 1  12.66695257695770 -2.02009590959096 -1.22712883618362
 1 -13.98868225642564  2.95245860586059  0.62033307090709
 1 -13.96843162696270  1.47913758795880 -0.39745376747675
 1  12.80482244604460 -1.94482698929893  1.84992687468747
 1  12.00061751625162 -3.26260995309531  0.83486034163416
 1 -11.62639243134313  3.31958967966797  0.24866138313831
 1 -12.35819203310331  3.14386789458946 -1.18804270547055
 1  11.68696206670667 -0.49821289858986 -2.52473060576058
 1  12.31642852355236  0.85724038533853 -2.88642521652165
 1  10.54078164946495  0.78884199589959 -2.22073279277928
 1  12.35102605670567  2.05288219011901  0.89622696319632
 1  11.65379378627863  2.55410532143214 -0.69323348034803
 1  13.50857271357136  2.27221749164916 -0.69509178027803
 1 -13.58403763446345 -0.57892190119012 -0.67918401910191
 1 -13.76791896449645 -1.57210301450145  0.87318453915392
 1 -12.51696930013001 -1.88270667556756 -0.45428131063106
 1 -10.78613110401040 -0.03235887528753  2.48335799489949
 1 -11.03790031543154 -1.80280128082808  1.69077309350935
 1 -12.32674673867387 -1.14108857675768  2.88661718981898
 1  10.06839024562456  1.92741760186019  0.35902181008101
 1 -10.15411985668567 -1.52866797679768 -0.65854223222322
 1  9.37745182268227 -1.07338493319332  2.38239199679968
 1  10.52551336543654 -2.16548274617462  2.65062649264926
 1  9.35666773397340 -2.53287313731373  1.35582520412041
 1 -9.14840187548755  1.57053936653665 -1.87535003190319
 1 -9.44381918681868  3.17699122112211 -1.52238228442844
 1 -10.64623488848885  2.53238824422442 -2.43564353765377
 1  8.22564815561556 -0.54856563676368  0.26913996359636
 1 -8.21472486768677  0.69532372647265  0.02154850235023
 1  7.99951318341834  2.88141317721772  1.57776715921592
 1  6.73684556525653  3.48539624382438  0.38261084078408
 1  8.48102233993399  3.08653731573157 -0.24606782968297
 1 -8.41280223242324 -2.72768982808281 -1.83922061566157
 1 -8.71432242054205 -3.23986717401740 -0.05101896259626
 1 -6.97377192979298 -3.34493714501450 -0.72280116531653
 1  6.27430829532953 -0.41460668746875  0.04349233253325
 1 -6.15992797739774  0.17988992749275  0.21813153635364
 1  4.94126748404840  2.49276772087209  0.45679858665867
 1 -4.89653975427543 -2.86693020942094 -0.44701684278428
 1  3.92972323902390 -0.19888445834583 -0.28509887148715
 1 -3.64667229842984 -0.05340901100110 -0.33975584228423
 1  2.94467516691669  3.04596499259926  0.96559521482148
 1  1.32961016181618  3.29408013981398  0.64024375187519
 1  2.47770482928293  3.49168964246425 -0.61715568516852
 1 -3.10870273987399 -3.77855621152115 -1.27805281608161
 1 -3.09382098789879 -3.88901089398940  0.13823847524752
 1 -1.65284625592559 -3.89534986938694 -0.64462668906891
 1  0.27862026282628  1.22515843104310 -0.35137449224922
 1 -1.41128221682168 -0.14520653345335 -0.00381810791079
 1  2.11189973447345 -1.39964901460146 -0.31525108930893
 1  0.25087559835984 -2.69271431373137 -0.53473433433343

