%nproc=4
%Mem=2GB
# td=(NStates=1) B3LYP/6-31G(d,p) 

TD

0 1
 6  12.27467180978098  0.55657625812581 -0.54802092099210
 6 -12.26306862096210 -0.01922696429643  0.92319149804980
 6  13.56857627032703 -0.26902656265627 -0.36442244124412
 6 -13.10471697159716  1.13379777127713  1.49931064546455
 6  13.34756707090709 -1.80467614001400 -0.35892765156516
 6 -13.50525512161216  2.01401991409141  0.30406077317732
 6  11.16518831273127 -0.09814555005501  0.34924246204620
 6 -11.07293496129613  0.37871775407541 -0.03797143194319
 6  12.35605004240424 -2.11431372537254  0.86455043134313
 6 -12.29599948254825  2.63077338553855 -0.45790412631263
 6  11.15191489948995 -1.27176923142314  0.93574014241424
 6 -11.22140693489349  1.61967758955896 -0.68809768346835
 6  11.82867345504551  0.48154928002800 -2.05372385098510
 6  12.49647306070607  2.01330538563856 -0.30458197719772
 6 -13.06706429722972 -1.14253137183718  0.33208703860386
 6 -11.55691455945595 -0.60968414201420  2.26809495769577
 6  9.87474553715372  0.86891300490049  0.38634063456346
 6 -9.94759456635663 -0.52138468056806 -0.20073416121612
 6  10.20273444974497 -1.68119793149315  2.13990662556256
 6 -10.17417038723872  2.01073281238124 -1.69242070697070
 6  8.56001224092409  0.47491744794479  0.26799500570057
 6 -8.57292025042504 -0.23166303160316 -0.21562788568857
 6  7.49528809700970  1.39482828312831  0.30571318391839
 6 -7.57427632153215 -1.27007548264826 -0.41527192409241
 6  7.73730678037804  2.78431106830683  0.55799823682368
 6 -7.93069025722572 -2.71445145624562 -0.54789206680668
 6  6.25070897239724  0.79642403140314  0.01132329132913
 6 -6.25497410731073 -0.92230305290529 -0.45984809650965
 6  4.90964161486149  1.50356268816882  0.21074073307331
 6 -5.05276488828883 -1.72884886268627 -0.56278766036604
 6  3.77692640424042  0.82385995119512  0.12256420572057
 6 -3.83271865706571 -1.15094572727273 -0.46775921362136
 6  2.35969927132713  1.30038074577458  0.16752124002400
 6 -2.49976897629763 -1.80746580528053 -0.52888616871687
 6  2.32354672627263  2.78224759125913  0.42199657295730
 6 -2.62612315771577 -3.26081960846085 -0.91445279537954
 6  1.25400694919492  0.49428076967697 -0.03912899589959
 6 -1.34993316641664 -1.06849542154215 -0.43165187028703
 6  1.17791216341634 -0.97385233243324 -0.44177169686969
 6 -0.00287974837484 -1.63137937773777 -0.51912566856686
 1  14.15017512331233  0.12320474997500  0.48302634553455
 1  14.27882489628963 -0.03678205390539 -1.17378091649165
 1 -12.53306967196720  1.58275066526653  2.12245581038104
 1 -14.00147100470047  0.78327782008201  2.06625306340634
 1  14.23557417941794 -2.28477929562956 -0.28775222102210
 1  12.84048993069307 -2.08874277427743 -1.22398852215221
 1 -14.16388977717772  2.81723508350835  0.85279631723172
 1 -14.24624940874087  1.40843051725173 -0.27264128622862
 1  12.78977094089409 -2.06692919951995  1.85546742874287
 1  12.07280473497350 -3.09636332843284  0.79577643324332
 1 -11.66012580468047  3.59040676137614 -0.07063054605461
 1 -12.45351156505651  2.88313182098210 -1.54229813101310
 1  11.88887225772577 -0.70216329362936 -2.47547568026803
 1  12.63695057575758  0.82204686598660 -2.66864343834383
 1  10.93106067736774  0.90607371907191 -2.22189290879088
 1  12.70240119421942  2.39006590849085  0.79107644814481
 1  11.67592599949995  2.77394730563056 -0.64571872887289
 1  13.44484634093409  2.32500277017702 -0.67492976407641
 1 -13.52671190189019 -0.63354736373637 -0.45660176087609
 1 -13.91144331693169 -1.35021082528253  1.05779300000000
 1 -12.57618522172217 -1.95303370827083 -0.18232411491149
 1 -10.83795628652865  0.04115847644765  2.84413407250725
 1 -10.98582510791079 -1.51658265896590  1.79432344854485
 1 -12.41904596859686 -0.77675214311431  3.05873440154015
 1  10.01548495509551  1.80098495859586  0.65269117701770
 1 -10.04944938963896 -1.56035114511451 -0.31835821382138
 1  9.50452452995300 -0.83243083778378  2.22978673627363
 1  10.69906072017202 -1.99477567546755  3.14125555555556
 1  9.51405347254726 -2.60791064106411  1.75179480108011
 1 -9.35334236953695  1.18507081968197 -1.84056655355536
 1 -9.78056286118612  3.00196371837184 -1.29930997719772
 1 -10.72905317031703  2.00471547694769 -2.87047702100210
 1  8.20075566636664 -0.68758953915392  0.14541759135914
 1 -8.28343173837384  0.79755394949495  0.10417676517652
 1  8.18260149224923  2.87953298919892  1.56650603310331
 1  6.86959884058406  3.26297400160016  0.55154773447345
 1  8.56682091979198  3.07638630063006  0.04261103820382
 1 -9.02888384058406 -2.63355041414141 -1.21942863646365
 1 -8.13109409770977 -3.28489167646765  0.50553669296930
 1 -7.13489804240424 -3.28981163246325 -1.10579946514651
 1  6.08697956245625 -0.08440366716672 -0.42655467216722
 1 -5.96269825442544  0.21066300480048 -0.15073535033503
 1  4.85261861916192  2.53325176927693  0.48530143694369
 1 -5.02177227752775 -2.81143465986599 -0.90413255435544
 1  3.88395866256626 -0.25457002690269  0.03906354475448
 1 -3.82622025322532 -0.15750942104210 -0.25785765246525
 1  2.79366006540654  2.81879227532753  1.43168182348235
 1  1.28411561236124  3.14691542334233  0.76773650115011
 1  2.80914797359736  3.23091356485649 -0.40989495909591
 1 -3.28194006360636 -3.35842419831983 -1.57601261206121
 1 -2.85627723352335 -3.82958495139514 -0.06241158975898
 1 -1.57821879317932 -3.64753508790879 -1.14779700610061
 1  0.12013441424142  0.90887680288029  0.14671531673167
 1 -1.53461455005500 -0.13928594139414 -0.10403812991299
 1  2.24567311181118 -1.45421447114711 -0.65218478267827
 1  0.19675018581858 -2.64927997029703 -0.97165802670267

