%nproc=4
%Mem=2GB
# td=(NStates=1) B3LYP/6-31G(d,p) 

TD

0 1
 6  12.19371371397140  0.55041564206421 -0.72508862776278
 6 -12.16581889598960 -0.06927196879688  0.72279145804580
 6  13.58469788248825 -0.30660032003200 -0.47677367636764
 6 -13.07118361826183  1.08135252675268  1.32719343374337
 6  13.34592690689069 -1.83605927832783 -0.60499225802580
 6 -13.44494909100910  2.06412492459246  0.21538190529053
 6  11.11751354525453  0.04242850735073  0.20352789058906
 6 -11.05204287208721  0.45992587488749 -0.14406204100410
 6  12.35089952735274 -2.21728402240224  0.53790776707671
 6 -12.18099798239824  2.48070837903790 -0.51962029792979
 6  11.24242395039504 -1.18359041354135  0.85768233663366
 6 -11.11155594979498  1.59480510231023 -0.76467534123412
 6  11.65814640234023  0.57557868296830 -2.23280175877588
 6  12.56806021942194  2.04370842594259 -0.43889540854085
 6 -12.97412500330033 -1.04624174287429  0.00691452135214
 6 -11.62037090509051 -0.80305347894789  2.02941108930893
 6  9.89883794639464  0.98590470407041  0.36816881738174
 6 -9.90648045494549 -0.53124566666667 -0.33628771657166
 6  10.13701787808781 -1.85954576627663  1.67256989188919
 6 -10.01517448764877  2.10929266836684 -1.66604806970697
 6  8.62621886158616  0.49686964316432  0.31770997719772
 6 -8.57357031543154 -0.26701656695670 -0.31746806970697
 6  7.38965753395340  1.30953975427543  0.46169878247825
 6 -7.55946484038404 -1.31929040414041 -0.46131652855286
 6  7.64910796049605  2.81929456665667  0.62946538353835
 6 -7.87748493669367 -2.77086709780978 -0.71575885348535
 6  6.15877977947795  0.73570795979598  0.46053821282128
 6 -6.29527813771377 -0.83387421002100 -0.47074918661866
 6  4.93151380208021  1.39340167206721  0.37554721372137
 6 -5.00904051585159 -1.51457743554355 -0.56822820442044
 6  3.75077378897890  0.70547811301130  0.29552150145014
 6 -3.77535292049205 -0.98296892959296 -0.30939337703770
 6  2.42037533893389  1.26174688238824  0.20625511341134
 6 -2.54978397779778 -1.79924498319832 -0.15105838593859
 6  2.20658503010301  2.77294666116612  0.33386776007601
 6 -2.77080762616262 -3.34403793029303 -0.49144049414941
 6  1.27510905940594  0.46637797939794  0.21006592359236
 6 -1.39123729682968 -1.13191176317632 -0.06625533063306
 6  1.12966733893389 -0.89854480168017  0.13906638693869
 6 -0.02112157255726 -1.58399463926393  0.01286753075307
 1  14.06674678047805 -0.15820339083908  0.45247329022902
 1  14.31796881068107  0.30824244854485 -1.14248778717872
 1 -12.22816918191819  1.71266365656566  2.07584114891489
 1 -13.88785964356436  0.70647013931393  2.00623706180618
 1  14.32863348534854 -2.35801661936194 -0.33660710651065
 1  12.85385126682668 -2.16704060406041 -1.64474059735974
 1 -14.13054644284428  2.98695205520552  0.48018905650565
 1 -14.11539632343234  1.48139781398140 -0.41012503460346
 1  12.79313127692769 -2.14028653525353  1.53831571357136
 1  11.86687414191419 -3.18958265036504  0.60741759735974
 1 -11.85169496159616  3.25389311001100  0.25009152615262
 1 -12.59961617551755  2.98346185398540 -1.38520242144214
 1  11.19160253075307 -0.48416149344935 -2.60249838253825
 1  12.51508838953895  0.85319998129813 -2.88099467346735
 1  10.81670924222422  1.22473558525853 -2.37971869136914
 1  12.69712066616662  2.30998790069007  0.59446678717872
 1  11.81703010991099  2.53587349824982 -0.66816097309731
 1  13.44884674097410  2.51111138103810 -0.88366063716372
 1 -13.52373160386039 -0.80131414041404 -0.97715381608161
 1 -13.83475564816482 -1.47946375057506  0.69901712241224
 1 -12.43444104730473 -1.93362176707671 -0.14115999849985
 1 -11.09544203510351  0.03696805740574  2.60643030213021
 1 -10.60702722812281 -1.41116211691169  1.72814683088309
 1 -12.40035409940994 -1.15113958185819  2.70187871597160
 1  10.00299370597060  2.13462832293229  0.39713562146215
 1 -10.23054749944994 -1.70331544154415 -0.54071044904491
 1  9.15921999949995 -1.17309490419042  1.86012977057706
 1  10.59632044614461 -2.01712791069107  2.55598702870287
 1  9.61391345854586 -2.73021287128713  1.22516213781378
 1 -9.34028106340634  1.42737505010501 -1.83139563646365
 1 -9.41440624552455  3.04827834983498 -1.34973501970197
 1 -10.60370063506351  2.60634563996400 -2.49927990129013
 1  8.35275086588659 -0.55791657185719  0.27096014561456
 1 -8.26986038123812  0.74041823592359 -0.25460911341134
 1  8.31334456655666  2.89318435433543  1.48713809630963
 1  6.61555343604360  3.41881958615862  0.72559513921392
 1  8.42247648534854  3.10472913491349 -0.06944016691669
 1 -8.70686163836384 -3.01428848794879 -1.45279197279728
 1 -8.49962095039504 -3.09406259355936  0.45640177947795
 1 -6.96290084268427 -3.31539419071907 -0.87565645084508
 1  6.16636750125012 -0.26224145094509  0.16309429272927
 1 -6.04468645324532  0.10560249874988 -0.01636191299130
 1  4.80808416571657  2.53650209430943  0.28906181298130
 1 -5.05917601790179 -2.66388990539054 -0.54203634473447
 1  3.80375064176418 -0.33249781968197  0.32975261366137
 1 -3.65327295849585  0.20193652355235 -0.12914478117812
 1  2.39907060646065  3.14599499559956  1.52070072537254
 1  1.09196639743974  3.17640837263726  0.06954668216822
 1  2.95030208900890  3.19840031353135 -0.40547451705171
 1 -3.21818368796880 -3.53795215111511 -1.45908091889189
 1 -3.34933653945395 -3.65423741664166  0.41836648804881
 1 -1.81460243154315 -3.66143647804781 -0.40918314471447
 1  0.32943534433443  1.02749866506651  0.39244989018902
 1 -1.71761284988499  0.10044803200320  0.04436671057106
 1  1.95799434393439 -1.61491054075408  0.24484492029203
 1  0.01265177597760 -2.75670071237124  0.37806694579458

