%nproc=4
%Mem=2GB
# td=(NStates=1) B3LYP/6-31G(d,p) 

TD

0 1
 6  12.19742408500850  0.58718931943194 -0.67936405530553
 6 -12.14379669376938 -0.00269531113111  0.92915209410941
 6  13.48408782148215 -0.22274193419342 -0.54992099109911
 6 -12.99669616951695  1.25265965746575  1.28696941134113
 6  13.28260057425743 -1.76006167856786 -0.57765952475247
 6 -13.58277287338734  1.97573608570857 -0.01384101700170
 6  11.06203799769977  0.04689895439544  0.27943548134813
 6 -11.04941260906091  0.46719660196020 -0.09644727952795
 6  12.45116955435544 -2.10367266126613  0.59107308360836
 6 -12.32110199279928  2.54290459865987 -0.66512484838484
 6  11.22480218821882 -1.18562061656166  0.87631419981998
 6 -11.03176797099710  1.58088371017102 -0.76544541824182
 6  11.73476406410641  0.63513463856386 -2.14662314091409
 6  12.56755016841684  2.00898495359536 -0.31174269326933
 6 -12.96430402120212 -1.19120623932393  0.38930276017602
 6 -11.49590845884588 -0.54869804340434  2.12968111631163
 6  9.89180724332433  0.93525963956396  0.46888888938894
 6 -9.94230403730373 -0.46025856795680 -0.24597868566857
 6  10.28786296259626 -1.82362217391739  1.88297093199320
 6 -10.07235020522052  1.99204094319432 -1.78899036393639
 6  8.59898613831383  0.54234419061906  0.36615482168217
 6 -8.57757071547155 -0.27603746904690 -0.20417674057406
 6  7.37246581478148  1.31971077137714  0.42426503910391
 6 -7.54741363526353 -1.22522099719972 -0.37787818471847
 6  7.58376142584259  2.75618825602560  0.87610004700470
 6 -7.93991117931793 -2.72262227332733 -0.43542081968197
 6  6.15529943144314  0.68990337933793  0.30437259625963
 6 -6.25964457435744 -0.80571139373937 -0.27478959065907
 6  4.91342199289929  1.24541687358736  0.51452111111111
 6 -5.09670928272827 -1.62497847564756 -0.44134551615162
 6  3.67934664626463  0.59431699689969  0.20700264956496
 6 -3.80184556975698 -1.19391002370237 -0.27383982168217
 6  2.46673997539754  1.21209191689169  0.18123261116112
 6 -2.55370436983698 -1.82538759745975 -0.45290857095710
 6  2.33034740634063  2.69225859235924  0.42598697199720
 6 -2.60735128052805 -3.29522304880488 -0.69714106420642
 6  1.20839238773877  0.47173851545155 -0.07282236523652
 6 -1.38594676777678 -1.11514008600860 -0.30300900600060
 6  1.05631000320032 -0.90682562976298 -0.42703022272227
 6 -0.12838229862986 -1.52687892769277 -0.50142389838984
 1  13.81083118891889  0.08450087958796  0.42322036493649
 1  14.14449146294630  0.05839746404640 -1.26422996139614
 1 -12.26470283528353  1.94014640484048  1.85541910671067
 1 -13.73576443404341  0.83093258555856  2.10604704280428
 1  14.20240086208621 -2.16792761046105 -0.46086953275328
 1  12.80817669936994 -2.20147404740474 -1.62914903820382
 1 -14.07402079027903  2.92292565256526  0.35086612421242
 1 -14.05240002380238  1.16465613981398 -0.68799282138214
 1  13.06902886668667 -2.31292379897990  1.52305418741874
 1  11.95417287178718 -3.16577026912691  0.56399325492549
 1 -11.86491628372837  3.41245896659666 -0.06336981998200
 1 -12.39646586048605  3.28874238203821 -1.44784868606861
 1  11.53367673817382 -0.20557363466347 -2.72986111881188
 1  12.43053993469347  1.09324398569857 -2.62602917691769
 1  10.87360493179318  1.22633574527453 -2.24910563006301
 1  12.59510046414642  1.91210811271127  0.87196453695369
 1  11.99456786368637  2.79747965886589 -0.64387854485449
 1  13.59148100440044  2.40998126802680 -0.95914818591859
 1 -13.82176140684068 -0.95954996399640 -0.60038613931393
 1 -13.61024319691969 -1.36691249544955  1.17147436813681
 1 -12.49982758595860 -2.02514091899190  0.07385150265027
 1 -10.70485297619762  0.06942130273027  2.66782644174417
 1 -10.80913743914392 -1.51233223392339  1.96463047924792
 1 -12.15090915491549 -0.94590905880588  2.98497702580258
 1  10.21736514311431  2.04299916001600  0.47445335323532
 1 -10.28674311901190 -1.51887699769977 -0.43700007800780
 1  9.43445752325233 -1.18942653735374  2.22020577817782
 1  10.94882569666967 -2.46045224312431  2.80071150115011
 1  9.84879694689469 -2.68395824582458  1.50096971857186
 1 -9.49988702400240  1.09870218281828 -2.11882437933793
 1 -9.30846565146515  2.78904242624262 -1.29251929812981
 1 -10.34524478947895  2.42569757515752 -2.81161113441344
 1  8.53624921572157 -0.54963574377438  0.04636768636864
 1 -8.08599199439944  0.72551674577458 -0.23071672417242
 1  8.16615984808481  2.79612464836484  1.97640702320232
 1  6.70818269896990  3.26403410761076  1.03515609530953
 1  8.09184342204220  3.26484514651465  0.15308208530853
 1 -8.37592854505451 -2.99682674177418 -1.38874556815682
 1 -8.72825381368137 -2.98647183448345  0.42414855415542
 1 -7.06977152975298 -3.53446609790979 -0.15785467066707
 1  6.28160902540254 -0.46961218801880  0.12290027332733
 1 -5.98976096069607  0.19662160066007 -0.24034431123112
 1  4.82141549884988  2.36218466256626  0.97975088188819
 1 -5.12800290059006 -2.71353486988699 -0.49698183928393
 1  3.98363863056306 -0.44130870077008  0.01997163556356
 1 -3.86112374357436 -0.02037570767077 -0.17286915361536
 1  2.69524022342234  3.11489188528853  1.37521617691769
 1  1.11935913671367  3.09195992779278  0.28577830533053
 1  2.95600265906591  3.35020549404940 -0.13150712031203
 1 -3.49172104170417 -3.50828918481848 -1.42197720852085
 1 -3.06799840564056 -3.73427542044204  0.27403205460546
 1 -1.63159413071307 -3.74987532193219 -0.69413163956396
 1  0.08745114591459  0.97790370557056  0.08742938813881
 1 -1.53775486408641  0.11243923112311 -0.31899962606261
 1  1.83136168066807 -1.67232628232823 -0.37919748394839
 1  0.12536304710471 -2.66368141044104 -0.52236309720972

