%nproc=4
%Mem=2GB
# td=(NStates=1) B3LYP/6-31G(d,p) 

TD

0 1
 6  12.15306964956496  0.49032963346335 -0.68181430033003
 6 -11.97552986708671 -0.03215825742574  0.94272345124512
 6  13.45694510721072 -0.21556121612161 -0.69389538853885
 6 -12.98565506540654  1.18306269776978  1.28220893529353
 6  13.21871418561856 -1.69801547394739 -0.76391815061506
 6 -13.42380697679768  2.08213672577258  0.06716708380838
 6  11.09900169406941 -0.04002973847385  0.19923746154615
 6 -10.96839450725072  0.40725060736074 -0.18444607940794
 6  12.41710614801480 -2.15862815681568  0.49333330963096
 6 -12.22478236083608  2.62880318851885 -0.64306264216422
 6  11.24576428442844 -1.22869492399240  0.81937850625062
 6 -11.13956875107511  1.59373499529953 -0.93054192789279
 6  11.51970255795580  0.64536566166617 -2.15910438903890
 6  12.39130254365437  2.01605566066607 -0.20499201820182
 6 -12.88947653845385 -1.16750386908691  0.37826165606561
 6 -11.38268713671367 -0.36835000860086  2.37789593779378
 6  9.90110817341734  0.86435254885489  0.34472647314731
 6 -9.91022082898290 -0.65416795889589 -0.42644673247325
 6  10.13409758605860 -1.84750456215622  1.75224785968597
 6 -10.11616458665867  2.01552329142914 -1.95151661656166
 6  8.52694893459346  0.49496945314531  0.29980818701870
 6 -8.55890884928493 -0.38509837513751 -0.43760008290829
 6  7.36992556075608  1.40122892319232  0.48821143374337
 6 -7.50544943884389 -1.37551602670267 -0.48978937583758
 6  7.54172722242224  2.78231086828683  0.89688212521252
 6 -7.89089627782778 -2.74993500460046 -0.79229650725073
 6  6.09957385888589  0.61943633263326  0.39174133313331
 6 -6.23492210211021 -0.99394021662166 -0.40374248594859
 6  4.82242289298930  1.27999033093309  0.46006566556656
 6 -5.06037564936494 -1.65827180498050 -0.44527590919092
 6  3.62961167276728  0.62921048624862  0.29187113641364
 6 -3.75909129432943 -1.13158379107911 -0.17554999269927
 6  2.38674197559756  1.29566027372737  0.27841232913291
 6 -2.53716271567157 -1.87101215991599 -0.13576685678568
 6  2.33422779437944  2.83800316681668  0.59472384568457
 6 -2.62655320072007 -3.28575210171017 -0.46994834493449
 6  1.15270681918192  0.59066040764076  0.16152106910691
 6 -1.28311648474848 -1.14772334433443 -0.08646735183518
 6  1.13473784598460 -0.77542248944894 -0.10589810951095
 6  0.02638317791779 -1.60639687948795 -0.21553530953095
 1  13.97831793759376  0.07477990749075  0.07627567046705
 1  14.05625263906391 -0.17587596329633 -1.59113265166517
 1 -12.47500386538654  2.13752614281428  1.89790335513551
 1 -13.95423628122812  0.83353284558456  1.82954939303930
 1  14.08570919291929 -2.20731154885489 -0.66979042484248
 1  12.54197007870787 -1.95091899189919 -1.53227935123512
 1 -14.19686307450745  2.85549890989099  0.31741277887789
 1 -13.81959674347435  1.54464413861386 -0.83314733683368
 1  13.05787775157516 -2.35027753435344  1.33036491849185
 1  11.87611506600660 -3.09417310941094  0.25166202180218
 1 -11.76554634673467  3.49600732143214 -0.09400288328833
 1 -12.48884509840984  3.04810831863186 -1.50473437463746
 1  11.36012938343834 -0.39479255655566 -2.74435256795680
 1  11.96717359805981  1.56427108840884 -2.79974654865487
 1  10.53332090339034  1.14300741244124 -2.19261998149815
 1  12.69202015611561  2.19586648854886  0.86026336683668
 1  11.65876428332833  2.77573748464847 -0.58592274927493
 1  13.39523137943794  2.08037830773077 -0.83767603870387
 1 -13.19310854155416 -0.67942195119512 -0.44840094079408
 1 -13.85375754835484 -1.44166997119712  1.00860808150815
 1 -12.42206981018102 -2.10778918381838  0.18745286278628
 1 -10.67399989088909  0.60720508110811  2.51043070217022
 1 -10.76400292569257 -1.33757475817582  2.40528454465447
 1 -12.23646771077108 -0.46735120302030  3.09057758585859
 1  9.99811321792179  1.87526238633863  0.56424233213321
 1 -10.15804024872487 -1.73186829682968 -0.50218659665967
 1  9.44521859935994 -0.93789138383838  2.07839159675968
 1  10.68674948904891 -2.19072527042704  2.55852728272827
 1  9.67292936013601 -2.64015386538654  1.26891651325133
 1 -9.30851788708871  1.40607291989199 -2.31970446734673
 1 -9.38982378727873  3.02025554755476 -1.92047209340934
 1 -10.75509577457746  2.31295630103010 -2.78307828112811
 1  8.28542413321332 -0.58772955315532  0.13172622222222
 1 -8.31667506270627  0.68921311541154 -0.33817747024703
 1  8.07579081118112  2.65720075597560  1.92976235873587
 1  6.62355423612361  3.27851555575558  0.96739931963196
 1  8.22268650635064  3.28849751175118  0.18219499659966
 1 -8.22823377557756 -2.94214127322732 -1.78197489108911
 1 -8.77760874917492 -3.25041822912291 -0.07071093179318
 1 -7.08751330393039 -3.34378703000300 -0.73432231743174
 1  6.24882574707471 -0.42957818461846  0.24094207750775
 1 -6.05385737033703  0.17751969046905 -0.42805308210821
 1  4.66533989128913  2.40103854795480  0.37867077387739
 1 -5.21983208350835 -2.77966148254825 -0.87670981208121
 1  3.75655592229223 -0.40479504940494  0.03843348174817
 1 -3.78019565076508  0.00136646654665  0.26463459675968
 1  2.80042074147415  2.98366876297630  1.63177183248325
 1  1.32729993079308  3.25211594339434  0.67602733023302
 1  3.10822788158816  3.42572304580458  0.08218424882488
 1 -3.13105497509751 -3.56141449734974 -1.39582459325933
 1 -3.28355996179618 -4.01610360326033  0.13369802120212
 1 -1.58093906520652 -3.82804313871387 -0.55819804620462
 1  0.32508490929093  1.17245316051605  0.12912355755576
 1 -1.44542563116312 -0.09816182898290  0.02289456335633
 1  2.05628417291729 -1.21792084178418 -0.26447601180118
 1  0.25359587038704 -2.73732877517752 -0.19232009290929

