%nproc=4
%Mem=2GB
# td=(NStates=1) B3LYP/6-31G(d,p) 

TD

0 1
 6  12.21366570917092  0.55126572707271 -0.60807692659266
 6 -12.28590090419042 -0.04678972057206  0.91481065996600
 6  13.60797020972097 -0.24904456445645 -0.41323732273227
 6 -13.07313381328133  1.18830322182218  1.30726144054405
 6  13.32586490069007 -1.80722639503950 -0.46197795659566
 6 -13.55623021912191  2.04045255735574  0.17205757285729
 6  11.06870866476648 -0.01160689618962  0.23571110891089
 6 -11.12915058285829  0.41652153445345  0.00995336053605
 6  12.43570800820082 -2.05222751675168  0.69405338163816
 6 -12.17298718131813  2.59443975217522 -0.44910324622462
 6  11.21153086108611 -1.08311036553655  0.97400396879688
 6 -11.06323111731173  1.55957157895790 -0.64634350805081
 6  11.66023661136114  0.56802792789279 -2.08725720432043
 6  12.60143355675568  2.02290634573457 -0.15721724072407
 6 -13.10930852165217 -1.11057817651765  0.25690952085209
 6 -11.51933080108011 -0.69100227382738  2.17900604880488
 6  9.89919798239824  0.88549466306631  0.39512151265126
 6 -9.98621842874287 -0.57381992409241 -0.12907699549955
 6  10.21003517981798 -1.65414522622262  1.95663829872987
 6 -9.94446741694169  1.94770650975097 -1.63350481538154
 6  8.67466370607061  0.40391034723472  0.37818602480248
 6 -8.72195515391539 -0.37493735903590 -0.25904222712271
 6  7.49395796399640  1.28773757405741  0.34991760436044
 6 -7.55629452335234 -1.27294576967697 -0.43426382328233
 6  7.62454550425042  2.82345498269827  0.47399983698370
 6 -8.05850303850385 -2.76847685878588 -0.68793607120712
 6  6.26494039553955  0.56973136213621  0.20969312831283
 6 -6.26107471737174 -0.81248207080708 -0.38816092779278
 6  4.99246989768977  1.29541187308731  0.31992165116512
 6 -5.06426603840384 -1.64381035883588 -0.55071645324532
 6  3.70655936753675  0.66254381958196  0.10200214951495
 6 -3.85455084028403 -1.01748238093809 -0.43548598629863
 6  2.47820112151215  1.26672738043804  0.17589207710771
 6 -2.63236223562356 -1.73575863456346 -0.53832711281128
 6  2.46281065266527  2.68048741524152  0.31132550585059
 6 -2.64836538193819 -3.21983551005101 -0.80084143424342
 6  1.30791233973397  0.55358670027003 -0.00968605160516
 6 -1.41478965206521 -1.07235580758076 -0.22484118921892
 6  1.08189256145615 -0.83053800100010 -0.18162568226823
 6 -0.08063752415242 -1.54309054885489 -0.38817257325733
 1  14.21771187698770 -0.03597116761676  0.36567461036104
 1  14.03106011981198 -0.33081145684568 -1.46892043044304
 1 -12.63562992799280  1.82544493469347  2.03350691549155
 1 -13.96149700730073  0.88482797509751  1.82850928902890
 1  14.24942556455646 -2.46772759045905 -0.22395584138414
 1  12.91060694239424 -2.40383428342834 -1.39029515281528
 1 -14.15833922212221  2.89463282328233  0.51393243084308
 1 -14.04308909270927  1.48314798899890 -0.61916593869387
 1  12.99723168696870 -2.09631213781378  1.73398528052805
 1  11.99901735623562 -3.05264895699570  0.61778863446345
 1 -11.77933772587259  3.37840556125613  0.15479199619962
 1 -12.42575878977898  3.10605411321132 -1.28215211641164
 1  11.79436280678068 -0.23554663196320 -2.59966809950995
 1  12.21338821952195  1.39595425672567 -2.61989856385639
 1  10.52927049834983  0.90264337603760 -2.05765648514852
 1  12.64025497959796  2.09954685658566  0.94940228072807
 1  12.02536094299430  2.74768467936794 -0.52846700370037
 1  13.56080793709371  2.44566483638364 -0.54893716481648
 1 -13.40227945864586 -0.83233724272427 -0.75643174387439
 1 -14.11119329192919 -1.30851665586559  0.82170939163916
 1 -12.56344394759476 -2.04944334923492  0.32512663016302
 1 -10.80861335223522 -0.06095173457346  2.37097675677568
 1 -10.99309583498350 -1.49165016571657  1.92928694489449
 1 -12.02993705770577 -0.93890835873587  3.06426495459546
 1  10.14683809040904  2.16516137623762  0.13254916281628
 1 -10.20070451515151 -1.55026013601360 -0.22898927692769
 1  9.64049812731273 -0.98276587128713  2.34097785538554
 1  10.69609042314231 -2.16935313321332  2.97308873887389
 1  9.50773284048405 -2.33468331833183  1.31811143274327
 1 -9.27868490379038  1.02818513111311 -1.89691218811881
 1 -9.27648245314531  2.78135165716572 -1.20803084928493
 1 -10.70170043504351  2.42055706110611 -2.56122609590959
 1  8.37814340514051 -0.55508628882888  0.53064611421142
 1 -8.40473386858686  0.65598979307931  0.05162150965097
 1  8.09579281138114  3.18775381128113  1.43930331283128
 1  6.61918379907991  3.32869057325733  0.43908648834883
 1  8.17193143084308  3.22136079807981 -0.33359658255826
 1 -8.73342429462946 -2.66773383248325 -1.56630332393239
 1 -8.47313830213021 -2.99298248554856  0.33205934523452
 1 -7.27639219181918 -3.62614526582658 -0.84779366456646
 1  6.57139800430043 -0.56080130693069  0.21014899819982
 1 -6.38302028662866  0.27964990349035 -0.12895317211721
 1  5.05690904820482  2.26171461556156  0.56238914571457
 1 -5.31995209550955 -2.85840935733573 -0.54895703680368
 1  3.86296656335634 -0.30106467636764 -0.05002536413641
 1 -3.85763339453945  0.36365269516952 -0.55146701340134
 1  2.96701740114011  2.80939133523352  1.17828648394839
 1  1.47277447824783  3.17051778357836  0.33120284778478
 1  2.86433349214921  3.13658413191319 -0.43972794239424
 1 -2.85952782238224 -3.43237159305931 -1.82186719751975
 1 -3.28338994479448 -3.92193418631863 -0.16481182978298
 1 -1.55279625092509 -3.51379171357136 -0.49505173157316
 1  0.34826722752275  1.10991690689069 -0.27075643044304
 1 -1.38310939953995  0.00310829802980 -0.11772949904990
 1  1.97101564606461 -1.53214226392639 -0.30601016521652
 1  0.02011252205221 -2.65450049234923 -0.61337219811981

