%nproc=4
%Mem=2GB
# td=(NStates=1) B3LYP/6-31G(d,p) 

TD

0 1
 6  12.05083942654265  0.54174477497750 -0.83331945084508
 6 -12.09902221632163 -0.01086612821282  0.78171735063506
 6  13.45679509220922 -0.20801046104610 -0.81638763776378
 6 -12.91482798269827  1.24473886538654  1.19325003940394
 6  13.16878919311931 -1.77101277367737 -0.69208096689669
 6 -13.26419101520152  2.10160867296730  0.04176454355436
 6  11.03185497939794  0.04313857835784  0.17393493129313
 6 -11.05602327012701  0.44431431373137 -0.20518815361536
 6  12.35231966936694 -1.98864115811581  0.68003197949795
 6 -11.97475735833583  2.66956726492649 -0.49775811171117
 6  11.16180588858886 -1.11756381088109  0.87454402280228
 6 -10.97887268146815  1.67033265506551 -0.85298417211721
 6  11.52920350805081  0.49474059915992 -2.18958743734373
 6  12.44977839123912  1.96042009710971 -0.49036055505551
 6 -12.98196578737874 -1.03801091979198 -0.00348651875188
 6 -11.47947681568157 -0.69135230883088  2.04020216841684
 6  9.82006006860686  0.87690380398040  0.38051005150515
 6 -9.96552635953595 -0.52911545364536 -0.34735882368237
 6  10.25249942624262 -1.62065187688769  1.88260089498950
 6 -9.82235520572057  2.12657439653965 -1.64965643054305
 6  8.48830507020702  0.56713666986699  0.32865107130713
 6 -8.55415837423742 -0.39227909320932 -0.34118044094409
 6  7.38390695889589  1.33932273257326  0.54029664226423
 6 -7.60707960186019 -1.34413288838884 -0.41291168806881
 6  7.60964401410141  2.93364600180018  0.69419185618562
 6 -7.88669585778578 -2.77658766986699 -0.64920219781978
 6  6.10091399289929  0.79064345334533  0.43750590959096
 6 -6.27211582148215 -0.88093891649165 -0.19938204990499
 6  4.83112376307631  1.36815914781478  0.55752541154115
 6 -5.08092770457046 -1.55849182698270 -0.30094147574757
 6  3.69894860646065  0.66206377157716  0.29888183748375
 6 -3.81701708690869 -1.11345197789779 -0.09571200890089
 6  2.34599790119012  1.16535724342434  0.39605409330933
 6 -2.55645464486449 -1.90868592729273 -0.31220450055005
 6  2.27784215581558  2.72116148264826  0.68670304360436
 6 -2.62569311471147 -3.37806133263326 -0.57372872297230
 6  1.23669521802180  0.33177451905191  0.22381729872987
 6 -1.34241241434143 -1.24508308030803 -0.18765747084708
 6  1.17977234943494 -1.06025097229723 -0.20896841654165
 6 -0.04059351975198 -1.74792103190319 -0.23159691569157
 1  14.01350145594559  0.10785321482148 -0.04663662076208
 1  13.97828484228423  0.02022364666467 -1.61598513691369
 1 -12.39885625062506  1.92550494069407  2.13999756455646
 1 -13.93675453305331  1.03871336363636  1.79764620272027
 1  14.12952357435744 -2.08544936263626 -0.76422986878688
 1  12.57099298099810 -2.17769166916692 -1.59958608190819
 1 -13.91552494069407  3.08718207820782  0.38058909650965
 1 -13.76312109590959  1.50632030623062 -0.77813183528353
 1  13.01677364116412 -1.95248775537554  1.48110999299930
 1  12.08113556805680 -3.10660435253525  0.86823367896790
 1 -11.67290708280828  3.60151787248725  0.10483700070007
 1 -12.27096331023102  3.24382789058906 -1.41328522972297
 1  11.18769213971397 -0.46229930723072 -2.60031816451645
 1  12.37790467116712  0.81044570587059 -2.75950252425243
 1  10.55965353665366  1.22351546324632 -2.48706942644264
 1  12.74355530963096  2.19623652555256  0.54630197069707
 1  11.54559296619662  2.64580449134913 -0.80100425742574
 1  13.28613046934693  2.21282155205521 -1.11300357145715
 1 -13.36837606830683 -0.55322933193319 -0.98754485518552
 1 -14.16191836443644 -1.54632043624362  0.34715193589359
 1 -12.44849245244525 -1.85928433333333 -0.35214109660966
 1 -10.61936442734273 -0.13455909530953  2.72767242634263
 1 -11.13308983438344 -1.66473747444744  1.85550956715672
 1 -12.28427249124912 -0.93131759965997  2.69643817191719
 1  10.06519992659266  1.97977283738374  0.49308521642164
 1 -10.44231867656766 -1.57980309030903 -0.40681705970597
 1  9.46101017851785 -0.96366396109611  2.05809956755676
 1  11.00123093719372 -1.83767996589659  2.79504093409341
 1  9.82966503370337 -2.67324717471747  1.54560418201820
 1 -9.13126016131613  1.34183649624962 -2.00470296719672
 1 -9.34454925982598  2.96864038603860 -1.11109115531553
 1 -10.05893615861586  2.59352435783578 -2.74017399069907
 1  8.35996158695870 -0.48219900010001  0.16313936353635
 1 -8.29357275247525  0.52868706280628  0.11111745924592
 1  7.96634986708671  2.90195523142314  1.78506788928893
 1  6.59491137183718  3.44631233543354  0.83541612131213
 1  8.22022626032603  3.27265592759276 -0.07618084098410
 1 -8.44069502170217 -2.73340039913991 -1.48696539013901
 1 -8.47578856715671 -3.25827901520152  0.24015015431543
 1 -6.86508106070607 -3.11265391669167 -0.78875776097610
 1  6.02208307280728 -0.33900912771277  0.14198218151815
 1 -6.39547153175317  0.21982392089209 -0.14599487628763
 1  4.69799315661566  2.34840328442844  0.83612651945195
 1 -5.30635073537354 -2.56344986138614 -0.66519866096610
 1  3.63847411411141 -0.43617818771877  0.09267890629063
 1 -3.68202583378338  0.03548987888789  0.24294242754275
 1  2.65575627502750  3.06101649774978  1.65476413171317
 1  1.12056925772577  3.02931366316632  0.49633936143614
 1  2.90479753855386  3.14199467296730 -0.16145011461146
 1 -3.06298816841684 -3.68896725262526 -1.66788179897990
 1 -3.43319492529253 -4.06439843274327 -0.06676202480248
 1 -1.60063103440344 -3.84166450085009 -0.41643386978698
 1  0.29543194399440  0.76870278547855  0.46038668386839
 1 -1.32626371497150 -0.22906491929193 -0.01523925002500
 1  2.13415195969597 -1.65436448614862 -0.21912147634763
 1  0.10741125192519 -2.86921196349635 -0.59002986388639

