%nproc=4
%Mem=2GB
# td=(NStates=1) B3LYP/6-31G(d,p) 

TD

0 1
 6  12.17097143974397  0.42846344684468 -0.60830694959496
 6 -12.15358767286729 -0.12468751035104  0.90864004290429
 6  13.39699911261126 -0.47153681368137 -0.58455445444544
 6 -13.07556405630563  1.05160955245525  1.36349706410641
 6  13.00804311851185 -1.97435310771077 -0.69869162796280
 6 -13.49240383648365  1.91882039413941  0.22311267836784
 6  11.07059885378538  0.03940820532053  0.33358089588959
 6 -11.08011567936794  0.38291817411741 -0.05004263906391
 6  12.17915235263526 -2.35175746974697  0.54222819911991
 6 -12.25589547214721  2.45718602680268 -0.55028336423642
 6  11.17047675567557 -1.24038609310931  0.97383395179518
 6 -11.17977277147715  1.50926654845485 -0.80326920062006
 6  11.71887247494750  0.43341446654665 -2.09494797339734
 6  12.65066848024803  1.83850790589059 -0.26797831683168
 6 -12.99203679447945 -1.34242136083608  0.26941077097710
 6 -11.49179804780478 -0.63719689328933  2.20839898809881
 6  9.95339340194020  0.94122023562356  0.36057805830583
 6 -9.89839964686469 -0.55599814191419 -0.22147623542354
 6  10.05958013431343 -1.73966377807781  1.97703033793379
 6 -10.09591256145615  1.95146688578858 -1.75433689858986
 6  8.58512475217522  0.47789774597460  0.37978618481848
 6 -8.58955191359136 -0.33024288958896 -0.22041836473647
 6  7.45586415461546  1.30320912121212  0.50156276887689
 6 -7.55065395929593 -1.36535501060106 -0.43029342624262
 6  7.62243529322932  2.82672530973097  0.60574301130113
 6 -7.86993418161816 -2.72557256835684 -0.72190946854685
 6  6.24265816731673  0.84957934693469  0.31035319431943
 6 -6.21398000790079 -0.82804362696270 -0.49152126382638
 6  5.01845249594960  1.49472180408041  0.37369702870287
 6 -5.01077068886889 -1.60085606340634 -0.52565394699470
 6  3.73944265586559  0.83583114831483  0.21564351365137
 6 -3.80407579277928 -0.93996462916292 -0.53507594529453
 6  2.43967726912691  1.47131783948395  0.29071355925593
 6 -2.51086008540854 -1.74990004870487 -0.50882416251625
 6  2.34053842544254  3.10396976347635  0.38794316761676
 6 -2.52355290069007 -3.23185671217122 -0.59417076717672
 6  1.29689123762376  0.78759010061006  0.04675959295930
 6 -1.31732990609061 -0.98782735473547 -0.39264796989699
 6  1.14937931013101 -0.61983693089309 -0.04449196889689
 6 -0.00853031343134 -1.45983222302230 -0.22493624962496
 1  14.06134624042404 -0.50680825132513  0.49338738163816
 1  14.11208822262226 -0.19086746244624 -1.38918245664566
 1 -12.64962132713271  1.65288767896790  2.28731229602960
 1 -14.02643350095010  0.73858335063506  1.90580701880188
 1  13.87321794379438 -2.70308112581258 -0.86599004480448
 1  12.49388527022702 -2.07880178017802 -1.60362648594860
 1 -14.33683707190719  2.56444980498050  0.47670870847085
 1 -14.01344612841284  1.25350502470247 -0.46281030313031
 1  12.85068703250325 -2.45894840144014  1.36573845584558
 1  11.55113256775678 -3.35367906000600  0.51585844144414
 1 -11.71767155925593  3.44462218291829 -0.17440092309231
 1 -12.52241845574558  2.86314982278228 -1.39957385858586
 1  11.47595096559656 -0.74211728902890 -2.31672980568057
 1  12.43233011371137  0.73472813411341 -2.69086566056606
 1  10.86384395569557  0.97999111081108 -2.20405112461246
 1  12.53691464556456  1.97849475137514  0.74971231173117
 1  11.99481788868887  2.57501741264126 -0.66594075107511
 1  13.61377323362336  2.33721399129913 -0.51546381748175
 1 -13.67225645634563 -0.79311332033203 -0.48346444714471
 1 -13.55730790339034 -1.75901170537054  0.88719594029403
 1 -12.23451105430543 -2.17474587948795 -0.20961684418442
 1 -10.60636312721272 -0.08138377777778  2.35791545064506
 1 -11.04893141854186 -1.65682668336834  2.16047006320632
 1 -12.24432849684969 -0.69326379427943  2.88556708480848
 1  10.19137254385438  1.93373823392339  0.29503541144114
 1 -10.15840028472847 -1.74100921092109 -0.28619499749975
 1  9.68418249574958 -0.83944153885389  2.48702245984598
 1  10.62470328442844 -2.35071126902690  2.68959038903890
 1  9.55167723492349 -2.63165301530153  1.59253887548755
 1 -9.17048408370837  1.30001231383138 -2.06427892479248
 1 -9.73977878277828  3.05930945294529 -1.24888493469347
 1 -10.54444470947095  2.37452245764576 -2.72503247654766
 1  8.58176376717672 -0.56317709790979  0.43558660826083
 1 -8.21175457065707  0.73095728982898 -0.12364601710171
 1  8.04717794989499  2.87047208310831  1.55427480998100
 1  6.63868574927493  3.49165686988699  0.53049562926293
 1  8.26022025972597  3.32389105110511  0.01677845494549
 1 -8.78703965616562 -2.99438649774978 -1.38985567916792
 1 -8.31178216651665 -3.18387157445745  0.28550468976898
 1 -6.90858541114111 -3.28628127942794 -1.02195108030803
 1  6.45150601510151 -0.28473370017002  0.40164814811481
 1 -6.05577756235624  0.31640357885789 -0.29045932273227
 1  4.76457981528153  2.58874731883188  0.48761166796680
 1 -4.94770487078708 -2.69630314671467 -0.39784192529253
 1  3.80105037173717 -0.13858842874287  0.00337997639764
 1 -3.84617224842484  0.04190051995200 -0.47665953265327
 1  2.73066376577658  3.17754815091509  1.31773042834283
 1  1.32414961576158  3.48842957475748  0.46281600910091
 1  2.75293235203520  3.77652812631263 -0.57557152675268
 1 -3.07447931753175 -3.46733508940894 -1.58758376917692
 1 -3.04353595939594 -3.89713170607061  0.22664731613161
 1 -1.50776174747475 -3.56384671907191 -0.76682890929093
 1  0.38632103290329  1.43835975117512  0.01772241744174
 1 -1.70605169376938  0.01072906010601 -0.37353507960796
 1  1.85149369386939 -1.38569761946195  0.14068450425043
 1  0.18254876567657 -2.52506754905491 -0.37466832773277

