%nproc=4
%Mem=2GB
# td=(NStates=1) B3LYP/6-31G(d,p) 

TD

0 1
 6  12.33347769036904  0.62965356585659 -0.66693281218122
 6 -12.19419173327333 -0.05363040464046  0.86961614051405
 6  13.56666607930793 -0.11540120012001 -0.55695169416942
 6 -13.09492599249925  1.11707609910991  1.24858557295730
 6  13.38930124432443 -1.64491016341634 -0.50120187898790
 6 -13.47093168926893  2.09573808590859  0.10161052815282
 6  11.17033882778278 -0.04839057455746  0.12307984578458
 6 -11.10715838363836  0.49104898719872 -0.15496313111311
 6  12.51085552295229 -2.01324361836184  0.69338331463146
 6 -12.19522940554055  2.57898820702070 -0.55773410931093
 6  11.24663437143714 -1.12793484798480  0.81482805120512
 6 -11.05850064426443  1.65429105090509 -0.74137301100110
 6  11.81647223492349  0.72311343644364 -2.08457693629363
 6  12.56672008540854  2.12512656775678 -0.12682420142014
 6 -13.09343693449345 -1.04899201790179  0.12462629252925
 6 -11.58462733073307 -0.62918609220922  2.18951709990999
 6  9.89255731833183  0.77637375097510  0.35322732323232
 6 -9.92442224912491 -0.48266080818082 -0.25875996379638
 6  10.35257943424342 -1.74000381208121  1.82805544044404
 6 -10.06268923912391  2.08970070917092 -1.69483094799480
 6  8.61003724342434  0.35432538873887  0.18564677087709
 6 -8.60745370377038 -0.19954982028203 -0.21408773167317
 6  7.42077064526453  1.20106890719072  0.28657126972697
 6 -7.59983887778778 -1.28276675177518 -0.42728312521252
 6  7.61587463716372  2.70192282948295  0.34764720172017
 6 -8.02765995419542 -2.62741275237524 -0.79963724132413
 6  6.16683058455846  0.62196658565857  0.13344550355035
 6 -6.23630224012401 -0.89740056265627 -0.16883899559956
 6  4.91098174887489  1.27552988488849  0.36321598059806
 6 -5.13454306610661 -1.75334131193119 -0.35803718531853
 6  3.72061077267727  0.63658122332233  0.24338628792879
 6 -3.87595298049805 -1.19281991469147 -0.17667010471047
 6  2.37203050445045  1.20565127282728  0.37133162106211
 6 -2.55273427282728 -1.86907196589659 -0.23264654475448
 6  2.25130950255026  2.68423779027903  0.57202157545755
 6 -2.64369491489149 -3.33506703320332 -0.58297964806481
 6  1.18410995949595  0.44996633823382  0.15588050505050
 6 -1.44648282138214 -1.11950052205221 -0.15343404850485
 6  1.05735010721072 -0.99583453065307 -0.16133365306531
 6 -0.06027548794879 -1.66523276307631 -0.23160691669167
 1  13.80054015981598  0.15248767826783  0.62019006190619
 1  14.52649966376638  0.25163678797880 -1.21642518091809
 1 -12.66422278727873  1.68926131633163  1.94141770657066
 1 -13.97621847944795  0.64565405770577  1.69590602870287
 1  14.53838446044605 -1.94624544224422 -0.28484192999300
 1  13.04852073377338 -2.19070297029703 -1.39738586188619
 1 -14.06452984118412  2.86321968196820  0.39549058665867
 1 -14.14267905170517  1.67306698089809 -0.69785380748075
 1  13.01136310011001 -2.08262076867687  1.48348023002300
 1  12.28597605210521 -3.01745543764376  0.61128798439844
 1 -11.96113590569057  3.41753947464746 -0.01627511051105
 1 -12.36663287718772  2.77196070387039 -1.69488338953895
 1  11.50760413091309 -0.36277935523552 -2.45439357205721
 1  12.41007788848885  1.25367002830283 -2.82055862986299
 1  10.71449902120212  1.19428253995400 -1.94347506700670
 1  12.80004095819582  2.17008391029103  0.96051339183918
 1  11.73215162206221  2.74938484938494 -0.16741089808981
 1  13.53190504680468  2.50519078897890 -0.66226849794980
 1 -13.41077030773077 -0.46084009300930 -0.79310541124112
 1 -14.01765393799380 -1.25363116731673  0.64297151785179
 1 -12.42654025722572 -1.91243964886489 -0.46940282278228
 1 -10.79706219711971  0.14328868946895  2.78046770587059
 1 -11.00509703510351 -1.59277027772777  2.25224924112411
 1 -12.39198326232623 -0.65081954985499  3.02897142524252
 1  10.11065447204721  1.86517137723772  0.51285719361936
 1 -10.17151159585958 -1.50476558655866 -0.66738311631163
 1  9.61844592209221 -1.02878047274727  2.44522828042804
 1  10.85688650275027 -2.19354555245524  2.73870530053005
 1  9.77147921512151 -2.56726657665767  1.18892851445145
 1 -9.32614965026502  1.46501881448145 -2.12508500540054
 1 -9.59836464136414  2.99689321132113 -1.29630967716772
 1 -10.55638590359036  2.19964496989699 -2.72590256355636
 1  8.61536712751275 -0.81525230543054  0.11330438003800
 1 -8.23136653185319  0.83262745684568 -0.16406005850585
 1  8.49808304040404  2.97997303320332  0.96204558705871
 1  6.74334621532153  3.56445414961496  0.51142372207221
 1  7.98543278097810  3.06972563456346 -0.58360158305831
 1 -8.71440239243925 -2.27629468856886 -1.62302899649965
 1 -8.70244123242324 -2.97079026632663 -0.01933579427943
 1 -7.28083263586359 -3.37935058635864 -1.26427531273127
 1  6.22732359685969 -0.38682390919092 -0.19134115081508
 1 -6.19469145374537  0.13404534303430  0.04960468366837
 1  4.77832118941894  2.09590803490349  0.78740164696470
 1 -5.34035413571357 -2.78951246764676 -0.73825596669667
 1  3.91570183688369 -0.28810338023802 -0.05630599219922
 1 -3.76914454565457 -0.12570624072407  0.06498463176318
 1  2.64368506790679  2.94783517961796  1.56296495179518
 1  1.10189739053905  2.82369310111011  0.54879460696070
 1  2.79343640244024  3.32424289778978 -0.27506147574757
 1 -3.01783365296530 -3.34035239113911 -1.51336634743474
 1 -3.30487209300930 -3.68794078697870  0.18150280168017
 1 -1.76569754105411 -3.85907624202420 -0.24136636303630
 1  0.34435683648365  0.94676059125913  0.20381102630263
 1 -1.52100318891889 -0.18379039183918  0.01277355125513
 1  1.96568511301130 -1.63647269696970 -0.31915147934793
 1 -0.01067055625563 -2.65109015131513 -0.76172703360336

