%nproc=4
%Mem=2GB
# td=(NStates=1) B3LYP/6-31G(d,p) 

TD

0 1
 6  12.15641998459846  0.43357395789579 -0.67552367126713
 6 -11.98091040514051 -0.03800884248425  0.95195437433743
 6  13.42645205790579 -0.51747140714071 -0.59349534853485
 6 -12.78985548544854  1.15428982048205  1.60678139253925
 6  12.97589990419042 -1.89995566796680 -0.43782554135414
 6 -13.27434203030303  2.09069758185819  0.40561092819282
 6  11.01031282518252  0.04959922442244  0.32939047684768
 6 -10.97355502330233  0.39214909720972 -0.04608224302430
 6  12.18661309870987 -2.03758605260526  0.90796477277728
 6 -12.06200608320832  2.60732104030403 -0.31809014491449
 6  11.06862657065707 -1.06575863036304  1.09654622302230
 6 -11.04511930613061  1.61357697949795 -0.74107298099810
 6  11.54407499519952  0.38573969906991 -2.16059453805381
 6  12.55814922832283  1.91940599569957 -0.41401292029203
 6 -12.97603519431943 -0.99471659035904  0.25469929982998
 6 -11.35207407540754 -0.83213638723872  2.23292144034403
 6  9.95640370297030  1.06873298689869  0.42523452395240
 6 -9.86641644854485 -0.51326386848685 -0.33907799559956
 6  10.09908408470847 -1.52917272897290  2.09691232613261
 6 -10.13423639383939  2.07355909500950 -1.79415087998800
 6  8.57947418711871  0.68683864006401  0.23876208240824
 6 -8.55243820222022 -0.22153201850185 -0.38390471337134
 6  7.36792536073607  1.40385918621862  0.42386499909991
 6 -7.62017091099110 -1.31176965206521 -0.50905130203020
 6  7.47265031473147  2.97326996419642  0.70057249424942
 6 -7.93985117331733 -2.75962597369737 -0.78064534213421
 6  6.22007590909091  0.79237362636264  0.21802396139614
 6 -6.25628423832383 -0.91116193879388 -0.49353146484648
 6  4.81471212191219  1.38466079797980  0.42528218721872
 6 -5.02489210101010 -1.71183716151615 -0.54151553315332
 6  3.76190490209021  0.72497006220622  0.08217016631663
 6 -3.83821920712071 -1.29745037773777 -0.39426186388639
 6  2.46422972437244  1.25116582428243  0.21821630953095
 6 -2.56292529192919 -1.90661572027203 -0.50866414651465
 6  2.28882325392539  2.77080644714471  0.46446081938194
 6 -2.36536708210821 -3.44598812531253 -0.67992934303430
 6  1.25183673217322  0.59257059865987 -0.04326940994099
 6 -1.39902807590759 -1.12733130513051 -0.39476818191819
 6  1.11310568276828 -0.96155110231023 -0.28611613131313
 6 -0.05957541794179 -1.58657489728973 -0.48400215621562
 1  14.02816292209221 -0.30047761826183  0.26748479137914
 1  14.06731374517452 -0.32179055475548 -1.53462700110011
 1 -12.19358572357236  1.94726711691169  2.15342890769077
 1 -13.72542339994000  0.70013950625062  1.96149258735874
 1  13.86127674967497 -2.66293711141114 -0.16710015581558
 1  12.31964784648465 -2.49638353835384 -1.20854697799780
 1 -13.95695908410841  3.01981534153415  0.79316035363536
 1 -14.12371715551555  1.69594926912691 -0.17830185228523
 1  12.77743970777078 -2.22414492109211  1.76231811381138
 1  11.65669312381238 -2.95856954905491  0.76255311091109
 1 -11.61410120222022  3.28872659335934  0.16943346034603
 1 -12.33918013191319  3.11377488528853 -1.20350425162516
 1  11.34745811631163 -0.64493757105711 -2.49881801450145
 1  12.16825370607061  0.72298695999600 -2.85457203120312
 1  10.65783335463546  0.95379849154915 -2.09363008250825
 1  12.65006596069607  2.29632653455346  0.86015335583558
 1  11.76416482338234  2.65520543144314 -1.05812996999700
 1  13.62307416371637  2.02263253315332 -0.81532380348035
 1 -13.36721595229523 -0.49124313331333 -0.71814791549155
 1 -13.89681185378538 -1.02384818901890  0.92685990669067
 1 -12.56974457765777 -2.00934933983398 -0.22334821732173
 1 -10.69776226712671 -0.03845948534853  2.63973363246325
 1 -10.91242776817682 -1.75015601630163  1.96663067926793
 1 -12.12773683768377 -0.94798926682668  2.89571809990999
 1  10.27697110371037  2.06767162726273  0.55696160406041
 1 -10.11254569926993 -1.67485259525953 -0.13993037103710
 1  9.41964604210421 -0.81518911361136  2.46922067966797
 1  10.59819063316332 -1.91249744764476  3.02375380538054
 1  9.57279934713472 -2.40953080308031  1.58808843044304
 1 -9.44340137543754  1.22534484708471 -2.01376387328733
 1 -9.55202000690069  2.94064758675868 -1.35185523172317
 1 -10.74792505750575  2.46768177357736 -2.66964693799380
 1  8.40142573337334 -0.32059283948395 -0.14579152955296
 1 -8.21197459265927  0.82576677077708 -0.49256290879088
 1  7.67630086218622  2.76454149004900  1.90673005550555
 1  6.62938481918192  3.59791749594959  0.63724630433043
 1  8.55171940964096  3.44399306130613  0.29673645074507
 1 -8.34485543774377 -2.98034509360936 -1.82192888648865
 1 -8.53744473277328 -3.28297148444844 -0.06206006670667
 1 -6.99922447504751 -3.32562521382138 -0.88121700690069
 1  6.00162102660266 -0.13184841164116  0.02185016831683
 1 -5.93406539113911  0.15913785228523 -0.54687496429643
 1  4.79745310261026  2.47512595669567  0.76073898069807
 1 -5.24556465676568 -2.82922643904390 -0.79366150725073
 1  3.80047031373137 -0.27084165406541 -0.20474083568357
 1 -3.83901153235324 -0.19966363646365 -0.12308417511751
 1  2.45862656205621  3.08072846894689  1.72887154245425
 1  1.25518271907191  3.07092782458246  0.00842056955696
 1  2.97259431823182  3.41805227872787 -0.09768373797380
 1 -2.44765663526353 -3.75249360526053 -1.82954796559656
 1 -3.35173677947795 -4.05724771767177 -0.25882123072307
 1 -1.40230120142014 -3.86252658705871 -0.39275150155016
 1  0.38710111091109  1.16488240344034  0.10598124332433
 1 -1.48819990859086  0.02703069026903 -0.48462618871887
 1  2.11736028052805 -1.48516756645665 -0.30781034523452
 1  0.16301681248125 -2.62611765406541 -0.71505236613661

