%nproc=4
%Mem=2GB
# td=(NStates=1) B3LYP/6-31G(d,p) 

TD

0 1
 6  12.13620796339634  0.46342694319432 -0.85638175707571
 6 -12.10195250935094 -0.12910795239524  0.86841602050205
 6  13.32100151285129 -0.26467612761276 -0.82955895489549
 6 -13.21511801170117  1.00308469997000  1.17243795819582
 6  13.06916923112311 -1.79941561396140 -0.65914767356736
 6 -13.51398599469947  1.86508502060206 -0.07926755965597
 6  10.98703049694969 -0.09218495399540  0.19346688448845
 6 -11.03739140694069  0.42238212051205 -0.11878951375138
 6  12.41029546694669 -2.18408070207021  0.63780775707571
 6 -12.26322620522052  2.56941724992499 -0.69591792769277
 6  11.21662137013701 -1.22946500100010  0.85031159955996
 6 -11.07031182538254  1.62636825862586 -0.83124199789979
 6  11.52098268596860  0.14740586568657 -2.30477895649565
 6  12.35738915231523  1.98625268036804 -0.55072659165917
 6 -12.78561615241524 -1.36831395009501  0.18557238713871
 6 -11.50687955595560 -0.60265343894389  2.20017816601660
 6  9.93503156575658  0.82040815441544  0.43801580208021
 6 -9.92271207810781 -0.61153369546955 -0.21769585738574
 6  10.21030520682068 -1.83380319201920  1.80831346624662
 6 -10.10219318951895  1.97935967506751 -1.82440390529053
 6  8.57464370407041  0.55271522772277  0.38899710591059
 6 -8.58446140454045 -0.24504436973697 -0.29340566346635
 6  7.45478404660466  1.40723952425243  0.55289790239024
 6 -7.38862775667567 -1.18605708080808 -0.43749414631463
 6  7.72581563126313  2.88690132733273  0.72276471347135
 6 -7.83519070727073 -2.62794280538054 -0.76679395699570
 6  6.17635153665367  0.81227561656166  0.48308046704670
 6 -6.14722333223322 -0.68768959155916 -0.25671778347835
 6  4.95421607230723  1.48715104700470  0.66463612261226
 6 -5.00042965476548 -1.50222620042004 -0.46192757435744
 6  3.76488520012001  0.79935750095009  0.32251420072007
 6 -3.76458184338434 -0.95467610031003 -0.17012945064506
 6  2.39855315671567  1.29438014571457  0.49005349324932
 6 -2.55128412781278 -1.66621167986799 -0.32900618071807
 6  2.23211758335834  2.77495686218622  0.68092246554655
 6 -2.61203174857486 -3.12822634913491 -0.69202055215522
 6  1.22243379187919  0.55316665826583  0.24797971497150
 6 -1.34658283138314 -1.06973554555456 -0.15809451455145
 6  1.13250762296230 -0.87307225442544 -0.06114363406341
 6  0.05148568816882 -1.54337057685769 -0.27889164516452
 1  14.14695480128013 -0.10431800230023  0.02503054595460
 1  14.13278029182918  0.00399202350235 -1.48561209960996
 1 -12.67684404940494  1.59675206540654  1.98882244704470
 1 -14.07094795239524  0.32935242754275  1.66349278737874
 1  14.14809543154315 -2.44422524022402 -0.69429287508751
 1  12.43006888858886 -2.21382528252825 -1.58941506480648
 1 -14.09709309750975  2.72023538353835  0.04251528912891
 1 -14.02241702550255  1.07152682688269 -0.69579360146015
 1  13.02812477627763 -2.20683318991899  1.62224410641064
 1  12.12201965646565 -3.39899359145915  0.65497235283528
 1 -12.04386417851785  3.44978269896990  0.03336985398540
 1 -12.57964417831783  2.89543305110511 -1.66321022222222
 1  11.31955532603260 -0.90878395569557 -2.29136726942694
 1  12.16707358805881  0.56598125942594 -3.19025559955996
 1  10.56411398269827  0.59747285898590 -2.46267698719872
 1  12.89683063716372  2.06772367426743  0.52466980748075
 1  11.42028043494349  2.59219913081308 -0.75175933293329
 1  13.16141799809981  2.38694896479648 -1.25482775387539
 1 -13.26208543924392 -1.20765477447745 -0.85639173987399
 1 -13.40370254285429 -1.53971977617762  1.07716493719372
 1 -12.19346694989499 -2.17656606150615 -0.04815069756976
 1 -10.85061755265527  0.31141550215021  2.49188884798480
 1 -10.84126065146515 -1.48337933863386  2.28739275547555
 1 -12.30393445744574 -0.81850631853185  2.98905743384338
 1  10.04307771437144  2.02663752385239  0.50858676657666
 1 -10.16459090379038 -1.60110522052205 -0.26083246124612
 1  9.44577865536554 -1.17738533323332  2.33706746434643
 1  10.64467528162816 -2.26622282018202  2.64055548554855
 1  9.39700176737674 -2.53960381038104  1.43037265886589
 1 -9.58572560786079  1.23890620322032 -2.20993349024902
 1 -9.20318512341234  2.68415193719372 -1.36559660586059
 1 -10.66740700570057  2.48469347474747 -2.55557553085309
 1  8.45425101590159 -0.56325710591059  0.27350039963996
 1 -8.39037243244324  0.79572376647665 -0.09830348284829
 1  8.78178141024103  2.99867490339034  1.33142252475248
 1  6.71707358805881  3.34456216041604  1.11640422012201
 1  8.07435167286729  3.25945460746075 -0.28370159305931
 1 -8.68841979417942 -2.59453651275127 -1.47174386798680
 1 -8.34197518581858 -3.13443663096310  0.02494863416342
 1 -6.94887944054405 -3.20980363166317 -0.94244312951295
 1  6.09472033653365 -0.26367159395940  0.31224920822082
 1 -6.01730371497150  0.30323226172617 -0.08001827862786
 1  4.78332168946895  2.66727517161716  0.97451035783578
 1 -4.98726882718272 -2.54985850225022 -0.93388552965297
 1  3.98129839653965 -0.22451702160216  0.39592923132313
 1 -3.77031466266627  0.07036336623662  0.35910404370437
 1  2.56994769416942  3.20152054815482  1.77514616991699
 1  1.18160536133613  3.06667739953995  0.25924565206521
 1  2.81102816161616  3.33609408290829 -0.03877784738474
 1 -3.19821169076908 -3.27475583148315 -1.66050106090609
 1 -2.84063566936694 -3.65194718761876  0.22002665406541
 1 -1.60730170147015 -3.36622695709571 -1.09340156655666
 1  0.30914331513151  1.30884679987999  0.28873951915192
 1 -1.29194028262826 -0.21019303210321  0.16977925182518
 1  2.07447599209921 -1.36557560726073 -0.25193475767577
 1  0.02965347614761 -2.69474451675168 -0.39852071297130

