%nproc=4
%Mem=2GB
# td=(NStates=1) B3LYP/6-31G(d,p) 

TD

0 1
 6  12.06617095969597  0.51281188168817 -0.84200031893189
 6 -12.08740105420542  0.01838679707971  0.81184036293629
 6  13.42703211591159 -0.29349900990099 -0.73121912091209
 6 -13.05722222212221  1.13791818331833  1.23241395579558
 6  13.21378369256926 -1.79787545994599 -0.57871963076308
 6 -13.47647224332433  1.99665817791779 -0.00276990989099
 6  11.02993478737874 -0.02217795329533  0.12871040884088
 6 -11.00990865866587  0.47534741704170 -0.21292892769277
 6  12.35161959935994 -2.15195748974898  0.66962093839384
 6 -12.18364824742474  2.56367667586759 -0.60521885778578
 6  11.19613932193219 -1.20559261376138  0.83088965736574
 6 -11.02912770697070  1.61713733553355 -0.88848772247225
 6  11.59471005870587  0.62462358745875 -2.27838631723172
 6  12.55035844924492  1.92315637073707 -0.35399691869187
 6 -12.83130072087209 -1.11028814751475  0.17847167706771
 6 -11.50655952395240 -0.60204337793779  2.15895404360436
 6  9.83957201980198  0.80281639523952  0.34583658415842
 6 -9.99975978287829 -0.54705724782478 -0.30813490129013
 6  10.15621979827983 -1.75375518721872  1.75211784668467
 6 -9.96658962916292  2.08458019711971 -1.75264672957296
 6  8.53535977567757  0.48687864406441  0.33193139933993
 6 -8.62253521192119 -0.35989585488549 -0.23038936183618
 6  7.41998056625663  1.37211601190119  0.46417903050305
 6 -7.55468436233623 -1.39476795189519 -0.39006940384038
 6  7.70528357805781  2.84874751195120  0.80754319131913
 6 -7.90387757595760 -2.74705471657166 -0.59300657825783
 6  6.14498840034003  0.81921631063106  0.43363552255226
 6 -6.28057666756676 -0.87561838443844 -0.35371748344834
 6  4.83912456315632  1.41839417131713  0.55859551855186
 6 -5.07073668546855 -1.56377235503550 -0.36528791039104
 6  3.69765847744775  0.72656022122212  0.32528447774777
 6 -3.78596398159816 -1.04248488118812 -0.22330476817682
 6  2.38205150655065  1.31043175087509  0.43173766166617
 6 -2.52290128952895 -1.81830688938894 -0.32429570967097
 6  2.12075644724472  2.85742510901090  0.59977435073507
 6 -2.56915746114611 -3.37120064656466 -0.58790014011401
 6  1.24610615911591  0.48689003060306  0.16757167416742
 6 -1.30948912201220 -1.18273684568457 -0.11928063316332
 6  1.23221759395940 -0.91202614981498 -0.14823234293429
 6  0.10219075867587 -1.67380362016202 -0.24455821182118
 1  13.99742984878488  0.00910333983398  0.08392643554355
 1  14.10096711051105 -0.10896927262726 -1.69087262566257
 1 -12.50249661466147  1.79424181438144  1.92783634843484
 1 -13.92392324992499  0.63129262156216  1.81517795589559
 1  14.20581120312031 -2.27700851855186 -0.63533697949795
 1  12.66993287498750 -2.26802070207021 -1.40012613591359
 1 -14.37010039823982  2.68491185118512  0.23636467406741
 1 -13.96953173697370  1.49621929612961 -0.87001102320232
 1  13.02684464826483 -2.01499400600060  1.55847772977298
 1  11.97860531503150 -3.19342303440344  0.52276913251325
 1 -11.84513430553055  3.43695141584158 -0.07562104510451
 1 -12.45394160806081  3.18095160296030 -1.46939084028403
 1  11.22287565806581 -0.33919699699970 -2.78874700740074
 1  12.38810569126913  1.06993165446545 -2.83199977397740
 1  10.59568714001400  1.30695380708071 -2.13274399389939
 1  12.97428838293829  2.02866976887689  0.78931627212721
 1  11.61281968886889  2.67459737063706 -0.32382653965397
 1  13.16690854715472  2.33761403130313 -1.12487475857586
 1 -13.65419465016502 -0.59301331033103 -0.64975107580758
 1 -13.34216638923892 -1.56794259845985  0.87272449314931
 1 -12.22128973217322 -1.89300770567057 -0.31358724122412
 1 -10.96933942484248  0.08620298089809  2.73885354445445
 1 -10.83908043344334 -1.50350135083508  1.87395141134113
 1 -12.52566663066307 -0.76620108800880  2.85452398049805
 1  9.86292969956996  1.80800566066607  0.51749765766577
 1 -10.22895734043404 -1.58039314931493 -0.50078645664566
 1  9.52550662816282 -1.00939853455346  2.13067682528253
 1  10.53576439053905 -2.33354955285529  2.48218964896490
 1  9.57600966816682 -2.47129697969797  1.06034565616562
 1 -9.40882791809181  1.32531484408441 -2.18860135703570
 1 -9.41589639453945  3.05882940494049 -1.30014006020602
 1 -10.37233749874988  2.67160216561656 -2.69645961926193
 1  8.27854344514451 -0.58451923212321 -0.29739669006901
 1 -8.31623501870187  0.59153334743474  0.03647999549955
 1  8.71531476357636  2.80164520042004  1.39995937843784
 1  6.81444332503250  3.47738544274427  1.35175775547555
 1  8.07047128482848  3.42899156115612 -0.04989821272127
 1 -8.27925887808781 -2.84551161026103 -1.62141883548355
 1 -8.62758374667467 -2.97445063236324  0.19301544084408
 1 -6.84124867746775 -3.52483513481348 -0.43712259745975
 1  6.01760262476248 -0.31795702250225  0.28706668996900
 1 -6.29110109470947  0.31117305580558 -0.31880215701570
 1  4.57008036533653  2.59091753585359  0.65579848664867
 1 -5.16800690099010 -2.63190670707071 -0.51494363546355
 1  3.95807607430743 -0.21653622352235  0.06197583598360
 1 -3.57544517571757  0.10843717361736  0.10990912421242
 1  2.56772747214722  3.20738113421342  1.62512116741674
 1  1.08474567536754  2.92694342614261  0.43269299679968
 1  2.98391545034503  2.99531000450045 -0.28837280688069
 1 -2.86842871247125 -3.80914927082708 -1.50402541334133
 1 -3.07263886968697 -3.97297929082908  0.20394504590459
 1 -1.46601757305731 -3.96424675907591 -0.56208843524352
 1  0.40454285508551  1.08727464266427  0.10096074127413
 1 -1.37486857545755 -0.23477549034904  0.27735000890089
 1  2.08343688818882 -1.46483553325332 -0.13456302050205
 1  0.05613612441244 -2.60491553385338 -0.57954881578158

