%nproc=4
%Mem=2GB
# td=(NStates=1) B3LYP/6-31G(d,p) 

TD

0 1
 6  12.15544988758876  0.54452505300530 -0.57464358325833
 6 -12.04752706680668  0.05426038443844  1.00261944084408
 6  13.48443785648565 -0.25594525452545 -0.41953795279528
 6 -12.83133963386339  1.26511090259026  1.51424213861386
 6  13.14245655985598 -1.82529820222022 -0.39310106890689
 6 -13.20818541464146  2.18480699279928  0.32739310641064
 6  10.94049584348435  0.07081134563456  0.23248078587859
 6 -10.86845451325132  0.46555643794379  0.00744310951095
 6  12.28519295669567 -2.12878517251725  0.79741371767177
 6 -11.96692657525752  2.62193250145014 -0.42460079597960
 6  11.05966567456746 -1.14987704220422  0.84886145454545
 6 -10.92661745594559  1.63570919271927 -0.74968384208421
 6  11.72537312501250  0.60372149724972 -2.13868234683468
 6  12.60782419581958  2.04676873197320 -0.19083060206021
 6 -13.05586317711771 -1.00122724142414  0.41180501040104
 6 -11.26501536953695 -0.47559073267327  2.23219136733673
 6  9.84164222682268  0.90509662326233  0.47940994149415
 6 -9.91215102200220 -0.55496803890389 -0.31911599939994
 6  9.99519369566957 -1.62463227492749  1.88572120702070
 6 -9.94846781698170  2.00892263136314 -1.82110357525753
 6  8.55267150685068  0.51535149134913  0.30689889608961
 6 -8.53417637603760 -0.38761862716272 -0.25497182008201
 6  7.30840940914091  1.37651645194519  0.36419903250325
 6 -7.57154604850485 -1.42161063616362 -0.51242163906391
 6  7.45272832253225  2.83804644184418  0.54566700370037
 6 -7.96485367356736 -2.81647165826583 -0.88667594519452
 6  6.09212311381138  0.68064245324532  0.36488864786479
 6 -6.25445405530553 -1.10829165176518 -0.38176028772877
 6  4.74394504520452  1.36858919081908  0.37751741074107
 6 -5.03452306410641 -1.82028800660066 -0.50672205380538
 6  3.62570128172817  0.75989355455546  0.16681863116312
 6 -3.80088547374737 -1.36544717741774 -0.41058349604960
 6  2.28765206660666  1.33358406610661  0.10380486838684
 6 -2.54992399179918 -1.96077113581358 -0.51196447654765
 6  2.18947331893189  2.71196056255626  0.41538591189119
 6 -2.41357190259026 -3.40538406490649 -0.70046139623962
 6  1.15993754225423  0.54846618821882 -0.08672375537554
 6 -1.39603777687769 -1.18043661566157 -0.34627333243324
 6  1.09121349354935 -0.84427937513751 -0.38398591829183
 6  0.01008154775478 -1.64723096289629 -0.42555631163116
 1  13.88460856665667 -0.14313188368837  0.74560260316032
 1  13.97547456125613  0.02202382668267 -1.25252879127913
 1 -12.44473083808381  1.78927131733173  2.21218478327833
 1 -13.68313917151715  0.91100059235924  2.07918435653565
 1  14.25186580858086 -2.32222304000400 -0.35292873867387
 1  12.82291817351735 -2.20482438243824 -1.54097022032203
 1 -13.54755814401440  3.21353471347135  0.65096613421342
 1 -14.07302208600860  1.42714238843884 -0.29651367346735
 1  12.86189815361536 -2.13471597819782  1.70184206620662
 1  11.84118157265727 -3.22486617871787  0.54045090069007
 1 -11.47498729082908  3.40947866856686  0.19364588158816
 1 -12.45354156805681  3.10576408420842 -1.42569647084708
 1  11.46603997449745 -0.41813489078908 -2.39581771447145
 1  12.66163304400440  0.91263592489249 -2.89359593359336
 1  10.81633920522052  1.27595070677068 -2.31245196469647
 1  12.59891084518452  2.09996689858986  0.85741308180818
 1  11.77553596049605  2.84765467636764 -0.55191934893489
 1  13.49495135143514  2.31834210411041 -0.85067733883388
 1 -13.52075130583058 -0.55941995099510 -0.43006910761076
 1 -13.94964713731373 -0.90821662586259  1.06196341704170
 1 -12.48066566976698 -1.80007841274127 -0.01671755425543
 1 -10.27098958985899 -0.03513915331533  2.61213087218722
 1 -10.82173869926993 -1.31087208790879  1.85056907310731
 1 -12.03105716971697 -0.81204567246725  2.91480000810081
 1  9.88659206580658  1.90490535063506  0.76053196109611
 1 -10.29471391609161 -1.61514662466247 -0.40765714371437
 1  9.34489856735674 -0.82634022872287  2.40223398099810
 1  10.43265407950795 -1.79248544644464  2.67237866786679
 1  9.38249031623162 -2.51725157515752  1.45246486808681
 1 -9.43356039133913  1.15467778037804 -2.11361385828583
 1 -9.22706751165116  2.86222974497450 -1.39707975417542
 1 -10.49751001600160  2.37578258365837 -2.66417639093909
 1  8.20156574737474 -0.37025780598060 -0.04501145154515
 1 -8.37278067326733  0.69499369346935 -0.14301795429543
 1  7.97253048514852  2.78701373727373  1.56419580208021
 1  6.62034391509151  3.43214091829183  0.62210479017902
 1  8.26164040174018  3.22116077807781 -0.10113333623362
 1 -8.66084703690369 -2.61777883698370 -1.68172486608661
 1 -8.51823281158116 -3.32800598789879 -0.00706456715672
 1 -7.03529808240824 -3.45355800710071 -1.06518540374037
 1  6.14568543304330 -0.40808603540354  0.19298728202820
 1 -5.89673165776578 -0.01218928042804 -0.04685496229623
 1  4.76452981028103  2.44389283338334  0.59194210101010
 1 -5.17235733603360 -2.90479399579958 -0.48397053815382
 1  3.39533980068007 -0.41439600950095  0.04964460286029
 1 -3.49284691589159 -0.14820849094909 -0.22318418511851
 1  2.51534223362336  3.12206260236024  1.39460811611161
 1  1.17965516631663  3.05466619841984  0.31977170467047
 1  2.55521258005801  3.49968044154415 -0.39203317291729
 1 -2.69399126872687 -3.65320367626763 -1.75286029682968
 1 -3.11951355715572 -3.90373236613661 -0.09503485208521
 1 -1.39776074737474 -3.92085241964196 -0.49661188758876
 1  0.28318071887189  1.32050796599660 -0.12634198899890
 1 -1.63037412601260 -0.10085209800980 -0.07573529962996
 1  2.07759630413041 -1.34591364106411 -0.57522708690869
 1 -0.01393088228823 -2.62211725402540 -0.65443630453045

