%nproc=4
%Mem=2GB
# td=(NStates=1) B3LYP/6-31G(d,p) 

TD

0 1
 6  12.17610195279528  0.65283588408841 -0.67433355225523
 6 -12.16662897699770  0.06910186858686  0.82684186308631
 6  13.52189160186019 -0.19198885888589 -0.34772077107711
 6 -12.93804030393039  1.27648203970397  1.42330304470447
 6  13.28707102130213 -1.73959963236324 -0.46866862566257
 6 -13.32992758885888  2.17507601970197  0.22718308540854
 6  11.03593538743874  0.04485875037504  0.11126866466647
 6 -11.04595226302630  0.33086296859686 -0.20036767156716
 6  12.34969940734073 -2.05968826282628  0.62089606590659
 6 -12.07202708530853  2.77763807200720 -0.49777811371137
 6  11.13091279927993 -1.12399445394539  0.77511407980798
 6 -11.04903969816982  1.57594321612161 -0.76467534123412
 6  11.81249183688369  0.68166929202920 -2.13832231083108
 6  12.52194560796080  2.04070812591259 -0.15492701170117
 6 -13.06613420422042 -0.99687680638064  0.16241007090709
 6 -11.54998386638664 -0.72789596319632  2.05458360656066
 6  9.85288335093509  0.91234734833483  0.44114611511151
 6 -9.90251005790579 -0.60719326142614 -0.47098118591859
 6  10.19305348164816 -1.71948175987599  1.78439107400740
 6 -9.98311128132813  1.91432317141714 -1.84477594249425
 6  8.63519975967597  0.40820077627763  0.27691589778978
 6 -8.59862282068207 -0.32656252155216 -0.15087141004100
 6  7.46200476867687  1.15639443974397  0.38611122372237
 6 -7.51715060896090 -1.34382285738574 -0.35489588648865
 6  7.57057010671067  2.73094573177318  0.57109954695470
 6 -7.88063525172517 -2.71422143324332 -0.60936821442144
 6  6.18452235373537  0.65994038303830  0.25647780678068
 6 -6.21880048994900 -0.91018184078408 -0.17263937563756
 6  4.83484413511351  1.30434276617662  0.17000665966597
 6 -4.99768938073807 -1.66187216501650 -0.29690107170717
 6  3.66387509910991  0.67631519671967 -0.04328237893789
 6 -3.78833421862186 -1.04877551025103 -0.18550098779878
 6  2.32941624302430  1.19023973167317  0.24331881978198
 6 -2.54364336373637 -1.79556461516152 -0.31067434753475
 6  2.19981435303530  2.57205657215722  0.62455682898290
 6 -2.65909645504550 -3.34762828932893 -0.61362271237124
 6  1.21012256075608  0.48845018661866  0.09088400540054
 6 -1.39593776687669 -1.12324089608961 -0.23068177327733
 6  1.05244961716172 -0.96420136733673 -0.23938145784578
 6 -0.06390585098510 -1.61351759155916 -0.31392514851485
 1  13.85252535833583  0.17059948944895  0.55873391629163
 1  14.23207022082208  0.15764738903890 -1.03735727412741
 1 -12.37764412941294  1.69625201540154  2.10759432423242
 1 -13.85093595119512  0.96950644294429  1.95683212131213
 1  14.39047966996700 -2.22940375807581 -0.55432887868787
 1  12.81802768446845 -2.02814671467147 -1.27568369166917
 1 -13.97805119331933  3.04266762676268  0.58428946654665
 1 -13.89218400220022  1.72897257145715 -0.58082210431043
 1  12.98685064886489 -1.97747025362536  1.53449533153315
 1  11.75708316281628 -3.04756844894489  0.45222207780778
 1 -11.53639343144314  3.53514123482348  0.04571108810881
 1 -12.34762097599760  3.14757826562656 -1.27362126332633
 1  11.63904727522752 -0.40932400970097 -2.44758289098910
 1  12.54745162586259  1.10319498079808 -2.73344991899190
 1  10.85336290759076  1.15465857755776 -2.59559027852785
 1  12.84931588568857  2.10153705560556  0.88488582908291
 1  11.65093350025002  2.79657956885689 -0.29522367936794
 1  13.31588344464446  2.47587785768577 -0.92645491659166
 1 -13.64968419911991 -0.71847585658566 -0.73896999769977
 1 -13.88008018061806 -1.26073187738774  1.03667088778878
 1 -12.54312191539154 -1.75993439833983 -0.11160704320432
 1 -10.67529001990199 -0.23787942734273  2.54595425452545
 1 -11.07703422882288 -1.72111311201120  1.91267528372837
 1 -12.37506157015702 -0.85090955885589  2.85971449954995
 1  9.96495990259026  1.96835169526953  0.64756066396640
 1 -10.24545899059906 -1.79140425042504 -0.74846122412241
 1  9.70989506700670 -0.83075066976698  2.33697745534553
 1  10.68274908900890 -2.22655885378538  2.60992242224222
 1  9.15649771697170 -2.32289213921392  1.45516513811381
 1 -9.31464850015001  0.95463777637764 -2.13206570347035
 1 -9.37279208410841  2.67690121212121 -1.66881692789279
 1 -10.35430569556956  2.22563756915692 -3.01341131443144
 1  8.22016760756076 -0.48140892109211 -0.04187113751375
 1 -8.22244563976398  0.67078127222722  0.08753510101010
 1  8.40716394849485  2.84769980588059  1.27182656515652
 1  6.61323320402040  3.21917962216222  1.04556713641364
 1  7.93096733443344  3.26137479947995 -0.53278650155016
 1 -8.76287723992399 -2.56992405150515 -1.52852954655466
 1 -8.57459844814481 -3.21969515681568  0.18736487578758
 1 -7.10988554115412 -3.43901655295530 -0.68605749094909
 1  6.11758262276228 -0.26765199199920 -0.08933094979498
 1 -6.29647163176318  0.23820575907591 -0.07303758055806
 1  5.02716607390739  2.30233867796780  0.36010891769177
 1 -5.18760886118612 -2.63406692309231 -0.66256839793979
 1  3.71229149584959 -0.39790436033603 -0.20785114671467
 1 -3.64852248344834  0.05823215311531  0.13063119641964
 1  2.62946364576458  2.95782617871787  1.59406806210621
 1  1.09854705550555  2.73046377817782  0.88145787328733
 1  2.47186424522452  3.28583905740574 -0.12773674327433
 1 -2.76307817741774 -3.43478183408341 -1.79427443824382
 1 -3.45377698349835 -3.77916990989099 -0.06678202680268
 1 -1.57925889718972 -4.11016135053505 -0.45110733713371
 1  0.23995639643964  0.97058297349735  0.14261490669067
 1 -1.48580966956696 -0.04821683448345  0.10934320822082
 1  2.01568011251125 -1.39036808650865 -0.60919048324832
 1 -0.09572906210621 -2.65315035733573 -0.45459632053205

