%nproc=4
%Mem=2GB
# td=(NStates=1) B3LYP/6-31G(d,p) 

TD

0 1
 6  12.15253959655966  0.44757535803580 -0.94163028192819
 6 -12.05519783388339 -0.08053309490949  0.86177535643564
 6  13.42821223392339 -0.38761842184218 -0.87682368136814
 6 -13.14729122902290  1.09905429692969  1.27636835123512
 6  13.13368568276828 -1.93182885528553 -0.63182494129413
 6 -13.56531112721272  1.96215472757276  0.00077044414441
 6  11.05826762066207 -0.01132686818682  0.20095763356336
 6 -10.99208687648765  0.47154703700370 -0.15575321012101
 6  12.37074151155116 -2.11953424742474  0.65064904120412
 6 -12.26396627922792  2.61354166236624 -0.53689202510251
 6  11.26069577757776 -1.14590664516452  0.94492106050605
 6 -11.11354614881488  1.61194681648165 -0.81656052975298
 6  11.43289387708771  0.38839996509651 -2.31618009660966
 6  12.54375778917892  1.98098215331533 -0.60487200620062
 6 -12.93140073087309 -1.29492661136114  0.16147997789779
 6 -11.36336520452045 -0.82103527712771  2.02793094129413
 6  9.91552961556156  0.85021113471347  0.42355435593559
 6 -9.94052385928593 -0.54256679877988 -0.47699178697870
 6  10.39696387268727 -1.48581839353935  2.17105974087409
 6 -10.14373734393439  2.10216195529553 -1.90764222912291
 6  8.60411665136514  0.51314127032703  0.38899710591059
 6 -8.64334729312931 -0.22207207250725 -0.23624994789479
 6  7.44287285548555  1.36108490879088  0.65017763036304
 6 -7.48995788968897 -1.18135661076108 -0.32073247014701
 6  7.61606465616562  2.80857349454945  0.90226266326633
 6 -7.91129831803180 -2.62910292139214 -0.49904718231823
 6  6.21892579407941  0.71697608660866  0.47686984598460
 6 -6.19604821472147 -0.70301112371237 -0.16966907860786
 6  4.90269091979198  1.37654998689869  0.52213187218722
 6 -5.01423103490349 -1.59263524132413 -0.36320770237024
 6  3.74074278587859  0.60462802800280  0.38113006230623
 6 -3.77126251145115 -1.08217885058506 -0.26897933563356
 6  2.39090239163916  1.21442214991499  0.36127061496150
 6 -2.55232423182318 -1.72326738543854 -0.49230251035103
 6  2.27157152875288  2.74810417691769  0.62071644494449
 6 -2.57599814521452 -3.29502302880288 -0.68034938503850
 6  1.24719626812681  0.50004134573457  0.14420933793379
 6 -1.34769294239424 -0.99535810781078 -0.31858056315632
 6  1.11332570477048 -0.87247219441944 -0.21319883958396
 6 -0.09658911931193 -1.48852509230923 -0.39618337433743
 1  13.85423552935294  0.04190662016202 -0.10784274137414
 1  14.11153816761676 -0.16750512621262 -1.68727226562656
 1 -12.64246061106111  1.75305769596960  1.94418798359836
 1 -13.89794065166517  0.48205769806981  1.70962740084008
 1  14.13282390439044 -2.37848866656666 -0.64254770057006
 1  12.49351523322332 -2.42778667866787 -1.28825494879488
 1 -14.13589697789779  2.82507586758676  0.42065310291029
 1 -14.24395917971797  1.52042171637164 -0.69961398349835
 1  13.07192915671567 -2.17618012461246  1.55664754675468
 1  12.02023947844785 -3.30802449454945  0.71377823342334
 1 -12.14940473257326  3.33745146584658  0.30847736473647
 1 -12.72563877777778  3.08723223102310 -1.33425732693269
 1  11.18755212571257 -0.76939001630163 -2.64252238493849
 1  12.19045592629263  0.83767842914291 -3.19914648864887
 1  10.51508908020802  0.91262437413741 -2.36143686318632
 1  12.65667662176218  2.19453635553555  0.46220356085609
 1  11.62267067396740  2.71942185308531 -0.90701485848585
 1  13.57089894619462  2.36506677657766 -1.06529880098010
 1 -13.42202143284328 -0.82658666766677 -0.76005210591059
 1 -13.61410358295830 -1.48675447964796  0.96500372107211
 1 -12.45262286548655 -2.33370177507751 -0.00438632113211
 1 -10.83649614051405 -0.15178081748175  2.66147580668067
 1 -10.84738126352635 -1.64601560226023  1.57475149134914
 1 -11.99781384538454 -1.37960242814281  2.79968849694969
 1  10.26132953955396  1.86417127722772  0.50351625952595
 1 -10.17885232993299 -1.57250236023602 -0.39565594359436
 1  9.65560963846385 -0.51713930863086  2.49295305290529
 1  10.96234704880488 -1.83672987088709  3.12453388338834
 1  9.59374144134413 -2.35744559455946  1.94001362296230
 1 -9.80293732903290  0.97235954855486 -2.27632012891289
 1 -9.32748755365536  2.87008053005300 -1.51662170837084
 1 -10.74252451745175  2.55964096949695 -2.64690466376638
 1  8.47588317911791 -0.61441222142214  0.41248429802980
 1 -8.35780917611761  0.82773696779678 -0.16467011951195
 1  8.06814004610461  2.82901793769377  1.77465684818482
 1  6.69597147784778  3.28036574077408  1.17180976067607
 1  8.10313455115512  3.19167782978298 -0.12156537943794
 1 -8.41362231443144 -2.86659371847185 -1.46749344294429
 1 -8.48303929222922 -2.93545673297330  0.35294143344334
 1 -6.75937048964897 -3.01554420572057 -0.59577846304630
 1  6.23734459895990 -0.34876010281028  0.09929791309131
 1 -5.96043802840284  0.36454839333933  0.24526424962496
 1  4.88681203850385  2.57702614671467  0.93312621942194
 1 -4.93148324862486 -2.65839935633563 -0.72137427852785
 1  3.71978224492449 -0.44226879677968  0.20161980038004
 1 -3.56708433963396  0.05085141504150 -0.11019288598860
 1  2.73615431483148  2.93099349544954  1.66627528282828
 1  1.34009120992099  2.85890662246225  0.68431815931593
 1  2.84593165196520  3.45730620412041 -0.08242221182118
 1 -3.22911478107811 -3.50319867576758 -1.41317632843284
 1 -3.01227283308331 -3.44957695059506  0.34469912131213
 1 -1.32473344464446 -3.31175150955095 -1.05131735813581
 1  0.35147754855486  1.22121803700370  0.35064570977098
 1 -1.71559264786479  0.04292227942794 -0.10754848094810
 1  2.05629417391739 -1.64140319001900 -0.13734329852985
 1 -0.01488097729773 -2.58104314661466 -0.72769363026303

