%nproc=4
%Mem=2GB
# td=(NStates=1) B3LYP/6-31G(d,p) 

TD

0 1
 6  12.15071941454145  0.59100970147015 -0.58844496339634
 6 -12.07078939303930  0.03189814821482  0.91813099199920
 6  13.41636104880488 -0.26660632063206 -0.55649164816482
 6 -12.85068156805681  1.24887927942794  1.38372908730873
 6  13.11755406960696 -1.74887055945595 -0.62880463926393
 6 -13.27792238833883  2.15721423352335  0.15676604370437
 6  11.00948274217422  0.04543880838084  0.32569010681068
 6 -10.93081074887489  0.38302818511851 -0.13687132193219
 6  12.20774521192119 -2.17055934993499  0.53945792209221
 6 -11.97197708030803  2.55081538973897 -0.72193052895290
 6  11.06766647464747 -1.15821787628763  0.79672624102410
 6 -11.08531332553255  1.46828245004500 -0.90825969966997
 6  11.63255384308431  0.60408153325333 -2.09075755435544
 6  12.56079949334934  1.96944099919992 -0.09036055505551
 6 -12.92723031383138 -1.01931905060506  0.27000082998300
 6 -11.37182605060506 -0.54349752335234  2.21733988218822
 6  9.81682974557456  0.85887200080008  0.37714971547155
 6 -9.84759456635664 -0.59281182328233 -0.23012710051005
 6  10.11552572887289 -1.93425323702370  1.75288792369237
 6 -9.98972194239424  1.86015775487549 -1.92680414531453
 6  8.45649188888889  0.57388734493449  0.24081228742874
 6 -8.53881684008401 -0.34461432673267 -0.21267759065907
 6  7.34998356655666  1.38438723902390  0.37271988458846
 6 -7.58276717061706 -1.33499197429743 -0.36735713261326
 6  7.62687573727373  2.87579021622162  0.86114855185519
 6 -7.99803699189919 -2.82622263336334 -0.42201947954795
 6  6.14822872437244  0.83361775077508  0.35011717071707
 6 -6.26211482138214 -0.94829565216522 -0.28846095779578
 6  4.83126377707771  1.47346967886789  0.41398105710571
 6 -5.05440505230523 -1.69962594039404 -0.34777615921592
 6  3.69296800840084  0.68623618881888  0.09011096039604
 6 -3.77885327052705 -1.17544817751775 -0.11412385008501
 6  2.41245454685469  1.31299200690069  0.17935242314231
 6 -2.48605760516052 -1.91327638633863 -0.39550283038304
 6  2.17949232083208  2.76730609710971  0.44816919021902
 6 -2.56833737913791 -3.32041556805681 -0.79973132323232
 6  1.12907445594559  0.52863420502050 -0.00815589858986
 6 -1.46876504960496 -1.10975954795480 -0.23133183828383
 6  1.12030640284028 -0.88103305050505 -0.28573609330933
 6  0.10204074367437 -1.60239647944794 -0.41082483848385
 1  14.09827993379338 -0.15971354185418  0.30026806970697
 1  14.17925493929393  0.09374099839984 -1.35152869126913
 1 -12.35971233623362  1.82976536673667  2.02045561036104
 1 -13.68826968456846  0.92314180648065  1.77538397649765
 1  14.02768339033903 -2.47108792649265 -0.44814826062606
 1  12.48727460916092 -2.04465836583658 -1.64179030233023
 1 -13.82211559975998  3.04724808480848  0.52760379797980
 1 -14.12208699249925  1.72847252145215 -0.53510753285329
 1  12.93833579737974 -2.45920842744274  1.28576045804580
 1  11.68698615311531 -3.17810150225022  0.45511236683668
 1 -11.40351014311431  3.40485820652065 -0.03297678067807
 1 -12.33508972287229  2.97558106590659 -1.60198409960996
 1  11.22969634013401 -0.43606668396840 -2.55901403410341
 1  12.63988086878688  1.02497715901590 -2.67818439243924
 1  10.77799537083708  1.22746585828583 -2.25053577307731
 1  12.84469542364237  1.97307420932093  1.10507784828483
 1  11.72560096699670  2.69602951385139 -0.31972612961296
 1  13.42465432173217  2.26651692159216 -0.75677794889489
 1 -13.53827305800580 -0.53878788778878 -0.43203930463046
 1 -13.72358453105311 -1.22333813801380  0.94206142684268
 1 -12.40758836203620 -1.96285469036904  0.01279539703970
 1 -10.81293378427843  0.27370173077308  2.58288794789479
 1 -10.77588411381138 -1.52165316601660  1.83303731993199
 1 -12.03140720472047 -0.96983145104510  3.02940146824682
 1  10.05425883248325  1.74974983508351  0.73506941484148
 1 -10.27433187788779 -1.68537364736474 -0.07232361036104
 1  9.33263734123412 -1.31118871357136  2.35126888448845
 1  10.68677949204920 -2.56603280118012  2.57046847684768
 1  9.45811787898790 -2.62528237823782  1.06904652625263
 1 -9.28360539583958  1.09865217781778 -2.14581707860786
 1 -9.42771757665767  2.64313783578358 -1.51168121432143
 1 -10.51046131113111  2.53282828822882 -2.70164013731373
 1  8.25157074787479 -0.48871965216522  0.06280933053305
 1 -8.24384777997800  0.76677087118712 -0.31244489698970
 1  8.07249048114812  2.86803183908391  2.01111049354936
 1  6.72969485018502  3.40297800200020  1.12696527622762
 1  8.30306454415441  3.44049271127113  0.11202797989799
 1 -8.40297124932493 -2.69520657975798 -1.47557425102510
 1 -8.55726671497150 -3.27574076137614  0.34307044634463
 1 -7.33266781938194 -3.53262591389139 -0.60733961916192
 1  6.24233509800980 -0.06317154395440  0.03483146644664
 1 -6.01311329592959  0.11733367186719 -0.30402067886789
 1  4.63872723002300  2.50702914701470  0.75861876867687
 1 -5.39097919821982 -2.68561207760776 -0.32513465456546
 1  3.91642190889089 -0.39324389428943 -0.16959732133213
 1 -3.77934556575658 -0.04774844494449  0.24065219851985
 1  2.70094079347935  3.07756815291529  1.35056371167117
 1  1.06053325412541  3.07411814361436  0.56845657315732
 1  2.45209226802680  3.40664113761376 -0.44506847644765
 1 -2.91759362896290 -3.37828618451845 -1.75089009980998
 1 -3.21158276407641 -3.96252824572457 -0.27296264486449
 1 -1.46834780608061 -3.72980331473147 -1.02388461486149
 1  0.18314071487149  1.10773668886889 -0.06295565036504
 1 -1.62665375397540 -0.19145115791579  0.32020429432943
 1  2.10233877837784 -1.21981103080308 -0.22498206240624
 1  0.19180969176918 -2.56195123742374 -0.94778563946395

