%nproc=4
%Mem=2GB
# td=(NStates=1) B3LYP/6-31G(d,p) 

TD

0 1
 6  12.25280962356235  0.50273087358736 -0.66527264616462
 6 -12.09065137923792 -0.07320236183618  0.86212539143914
 6  13.48793820652065 -0.50451011101110 -0.54100009900990
 6 -12.91478797869787  1.15922031353135  1.34986570097010
 6  13.04792710691069 -1.89956562896290 -0.67305906470647
 6 -13.38826342244224  1.92225073717372  0.17534790189019
 6  11.09061085498550  0.00130439493949  0.22937047484748
 6 -10.97335500330033  0.39591947424742 -0.10694832963296
 6  12.09385382278228 -2.25436773077308  0.59643361966197
 6 -12.19219910251025  2.53151345954595 -0.67757609350935
 6  11.05889559755976 -1.18976103060306  0.81761833023302
 6 -11.03721851605160  1.59009463126313 -0.78795766946695
 6  11.68863945164517  0.70881200630063 -2.07836631523152
 6  12.68996240964096  1.89604365946595 -0.19397091609161
 6 -13.06334392519252 -1.16420353905391  0.26268009790979
 6 -11.39065793379338 -0.59080225382538  2.14415256345635
 6  9.84941300390039  0.95029114271427  0.32486448694869
 6 -9.90105991289129 -0.54005654775478 -0.36466055385539
 6  10.03652782908291 -1.69224903660366  1.79829246414641
 6 -10.04343731393139  2.13413515261526 -1.83785525042504
 6  8.57169340904090  0.55491544774477  0.29920812701270
 6 -8.58315127352735 -0.32241210651065 -0.22091841474147
 6  7.42297086528653  1.41800060036004  0.47283989658966
 6 -7.50966986088609 -1.35452392749275 -0.38742913981398
 6  7.60150320002000  2.97934057125713  0.57163960096010
 6 -7.93731091929193 -2.80677068816882 -0.60916819441944
 6  6.25612951445144  0.81618600760076  0.27014917391739
 6 -6.22424103400340 -0.91025184778478 -0.35988810051005
 6  4.85305595629563  1.35594792669267  0.34684434343434
 6 -5.02724233603360 -1.62831880968097 -0.51766314791479
 6  3.73932264386439  0.73813137833783  0.19801175047505
 6 -3.80418580378038 -1.11469210191019 -0.33222566026603
 6  2.35825912731273  1.30614132183218  0.31256574447445
 6 -2.55798479787979 -1.73662872157216 -0.41909518961896
 6  2.25565993759376  2.68334770127013  0.49266363966397
 6 -2.56028657405741 -3.15509903640364 -0.70694204430443
 6  1.25351690019002  0.51961330293029  0.16490140714071
 6 -1.36811498459846 -1.01845041704170 -0.21862056715672
 6  1.14251862406241 -0.90905585278528  0.16965944624462
 6 -0.01809126952695 -1.63300954075408 -0.14163791979198
 1  14.03617372317232 -0.16511408190819  0.32165020792079
 1  14.22759977377738 -0.05911428712871 -1.45495903430343
 1 -12.54536090109011  1.73337572777278  2.01498506330633
 1 -13.77588844644464  0.92950244254425  1.93918035613561
 1  13.92851347334734 -2.49283010071007 -0.58655210101010
 1  12.52166804850485 -2.11461536153615 -1.50594671797180
 1 -13.94649803800380  2.83052641264126  0.46651768936894
 1 -14.01815659945995  1.27894756895690 -0.44844886698670
 1  12.75408737253725 -2.30347285388539  1.57870975297530
 1  11.74361181568157 -3.28862255435544  0.39478633423342
 1 -12.00347013911391  3.42910063076308 -0.05562904590459
 1 -12.61751796569657  2.90726423422342 -1.62717661886189
 1  11.49438280878088 -0.30767384468447 -2.51077921062106
 1  12.31756863756376  1.31528618991899 -2.79565613961396
 1  10.67745531683168  1.11596470817082 -1.90800151965196
 1  12.87168812291229  1.99236613851385  0.88980632113211
 1  12.08904731163116  2.82600251115112 -0.41215537253725
 1  13.73374523082308  2.19735000490049 -0.59245151625163
 1 -13.68737796849685 -1.04702871187119 -0.59969607030703
 1 -13.73487566016602 -1.61701750595059  1.05229244994499
 1 -12.22745034823483 -2.04484288918892  0.10456457395740
 1 -10.81819431033103  0.09779414001400  2.70303996309631
 1 -10.74386091149115 -1.57131813251325  1.99024304050405
 1 -12.28757282128213 -0.90127459535954  2.85003353145315
 1  10.22355576217622  2.04109896999700  0.43252916081608
 1 -10.13411785648565 -1.63957906790679 -0.68093447144714
 1  9.44812889038904 -0.92646024072407  2.35097885548555
 1  10.46321713581358 -2.41899809770977  2.50353178317832
 1  9.39937200440044 -2.31864171417142  1.36898652025203
 1 -9.31295833113311  1.41562387498750 -2.01991448834883
 1 -9.47856266116612  2.92420594259426 -1.35700574677468
 1 -10.59554981998200  2.53128813421342 -2.86373634693469
 1  8.26277186798680 -0.42420320052005  0.30245329492949
 1 -8.27696109130913  0.78996319041904  0.07509385688569
 1  8.15817905000500  3.25637067296730  1.65014439693969
 1  6.73807568826883  3.64403210741074  0.43023560326033
 1  8.26494073177318  3.14114277627763 -0.28537176007601
 1 -8.44351530373037 -2.99239629872987 -1.62451914551455
 1 -8.48950993929393 -3.19424261156116  0.16722286158616
 1 -7.08103265586559 -3.49651230253025 -0.83588247344734
 1  6.17408827332733 -0.44384961176118  0.27664564786479
 1 -6.15032701730173  0.23910584908491  0.09017874107411
 1  4.92499585688569  2.44350279437944  0.32264517131713
 1 -5.04226432673267 -2.66881039743974 -0.51552369346935
 1  3.54620488718872 -0.39547411731173 -0.07551791339134
 1 -3.78200583178318 -0.03983765386539 -0.29101096779678
 1  2.66689738913891  3.05455585168517  1.34965362066207
 1  1.36803400420042  3.08049878167817  0.56591631913191
 1  2.63436049484948  3.19863033653365 -0.31363533313331
 1 -2.90453232283228 -3.36821517741774 -1.62538754955496
 1 -3.21305291109111 -3.92888488138814 -0.15362071067107
 1 -1.51235220652065 -3.79716005040504 -0.68678090449045
 1  0.23299570037004  1.10623653885389  0.08535918111811
 1 -1.58542963156316 -0.05758777157716 -0.27708543464346
 1  2.16766531103110 -1.35323437313731  0.27131756755676
 1  0.06857736853685 -2.63805884818482 -0.30161102200220

