%nproc=4
%Mem=2GB
# td=(NStates=1) B3LYP/6-31G(d,p) 

TD

0 1
 6  11.98063240584058  0.61871247174717 -0.84706082498250
 6 -12.07265958005800  0.01552651105111  0.82116129502950
 6  13.45556496919692 -0.09810947094709 -0.83782978197820
 6 -12.99277577747775  1.18664305580558  1.23380409480948
 6  13.16990930513051 -1.61187686008601 -0.53353511231123
 6 -13.32621721782178  2.20312882498250  0.15019538663866
 6  11.02930472437244  0.05976024052405  0.13852138993899
 6 -10.89528719651965  0.52527240954095 -0.09313694849485
 6  12.42468690609061 -1.86910920492049  0.79543351965197
 6 -12.02515239783978  2.76517682588259 -0.46294463036304
 6  11.20078978697870 -1.03810586508651  0.96986355475548
 6 -10.95538033223322  1.70518614041404 -0.65308418211821
 6  11.32722331003100  0.38930005510551 -2.22395087368737
 6  12.25203861726173  2.09598365346535 -0.58258977797780
 6 -12.94852244304430 -0.92488960766077 -0.08002417251725
 6 -11.31472034003400 -0.72133530713071  1.96489463766377
 6  9.81768983158316  0.83604971857186  0.41954395489549
 6 -9.83778358525852 -0.50020256235624 -0.32765685348535
 6  10.30381455775577 -1.46926673837384  2.07308994389439
 6 -9.95324829502950  2.19067080618062 -1.62742420732073
 6  8.49336557625763  0.38181813801380  0.32069027522752
 6 -8.49276223462346 -0.34458432373237 -0.21898822172217
 6  7.33034160236024  1.31872067236724  0.46187880048005
 6 -7.50928982288229 -1.26464493959396 -0.32385278217822
 6  7.49364241394139  2.72051468866887  0.57641007800780
 6 -8.01065825402540 -2.63561357245725 -0.88349562716272
 6  6.13185708720872  0.63484787378738  0.39696185518552
 6 -6.17028563846385 -0.91033185578558 -0.35413752545255
 6  4.84885553625362  1.28135046694669  0.42184184318432
 6 -5.04125373717372 -1.71239721752175 -0.36698808040804
 6  3.72164087568757  0.54031159635964  0.27759970927093
 6 -3.74123950915092 -1.28313894659466 -0.24204664236424
 6  2.44395769716972  1.11491219891989  0.36439092699270
 6 -2.50226922632263 -1.99036409510951 -0.31968524862486
 6  2.24612898449845  2.61130049654965  0.66448082138214
 6 -2.56298684408441 -3.48699222572257 -0.60770212031203
 6  1.25914746324632  0.37318866046605  0.25747066406641
 6 -1.37687586068607 -1.32568114011401 -0.27495620072007
 6  1.10115448764876 -0.98567351455146 -0.01328884858486
 6 -0.01122058245825 -1.77514375417542 -0.25203895989599
 1  14.17334744054405  0.34175660516052 -0.09149110621062
 1  13.88005501930193  0.24237586188619 -1.76141968036804
 1 -12.62453881888189  1.76956934713471  2.04178774357436
 1 -13.89305016261626  0.76700619291929  1.54265070317032
 1  14.20956157815782 -2.07438825652565 -0.35027847364737
 1  12.56874275597560 -2.04118801880188 -1.44657078037804
 1 -13.95402879107911  2.85216857685769  0.62922395999600
 1 -14.00384516831683  1.81344101830183 -0.72421644374437
 1  13.22342430623062 -1.74493700030003  1.63076495849585
 1  12.23493094759476 -3.04905859795980  0.88518537413741
 1 -11.75546533863386  3.63928164886489  0.27093361036104
 1 -12.47648386228623  3.18601210901090 -1.33068696989699
 1  11.50757412791279 -0.75703878117812 -2.52451058375838
 1  11.86660354105410  0.80801546284629 -3.03331990599060
 1  10.19438701000100  0.78453156485649 -2.30744146364637
 1  12.44253520762076  2.17998490039004  0.55654299479948
 1  11.39108751565156  2.86442635353535 -0.82752690969097
 1  13.10449230553055  2.46666693659366 -1.18862113321332
 1 -13.39248847954796 -0.39126313531353 -0.83743984468447
 1 -13.73907608020802 -1.18996480068007  0.58998621932193
 1 -12.35141274447445 -1.86688509340934 -0.47080296279628
 1 -10.93873636453645  0.03169753035304  2.51618127722772
 1 -10.85004152955296 -1.52581358205821  1.69505352155216
 1 -12.35264932893289 -0.89622409030903  2.51453998209821
 1  9.99078248484848  2.00421528162816  0.59091499939994
 1 -10.27204164886489 -1.48578368836884 -0.48965534353435
 1  9.34015809330933 -0.84813240794079  2.38844260186019
 1  10.78653946804680 -1.71999819771977  3.09248067806781
 1  9.89282134933493 -2.61013086308631  1.72525214681468
 1 -9.23414044934493  1.37938025062506 -2.08251074797480
 1 -9.26003080798080  2.94973849584959 -1.12534258045805
 1 -10.32941320632063  2.87031203660366 -2.43103307660766
 1  8.26564215501550 -0.61547232743274  0.17110015961596
 1 -8.05540893609361  0.61849604370437  0.06490283778378
 1  7.86985021712171  2.79807484338434  1.54171355385539
 1  6.53517539823982  3.14266197039704  0.53670625032503
 1  8.02392663036304  3.13125178717872 -0.26135935883588
 1 -8.74153510571057 -2.33697075617562 -1.72933962756276
 1 -8.56615760406041 -3.30444363166317 -0.04224808550855
 1 -7.25670022262226 -3.43432608390839 -1.11660054525453
 1  6.04375524002400 -0.55879110591059  0.32881086438644
 1 -5.96025801040104 -0.02885094659466 -0.12317259405941
 1  4.86124948224822  2.44591303540354  0.68276118291829
 1 -5.08921902220222 -2.71340485688569 -0.57745988708871
 1  3.69603987068707 -0.49392396229623 -0.15577593919392
 1 -3.51650928212821 -0.20021369146915 -0.10386225292529
 1  2.64520521992199  2.97790818691869  1.66656531183118
 1  1.30903810461046  2.96106683848385  0.57211693919392
 1  2.69937699649965  3.21547202070207 -0.00167413701370
 1 -3.08631050065007 -3.79853820972097 -1.71560657145715
 1 -3.07283888968897 -4.04440643354335  0.19256390779078
 1 -1.60738170947095 -3.78080841524152 -0.44175640204020
 1  0.44234663546355  0.86293220842084  0.29948059325933
 1 -1.47547863646365 -0.30781279407941 -0.27913563966397
 1  2.04013255775578 -1.47167621732173 -0.07111667586759
 1  0.17042755355536 -2.91357639993999 -0.41233209410941

