%nproc=4
%Mem=2GB
# td=(NStates=1) B3LYP/6-31G(d,p) 

TD

0 1
 6  12.11553589618962  0.42207280778078 -0.83677979687969
 6 -12.12906522062206 -0.09091413301330  0.80235941484148
 6  13.43900331303130 -0.25637529752975 -0.51016701570157
 6 -13.11602810271027  1.02044643614361  1.28477919231923
 6  13.18318063226323 -1.84855052745275 -0.41338309710971
 6 -13.39836443254325  1.97918643074307  0.06338670577058
 6  11.06385817971797 -0.05009074457446  0.17903544134413
 6 -10.95507317511751  0.40080996329633 -0.07446508130813
 6  12.39752418981898 -2.10944323832383  0.81573554985499
 6 -12.12152203480348  2.62167247544754 -0.41068940484048
 6  11.14682439043904 -1.20783283778378  0.92074864326433
 6 -11.07558235243524  1.63022864466447 -0.72314118781878
 6  11.64425501320132  0.57780890599060 -2.20374885348535
 6  12.51568498189819  1.86629068416842 -0.30990250925093
 6 -12.98350594139414 -1.11909902860286  0.04508833873387
 6 -11.69900876887689 -0.84888806240624  2.08368651685169
 6  9.84794285688569  0.90007612121212  0.22886488698870
 6 -9.88488829572957 -0.49622216431643 -0.21383547134713
 6  10.14447862416242 -1.59089890159016  1.93857649254926
 6 -9.82007497769777  2.19148088718872 -1.62159362426243
 6  8.55251149084908  0.42846280248025  0.33456166236624
 6 -8.50586354475448 -0.17817768306831 -0.23767008990899
 6  7.39280784898490  1.36320512081208  0.40418303090309
 6 -7.47993688758876 -1.22625110021002 -0.36986738363836
 6  7.56710976067607  2.78638127532753  0.46137857485749
 6 -7.88839602780278 -2.68539855095510 -0.73087036463646
 6  6.15008891039104  0.71119550855086  0.25952811181118
 6 -6.12466107600760 -0.78134895749575 -0.23861597329733
 6  4.81564221492149  1.37035936783678  0.20529018801880
 6 -4.94638425022502 -1.64646062386239 -0.34464584618462
 6  3.60145885748575  0.67549511471147  0.23353530283028
 6 -3.74800018521852 -1.09690032273227 -0.16195863356336
 6  2.32615591699170  1.33018372607261  0.22925741364136
 6 -2.46243524292429 -1.80662572127213 -0.36024930503050
 6  2.26351072267227  2.86780614711471  0.45876024932493
 6 -2.59888043344334 -3.33404693119312 -0.73887523762376
 6  1.22184373287329  0.55488683028303  0.14850976797680
 6 -1.30612878597860 -1.07340591259126 -0.25194389948995
 6  1.12842721492149 -0.87885283248325 -0.10220774047405
 6  0.02733327292729 -1.57139337913791 -0.26847060306031
 1  13.87287739353935 -0.02311988248825  0.50720876377638
 1  14.08155516931693 -0.21114949064906 -1.42591613001300
 1 -12.66933329832983  1.62842523272327  2.18214177897790
 1 -13.90708156575658  0.51760125242524  1.80907734583458
 1  14.12354297629763 -2.34881569926993 -0.46202964876488
 1  12.57892377407741 -2.17647154715472 -1.33021914521452
 1 -14.16949033723372  2.61373473347335  0.41973301090109
 1 -13.97419220302030  1.38724839903990 -0.75881990409041
 1  13.01897386118612 -1.77823032963296  1.76689857185719
 1  12.21002845734573 -3.12506619871987  1.01544840044004
 1 -11.67910770287029  3.41619934063406  0.25735225222522
 1 -12.53870008390839  3.09004251205121 -1.35796969816982
 1  11.33255662616262 -0.50707378467847 -2.56222435513551
 1  12.29301618231823  1.16715137643764 -2.76317289128913
 1  10.53759133043304  0.90705381708171 -2.21699241874187
 1  12.55172612671267  1.94702160406041  0.93511085158516
 1  11.78303671057106  2.66679659055906 -0.82203636063606
 1  13.54889674597460  2.16528679857986 -0.68163043414341
 1 -13.29790902160216 -0.79853386238624 -0.98426452715272
 1 -14.10734290689069 -1.42626843104311  0.35046226692669
 1 -12.43601120432043 -1.95678408330833 -0.14222010451045
 1 -11.07447993889389 -0.35359099849985  2.87930758985899
 1 -10.96240276567657 -1.81066206690669  1.87414143034303
 1 -12.39706377037704 -1.50617508540854  2.68414694279428
 1  10.15007841444145  1.95196005610561  0.30866677457746
 1 -10.13686813151315 -1.55137024702470 -0.33600997899790
 1  9.36223030053005 -0.70647824252425  2.13962772037204
 1  10.38489930403040 -2.00600679857986  2.95787721772177
 1  9.62336440364036 -2.24387423742374  1.39005862746275
 1 -9.48655569086909  1.34815712831283 -2.22031452835284
 1 -9.01445625052505  2.55441896389639 -0.96277632383238
 1 -10.45969623462346  2.99118412381238 -2.17165713901390
 1  8.27816340714071 -0.60928170837084  0.17532058165817
 1 -8.22297569276928  0.99492368646865  0.15228157565757
 1  7.82742597469747  2.70900593649365  1.66305568806881
 1  6.48496037673767  3.25694339853985  0.34467704740474
 1  8.38985322302230  2.93407206920692 -0.21811503440344
 1 -8.61098205040504 -2.62744980408041 -1.52737943154315
 1 -8.27959894819482 -3.29106229352935  0.24611075037504
 1 -6.87595214781478 -3.03679633093309 -1.36633551875187
 1  6.00460132463246 -0.36461168796880  0.24642262556256
 1 -6.07452943754375  0.33080501900190  0.11780150335033
 1  4.85470882818282  2.47806625072507  0.24079698649865
 1 -4.95468556885689 -2.60037355375538 -0.65148728982898
 1  3.42000226692669 -0.58520309020902  0.48111775017502
 1 -3.65929356055606  0.02864919481948  0.04771290459046
 1  2.72479317871787  3.12722311841184  1.29758841414141
 1  1.19888708950895  3.10742147394740  0.51709143664366
 1  3.10655771457146  3.28579905340534 -0.26219018861886
 1 -3.24874674427443 -3.50114847074708 -1.55624063486349
 1 -3.09571117691769 -3.99679167206721  0.04991964336434
 1 -1.62767373867387 -3.75800613501350 -0.98165039143914
 1  0.24860726152615  1.03881979717972  0.10189083428343
 1 -1.44500558915892  0.03686167336734 -0.04409213531353
 1  2.08648719321932 -1.34138318801880 -0.47735729992999
 1  0.19821033183318 -2.58980402270227 -0.56382724362436

