%nproc=4
%Mem=2GB
# td=(NStates=1) B3LYP/6-31G(d,p) 

TD

0 1
 6  12.17833217581758  0.73421402190219 -0.61617773667367
 6 -12.05099741384138  0.10826578497850  0.78577775667567
 6  13.47368678137814 -0.15548520852085 -0.60033603260326
 6 -12.89267576747675  1.35463985548555  1.19635034943494
 6  13.20149246344634 -1.65354102650265 -0.80827258605861
 6 -13.30970556665667  2.24159267136714  0.05847621472147
 6  11.02432422632263  0.09523378787879  0.19124666246625
 6 -10.96069373717372  0.51675155745575 -0.18807644244424
 6  12.36380081748175 -2.14982727672767  0.42481645794579
 6 -12.13986386898690  2.75070537873787 -0.69621795769577
 6  11.13996370437044 -1.21640369486949  0.68577514591459
 6 -11.01809660386039  1.63211883368337 -0.86214508820882
 6  11.71643223092309  0.81784290939094 -2.09777825642564
 6  12.55731914531453  2.07686174127413 -0.14801632063206
 6 -13.03268085888589 -0.92773989268927  0.22995682558256
 6 -11.53066193419342 -0.51048422202220  2.13330147834784
 6  9.83319138173817  0.89880599419942  0.29532153265327
 6 -9.90746055295529 -0.58962150425043 -0.39151323912391
 6  10.11929610591059 -1.79457926962696  1.70910354525453
 6 -9.91001397159716  2.06920865996600 -1.93945541044104
 6  8.53158939863986  0.58612856905691  0.34084229042904
 6 -8.54989794819482 -0.33914377967797 -0.15555187808781
 6  7.40183875207521  1.38529733003300  0.41280389298930
 6 -7.55639453335334 -1.44555303040304 -0.33106350325032
 6  7.62921597129713  2.77896053325333  0.63361579857986
 6 -8.00365755395540 -2.83351336243624 -0.57891516911691
 6  6.17034093559356  0.74211860086009  0.41973413241324
 6 -6.28968757865787 -0.98043886648665 -0.25840795249525
 6  4.78981963266327  1.26319865176518  0.34072373137314
 6 -5.11804141594159 -1.74274025182518 -0.34083546514651
 6  3.59890860246025  0.58006557175718  0.31143309260926
 6 -3.85043042824282 -1.33985461816182 -0.07794023172317
 6  2.30623392479248  1.18739944764476  0.38036252415242
 6 -2.52762176157616 -2.06541159985999 -0.23720700080008
 6  2.17347171877188  2.67651701820182  0.55476985028503
 6 -2.45275582098210 -3.45891941844184 -0.77430878097810
 6  1.27648919741974  0.40933227482748  0.24399931693169
 6 -1.39808798189819 -1.37308588058806 -0.01411011611161
 6  1.09253362556256 -0.98154310151015  0.05706818711871
 6 -0.06210567096710 -1.73233947374737 -0.17651140714071
 1  14.10852095789579 -0.05591316181618  0.26449449234923
 1  14.02371938573857  0.34692631693169 -1.35638917731773
 1 -12.03764012901290  1.85906829702970  1.89848341314131
 1 -13.83489434703471  1.16128562086209  1.84512095019502
 1  14.18838946094609 -2.11052186988699 -0.81087453325333
 1  12.63604948664866 -1.77206110611061 -1.85555167846785
 1 -13.72308569676968  3.12484584458446  0.52991402900290
 1 -14.09205398919892  1.91054072827283 -0.58594261636164
 1  12.96839880368037 -2.28419092569257  1.50176205820582
 1  11.72120957545754 -3.19585327742774  0.31461831743174
 1 -11.78624841694169  3.55444316501650  0.03065958295830
 1 -12.33478969286929  2.97455096289629 -1.73354725592559
 1  11.46569994049405 -0.10201327862786 -2.59744787748775
 1  12.28740562126213  1.37582224352435 -2.68195476947695
 1  10.72918048934893  1.29944305600560 -2.16331705120512
 1  12.71227218131813  1.99479638153815  0.88752609310931
 1  11.75671407830783  2.73576348724872 -0.44535869286929
 1  13.48044990129013  2.32164243414341 -0.94717698879888
 1 -13.83918314901490 -0.66520052905291 -0.61810791149115
 1 -13.60457262986299 -1.33613941814181  0.99838705940594
 1 -12.47026462966297 -1.92379078397840 -0.36045192769277
 1 -10.58467095799580  0.05250961156116  2.31584124322432
 1 -11.27359388478848 -1.44864586528653  2.12031604780478
 1 -12.36171023502350 -0.55332980088009  2.89037756585659
 1  10.03152655925593  1.98678353845385  0.31138704660466
 1 -10.30738518321832 -1.47682279227923 -0.44190056805681
 1  9.53887796529653 -1.07143473817382  2.17607136473647
 1  10.72712352645265 -2.11190738863886  2.50946237623762
 1  9.47024909210921 -2.47960781078108  1.09889951155116
 1 -9.43585062036204  1.22911522412241 -2.20791328822882
 1 -9.08925373027303  2.88703222522252 -1.73451349754976
 1 -10.22085235023502  2.29010401580158 -2.94691466476648
 1  8.11231682248225 -0.57664844504450  0.29802285188519
 1 -8.25085848104811  0.47186138023802  0.18149449694970
 1  8.37181041314131  2.85721075697570  1.54817419991999
 1  6.74373625432543  3.41232893709371  1.04891747144714
 1  8.00393463116312  3.47006566856686 -0.30405362826283
 1 -8.53539449164917 -2.98541560066007 -1.63074976857686
 1 -8.55614660296030 -3.23626681398140  0.20980712001200
 1 -7.16079063166317 -3.39063171447145 -0.82441132633263
 1  6.20689155365536 -0.47499272607261  0.56088407170717
 1 -6.02428441304130 -0.03567162866287 -0.11308158495850
 1  4.84741809910991  2.33117156125613  0.28416132293229
 1 -4.99858995929593 -3.00470398679868 -0.45627776887689
 1  3.78148841554155 -0.41435600550055  0.42156179457946
 1 -3.72518014921492 -0.29845351545155  0.07866599989999
 1  2.81244194359436  3.19429982608261  1.41391004630463
 1  1.19816701750175  2.99464019581958  0.53677340484048
 1  2.45648270707071  3.13237371087109 -0.27343131273127
 1 -3.29907177677768 -3.43312166806681 -1.70154516531653
 1 -3.08405001080108 -4.37520951385138 -0.26523187178718
 1 -1.42108307960796 -3.85694602900290 -0.92149437583758
 1  0.26057845864586  0.95291120632063  0.44386503170317
 1 -1.63771486008601 -0.35922793559356  0.37418969286929
 1  2.09238778327833 -1.43715276497650 -0.27472703690369
 1  0.10023053385338 -2.72729777207721 -0.30594145504550

