%nproc=4
%Mem=2GB
# td=(NStates=1) B3LYP/6-31G(d,p) 

TD

0 1
 6  12.22264660726072  0.53514411491149 -0.53998011691169
 6 -12.13218553265327 -0.03738878047805  0.97449662856286
 6  13.44595400810081 -0.40349000900090 -0.46764276327633
 6 -12.97997449734974  1.15156954845485  1.35323603800380
 6  13.15006732093209 -2.00539621202120 -0.40350210901090
 6 -13.34730932703270  2.02079059115912  0.15459582668267
 6  11.00647244114412 -0.08026376187619  0.19156669446945
 6 -11.10456812461246  0.32494237653765 -0.10683831863186
 6  12.25134957235724 -2.12814510851085  0.75291926822682
 6 -12.08289817241724  2.52852316051605 -0.52674101000100
 6  11.07800750875088 -1.26354840934093  0.90316688508851
 6 -11.05445023922392  1.46194181598160 -0.82063093679368
 6  11.71785237293729  0.58596972207221 -2.00692917151715
 6  12.60396380978098  1.84155821092109  0.00947942894289
 6 -13.07710530133013 -1.25676279497950  0.63645747564756
 6 -11.40563943194319 -0.47530070367037  2.38778692689269
 6  9.87461552415242  0.84132024562456  0.41053305380538
 6 -9.91759156605660 -0.63598614071407 -0.24689877767777
 6  9.97672184848485 -1.66820663236324  1.88492112701270
 6 -10.06637960816082  1.88255999509951 -1.77528899379938
 6  8.54381062076208  0.46502645884588  0.22323052925293
 6 -8.65892885128513 -0.30638050335034 -0.21880820372037
 6  7.44311287948795  1.38163696399640  0.35689830243024
 6 -7.56612550645065 -1.27927640274027 -0.38075847274727
 6  7.63612666236624  2.87855049224922  0.60942337933793
 6 -7.77398458665867 -2.74216422752275 -0.62422970057006
 6  6.11763566506651  0.81531592059206  0.22452461146115
 6 -6.26694530443044 -0.89604042664266 -0.20954306600660
 6  4.83168381908191  1.45685801770177  0.38748840784078
 6 -5.09499911171117 -1.60812679047905 -0.38126950855086
 6  3.69903861546155  0.87024458965897  0.14405635493549
 6 -3.81045643084308 -1.08520915361536 -0.25226766446645
 6  2.42276557795780  1.40198090579058  0.08824331223122
 6 -2.52747174657466 -1.82199725842584 -0.64271755185519
 6  2.19850422202220  2.89112847934793  0.50448482178218
 6 -2.46718726412641 -3.21626515301530 -1.09886123622362
 6  1.30013156165617  0.64938628022802 -0.18178326132613
 6 -1.27547572067207 -1.07658623062306 -0.39492819791979
 6  1.21481585378538 -0.84557950515051 -0.48973649334934
 6 -0.03187264766477 -1.48135437523752 -0.55413916991699
 1  14.06701680748075 -0.23653122362236  0.16393443634363
 1  14.13660067386739 -0.24689306500650 -1.20543408180818
 1 -12.45279164416442  1.79402179237924  2.00656422122212
 1 -13.75581643924393  0.97418691099110  1.90253669176918
 1  13.95097571957196 -2.69443026072607 -0.24817826362636
 1  12.69917579927993 -2.26702060206021 -1.24418054135414
 1 -14.01535492369237  3.02289564956496  0.45750678827883
 1 -14.02819760356036  1.37273694789479 -0.59949397149715
 1  12.81641360516052 -2.16546905350535  1.73778566056606
 1  11.90757821232123 -3.14934862696270  0.74365122072207
 1 -11.50808060016002  3.45175289598960  0.05778229522952
 1 -12.41451766566657  2.93541704950495 -1.53285718691869
 1  11.58355172567257 -0.43631670897090 -2.43450158285829
 1  12.53790067076708  0.87979264056406 -2.71819839383938
 1  10.98111568286829  1.45609872157216 -2.30858157765777
 1  12.89031998609861  1.90222712461246  1.01024836533653
 1  11.92844125102510  2.69263917481748 -0.13602775977598
 1  13.43075493179318  2.37927819771977 -0.51046331743174
 1 -13.48964819551955 -1.16284029302930 -0.46045214591459
 1 -13.99714188678868 -1.22444824902490  1.37478469916992
 1 -12.61629923312331 -2.35918432333233  0.49527364486449
 1 -10.71575406630663  0.37335169576958  2.62603226232623
 1 -10.78806533193319 -1.33284428512851  2.19433344954495
 1 -12.23903796779678 -0.68127259515952  3.13991251935193
 1  10.03550695729573  1.89319417951795  0.66766267416742
 1 -10.18962340704070 -1.73413852385239 -0.17884426242624
 1  9.23432751025103 -0.98208580328033  2.39874363196320
 1  10.57047786188619 -2.37916411431143  2.53010444044404
 1  9.34325639283928 -2.49577942794279  1.28402802440244
 1 -9.47167420272027  0.99170148274828 -2.29564206110611
 1 -9.32024682958296  2.57220074207421 -1.38070811701170
 1 -10.62412267726773  2.25377038243824 -2.80526049934994
 1  8.46215180598060 -0.55965674587459  0.02872592219222
 1 -8.25657905310531  0.76748094219422 -0.07360101260126
 1  8.11964519661966  3.12628766466647  1.65727511001100
 1  6.82620450115011  3.50474817901790  0.56314889458946
 1  8.40283452115212  3.23109177117712 -0.06902012491249
 1 -8.33844479667967 -2.86730378947895 -1.55688238183818
 1 -8.46800778907891 -3.45099828712871  0.16874301360136
 1 -6.70678523112311 -3.18969162046205 -0.62159104430443
 1  6.14864572907291 -0.24677990479048  0.24071205450545
 1 -6.02515450005000  0.15526746524652 -0.01783206000600
 1  4.81610496779678  2.35269371347135  0.44630753755376
 1 -5.16397649794980 -2.67920143654365 -0.72652479357936
 1  3.84315458215822 -0.20890546044604  0.03331296969697
 1 -3.78136576777678 -0.05252892299230  0.00843897719772
 1  2.84551525092509  3.12797319341934  1.32846150145014
 1  1.13493069386939  3.19957068886889  0.66434616211621
 1  2.45802286108611  3.80533100660066 -0.27846181578158
 1 -3.20113198279828 -3.28741709760976 -1.85308031883188
 1 -2.92540414621462 -3.90902289518952 -0.37763311191119
 1 -1.52682365366537 -3.91683201760176 -1.36911913831383
 1  0.27184958575858  1.23250916611661 -0.22497185198520
 1 -1.27907899649965  0.12618060526053 -0.42192991909191
 1  2.13788233273327 -1.42504155385539 -0.36148571277128
 1  0.15091560236024 -2.63357840014001 -0.82014287518752

