%nproc=4
%Mem=2GB
# td=(NStates=1) B3LYP/6-31G(d,p) 

TD

0 1
 6  12.05283962656266  0.54053465396540 -0.63621974087409
 6 -12.21511382548255 -0.01482652425243  0.81066024492449
 6  13.43533294599460 -0.22915257525753 -0.72316831583158
 6 -13.02023852375238  1.22548694019402  1.14011472587259
 6  13.22555486968697 -1.75165083748375 -0.82698445724572
 6 -13.42439703580358  2.06203471557156 -0.12032166506651
 6  11.03524531843184 -0.05489122462246  0.20125766356636
 6 -10.98555622342234  0.43770365266527 -0.08900653545355
 6  12.41503594099410 -2.21735402940294  0.47416139243924
 6 -12.01261114371437  2.58386869506951 -0.61169950585058
 6  11.06219592759276 -1.36511856635664  0.76527309570957
 6 -11.09030382458246  1.55251087288729 -0.90319919361936
 6  11.56374696239624  0.70167129222922 -2.15482396099610
 6  12.37469088248825  1.97636169126913 -0.13837535653565
 6 -12.91415900670067 -1.13430054875488  0.13184701460146
 6 -11.61910077807781 -0.52475564916492  2.17686583478348
 6  9.80744880748075  0.87460357395740  0.47730973147315
 6 -9.85390519741974 -0.54558710081008 -0.15238932673267
 6  10.21175535183518 -1.91076088778878  1.78436107100710
 6 -10.00280325052505  1.81045278437844 -2.02650411531153
 6  8.51334757445745  0.42338229442944  0.28136634283428
 6 -8.55922888128813 -0.34175404070407 -0.13633995689569
 6  7.39038760696070  1.39609841014101  0.39072168476848
 6 -7.49594848874888 -1.35913438853885 -0.12849324622462
 6  7.67169021872187  2.71826446364636  0.93449588658866
 6 -7.88634582278228 -2.81597160826083 -0.37859513711371
 6  6.20563446494649  0.79902429142914  0.28918107710771
 6 -6.19904851475147 -0.95566638923892 -0.14931704340434
 6  4.82983363406341  1.37577990989099  0.36380603960396
 6 -5.04925453725373 -1.65978195599560 -0.28241962356236
 6  3.70437914951495  0.80011757695770  0.17560951025103
 6 -3.76559194439444 -1.19383001570157 -0.21195363306331
 6  2.39461276267627  1.30457116481648  0.32175666356636
 6 -2.51793079247925 -1.70863592229223 -0.35703898399840
 6  2.24952932453245  2.71903126962696  0.69819419271927
 6 -2.56841738713871 -3.24189771627163 -0.58444979507951
 6  1.29319086758676  0.64289563116312  0.04763968096810
 6 -1.33653182628263 -1.00060863286329 -0.36254495959596
 6  1.10992536473647 -0.68621356855686 -0.21802932263226
 6 -0.00198965936594 -1.58970521032103 -0.33469722572257
 1  14.09882998879888 -0.25305287578758  0.29388743164316
 1  14.20222723652365  0.06521814611461 -1.44622816121612
 1 -12.48644500950095  1.91688407860786  1.78940250505051
 1 -13.96971782938294  0.91796128842884  1.80880731883188
 1  14.17890851285129 -2.19913073077308 -0.81361480728073
 1  12.63650953265327 -2.03002690269027 -1.71909803310331
 1 -14.15840922912291  2.86752011201120 -0.04152311471147
 1 -13.87406219001900  1.58608828302830 -1.00604462656266
 1  13.11749371317132 -2.32744525112511  1.41747362936294
 1  12.22838029252925 -3.14663835593559  0.30945780138014
 1 -11.57575736783678  3.31445916661666  0.18164468146815
 1 -12.10527674157416  3.21510501830183 -1.59308320952095
 1  11.23881725222522 -0.24117719501950 -2.68688682138214
 1  12.36418329902990  1.23625828712871 -2.81749832383238
 1  10.70319789108911  1.27990110181018 -1.94116483598360
 1  12.56888784288429  2.07500440234023  0.86988432893289
 1  11.52430083698370  2.78296820772077 -0.19240339733973
 1  13.36333819011901  2.43919418931893 -0.66595886698670
 1 -13.30537976867687 -0.85101911091109 -0.81463756445645
 1 -13.64777695029503 -1.36905270947095  0.91752897359736
 1 -12.30344794799480 -2.11811021592159  0.14920903840384
 1 -10.91056354725473  0.17712207280728  2.45594525362536
 1 -11.13266979237924 -1.54243524422442  2.09406342254225
 1 -12.49032309630963 -0.58737320522052  2.81055958405841
 1  9.77948135473547  2.04228908900890  0.54039994789479
 1 -10.23200764546455 -1.58430354035404 -0.33312969096910
 1  9.24567864536454 -1.35867346204620  2.12563632123212
 1  10.85774658875888 -2.32158835673567  2.77493892389239
 1  9.79027109430943 -2.97536738673867  1.38503812541254
 1 -9.26544357965797  0.92771508410841 -2.14473697059706
 1 -9.60706551145114  2.65495901790179 -1.68492853905391
 1 -10.40221048604861  2.23530853625362 -2.92278225152515
 1  8.41256684748475 -0.54792557275728 -0.07780473087309
 1 -8.36487988318832  0.82996719081908 -0.15149880238024
 1  8.17329056115612  2.78465350125012  1.90562994549455
 1  6.76325820652065  3.29790749494949  0.97322990269027
 1  8.35791002870287  3.30899956195620  0.29782655975598
 1 -8.46175712791279 -2.72994005310531 -1.36657335093509
 1 -8.66212720102010 -3.14430761806181  0.34657079637964
 1 -7.04784933753375 -3.62482513381338 -0.31582046724672
 1  6.08514937943794 -0.28109333613361 -0.20583259996000
 1 -6.00335231983198  0.19465140364036 -0.16226650345034
 1  4.88798215551555  2.33654209830983  0.78792169896990
 1 -5.11425152545255 -2.75366888328833 -0.39264140524052
 1  3.75185545224522 -0.25844041394139 -0.10989135073507
 1 -3.72691032223222 -0.21860553065307 -0.00741260796080
 1  2.88463916331633  3.10827122322232  1.59385804110411
 1  1.18761596239624  3.21562229402940  0.80921064856486
 1  2.73693075187519  3.27747822132213 -0.01036500610061
 1 -2.86159802940294 -3.49106746264626 -1.59605461626163
 1 -3.27745935173517 -3.84599659255926  0.04691934333433
 1 -1.54896586788679 -3.74381471587159 -0.66690891729173
 1  0.44797719851985  1.25715163036304  0.44372501770177
 1 -1.55489657825783  0.13986197339734 -0.09880760686069
 1  2.15547409190919 -1.21184023372337 -0.12898246244624
 1  0.07754826562656 -2.65332037433743 -0.36586744764476

