%nproc=4
%Mem=2GB
# td=(NStates=1) B3LYP/6-31G(d,p) 

TD

0 1
 6  12.19813415601560  0.51797239773977 -0.69727584648465
 6 -12.13483579767977 -0.09702474407441  0.86552573147315
 6  13.51959137183718 -0.32449210921092 -0.56475247424742
 6 -13.03059955985599  1.04660905240524  1.28002871727173
 6  13.19928224242424 -1.80988666106611 -0.51419317811781
 6 -13.43550814691469  1.98174668676868  0.14277464456446
 6  11.12322411631163 -0.03404914041404  0.31320885868587
 6 -10.88488615641564  0.50168005030503  0.06205857105711
 6  12.30913535093509 -2.23792608660866  0.73163714001400
 6 -12.13377325992599  2.69440974917492 -0.50612894879488
 6  11.19042875087509 -1.20620267476748  1.01145771417142
 6 -11.04221901610161  1.62489811161116 -0.66280515421542
 6  11.61704229192919  0.50294141924192 -2.13798227682768
 6  12.62966638003800  1.94574862996300 -0.38056957595760
 6 -13.01724931573157 -1.13068018671867  0.19529335923592
 6 -11.53725259325932 -0.72762593619362  2.13157130533053
 6  9.96630469306931  0.80160627422742  0.43761576207621
 6 -9.88269807670767 -0.46575911801180 -0.31320540834083
 6  10.22875705200520 -1.53601341304130  2.04819745464546
 6 -10.09890286048605  2.03342508160816 -1.70486195109511
 6  8.62225846554655  0.48948890509051  0.31128933513351
 6 -8.52901585998600 -0.32480234553455 -0.23693001590159
 6  7.42766133433343  1.33291209150915  0.44173678627863
 6 -7.51563045694570 -1.34682315741574 -0.40987138403840
 6  7.63125617531753  2.90695333253325  0.48500093709371
 6 -7.95709289748975 -2.72689270037004 -0.59262654025403
 6  6.14257815931593  0.80624501350135  0.27719987898790
 6 -6.22623123302330 -0.91332215481548 -0.23620573227323
 6  4.83905455615562  1.33128546044604  0.33326298529853
 6 -5.03037264906491 -1.67477345514551 -0.44886626822682
 6  3.66771548314831  0.65868343354335  0.06262821212121
 6 -3.80641602680268 -1.12879351205121 -0.38749118681868
 6  2.37811111251125  1.30516122382238  0.26244073197320
 6 -2.60829982938294 -1.80015507420742 -0.50502378247825
 6  2.32600697229723  2.77820718721872  0.57936230953095
 6 -2.67032757815782 -3.30500402690269 -0.68304965506551
 6  1.15658720722072  0.63625496709671  0.04394931193119
 6 -1.34769294239424 -1.11195976797680 -0.51794049914991
 6  1.04826919911991 -0.78028297549755 -0.15708322802280
 6 -0.02627208760876 -1.56060230003000 -0.38268202420242
 1  13.99305941174118  0.12469489898990  0.25928397129713
 1  14.07918493229323 -0.12296067176718 -1.48860239863986
 1 -12.44832119711971  1.80291268146815  1.82901646644665
 1 -13.85170602820282  0.74233372567257  1.92202864096410
 1  14.33528415041504 -2.34156497419742 -0.36996044184418
 1  12.62918880058006 -2.09060296029603 -1.25291141444144
 1 -14.29160254845485  2.61023438343834  0.63635467306731
 1 -13.90696548034804  1.42313198739874 -0.49565358745875
 1  12.89617158095810 -2.41009351595160  1.65361724372437
 1  11.66301375587559 -3.09214290639064  0.63934078967897
 1 -11.88445823792379  3.52823054375437  0.09870638763876
 1 -12.44525073897390  3.22352586038604 -1.47721162236224
 1  11.66519989048905 -0.38528160546055 -2.54016214891489
 1  12.31366824752475  1.15354001530153 -2.86661323532353
 1  10.60749832113211  0.93150626232623 -2.05236595609561
 1  12.72507346144615  2.13002990489049  0.67320466096610
 1  11.87534594149415  2.78093800470047 -0.49934409140914
 1  13.53486534283428  2.31118138803880 -0.87713998509851
 1 -13.39159839053905 -0.73915792479248 -0.94438053875388
 1 -13.98664083668367 -1.35775157935794  0.75086230693069
 1 -12.51212881608161 -2.19442784768477  0.17993211071107
 1 -10.99854234513451 -0.03960960036004  2.55057471657166
 1 -10.84090061546155 -1.67830883158316  2.06693070927093
 1 -12.18522258625863 -1.26376084398440  2.87786631473147
 1  9.98895230183018  2.02836769686969  0.32617852575257
 1 -10.23900834553455 -1.43548865886589 -0.41931830983098
 1  9.68348242574258 -0.62538013271327  2.34760851845185
 1  10.67915872997300 -2.19729592749275  2.88807023702370
 1  9.59088115531553 -2.38113796379638  1.61949157075708
 1 -9.55586262156216  1.07726003860386 -2.09105160206021
 1 -9.23990879577958  2.60089361136114 -1.34934498069807
 1 -10.48345861086109  2.91310631603160 -2.53477345064506
 1  8.16245183598360 -0.66386716691669  0.50927397699770
 1 -8.15977937313731  0.55873006710671  0.08165451295129
 1  8.34966819891989  2.93656869276928  1.40641002350235
 1  6.62535441614161  3.18521622582258  0.78464104380438
 1  7.78846308400840  3.30770943294329 -0.57101032393239
 1 -8.31072202440244 -2.85832289138914 -1.70567726132613
 1 -8.59582057035703 -3.06320950825082  0.31001714101410
 1 -6.99106365896590 -3.17712036333633 -0.73328221342134
 1  6.06672753725373 -0.33571879867987 -0.01192320902090
 1 -6.23628561316132  0.10276221472147 -0.00734101090109
 1  4.72245560286029  2.41891033513351  0.46310921772177
 1 -5.08352845314532 -2.87674119051905 -0.66516865796580
 1  3.82057232393239 -0.50506507640764 -0.03353371497150
 1 -3.68816644784478 -0.10792446254625 -0.05647751445145
 1  3.05311601100110  2.84155455155516  1.53583223852385
 1  1.20811801260126  3.16837756955696  0.86414614211421
 1  2.71790884968497  3.40507098059806 -0.06848081768177
 1 -3.11816368596860 -3.14035239113911 -1.85637064786479
 1 -3.34776638243824 -3.70670266316632  0.10357500890089
 1 -1.61278224952495 -3.66019635403540 -0.70007223362336
 1  0.26886928772877  1.30615653085309  0.14602524772477
 1 -1.40859194779478 -0.13004501730173 -0.56341406750675
 1  1.92806135063506 -1.39172822252225 -0.16403596779678
 1  0.11408191899190 -2.71393643594359 -0.56321718261826

