%nproc=4
%Mem=2GB
# td=(NStates=1) B3LYP/6-31G(d,p) 

TD

0 1
 6  12.06177051965197  0.53210381088109 -0.70515663456346
 6 -12.13839615371537 -0.03937897949795  0.83257243614361
 6  13.41961137383738 -0.25801546154615 -0.45596159515952
 6 -12.99130563046305  1.05042943444344  1.30558127252725
 6  13.23538585278528 -1.73361903430343 -0.41644340314031
 6 -13.41500609670967  2.00848936103610  0.12631299839984
 6  11.06541833573357  0.06926119061906  0.31717925572557
 6 -10.89506717451745  0.46397627992799 -0.03283091789179
 6  12.25761019841984 -2.07557985198520  0.72976695299530
 6 -12.17925780838084  2.67331763996400 -0.36793512941294
 6  11.13769347734774 -1.16854890939094  0.89239580798080
 6 -11.03946874107411  1.68688431023102 -0.64966384008401
 6  11.71520210791079  0.44727585268527 -2.23891236983698
 6  12.49621303470347  1.92364641974197 -0.44181570057006
 6 -12.97358494929493 -1.10826794549455  0.11064489438944
 6 -11.36279514751475 -0.59190236383638  2.15065321352135
 6  9.83897195979598  0.92669878347835  0.30672267276728
 6 -9.87262706960696 -0.57963050515052 -0.25791987978798
 6  10.05242941924192 -1.60308011971197  2.05635827072707
 6 -9.97874084428443  2.23255499459946 -1.71335280018002
 6  8.56324256395640  0.47918787498750  0.25182338853885
 6 -8.59338229662966 -0.26216608190819 -0.32151847474747
 6  7.35246381458146  1.36966576687669  0.26718933153315
 6 -7.38718761266127 -1.28347682278228 -0.40471086798680
 6  7.54030708040804  2.88675131233123  0.54975741274127
 6 -7.77795498369837 -2.78704871597160 -0.54243152075208
 6  6.13493739523952  0.79647403640364  0.23543570257026
 6 -6.14716332623262 -0.80895171777178 -0.33131524322432
 6  4.82814346504650  1.41419375127513  0.28982864186419
 6 -5.00075968776878 -1.59748572637264 -0.51635301690169
 6  3.65086379797980  0.54528209340934  0.29820176947695
 6 -3.76637202240224 -1.07905853855386 -0.42619505720572
 6  2.34656795819582  1.21200190789079  0.45121960986099
 6 -2.53105210461046 -1.83678873757376 -0.53884716481648
 6  2.15763013461346  2.61576094259426  0.66435080838084
 6 -2.62381292669267 -3.32887641414141 -0.81245259535954
 6  1.18687023552355  0.38552989458946  0.27068198519852
 6 -1.32101027412741 -1.22045061706171 -0.34559326442644
 6  1.13810818301830 -1.01708665586559  0.03054553485349
 6 -0.01707116751675 -1.70380662046205 -0.38781253725373
 1  13.97393749954995 -0.01072864336434  0.33463150605060
 1  14.10937795159516  0.03822544684468 -1.16972051045105
 1 -12.51572793779378  1.60074246444644  2.03625719051905
 1 -13.98589944754475  0.68727822012201  1.74456089418942
 1  14.11951257325733 -2.29606042374237 -0.43125657145715
 1  12.91700758245825 -2.20600450045005 -1.31476760006001
 1 -14.12947633583358  2.84622798279828  0.46783782138214
 1 -14.09873465726573  1.37672734693469 -0.40878490059006
 1  12.85548751255125 -2.01156366296630  1.65020690269027
 1  12.02062951745175 -3.13911760386039  0.45075193079308
 1 -11.75466525862586  3.50698841954195  0.04396091309131
 1 -12.47923413731373  3.03820732853285 -1.55030893209321
 1  11.58314168466847 -0.69357243454345 -2.47819595229523
 1  12.83115999669967  0.77733239453945 -2.87541411541154
 1  10.96508407970797  1.13237634933493 -2.59143986348635
 1  12.72066302040204  2.05067196909691  0.57398473897390
 1  11.83341174807481  2.62547245814581 -0.94741889888989
 1  13.48417027332733  2.36768703860386 -0.94976724782478
 1 -13.41397062776278 -0.49652366136614 -0.58678477917792
 1 -13.56968914151415 -1.50603640784078  0.80269749044905
 1 -12.58384598779878 -1.91501990689069 -0.30479636213621
 1 -10.97620011091109  0.28549290989099  2.54065372447245
 1 -10.63397992339234 -1.42529353005300  2.10087410361036
 1 -12.06135019901990 -0.97064153205321  2.74128265636564
 1  9.98448185478548  1.94677953805381  0.23559946784679
 1 -10.20356480118012 -1.55796090609061 -0.19821619961996
 1  9.18777285478548 -0.77602519721972  2.16873063066307
 1  10.33459427352735 -1.92089828772877  2.99720115011501
 1  9.47756982418242 -2.16549639963996  1.52146176777678
 1 -9.54804183948395  1.28607091969197 -2.02300479737974
 1 -9.28245305020502  3.03875739773977 -1.36563660986099
 1 -10.44903516851685  2.55331033643364 -2.67832780608061
 1  8.37010260106011 -0.62640342054205 -0.00036698709871
 1 -8.34349774497450  0.88989318341834 -0.33403705620562
 1  8.05198843094309  3.01068610451045  1.47761714421442
 1  6.69532141284128  3.44532223642364  0.50573315301530
 1  8.23202744044404  3.41193985598560 -0.34477770067007
 1 -8.57458841104111 -2.96029308840884 -1.48919561316132
 1 -8.35040602890289 -3.19953314061406  0.16929306860686
 1 -7.15552010461046 -3.58597124842484 -0.54489337453745
 1  6.39406027052705 -0.22632785958596  0.10474845814581
 1 -5.99557154175417  0.21657359585959 -0.35421569836984
 1  4.76632999029903  2.43429187328733  0.31468437523752
 1 -5.04055415571557 -2.59528304470447 -0.68275041614161
 1  3.73799406610661 -0.53460803070307  0.16537617601760
 1 -3.49815744694469  0.08292462236224 -0.36066793349335
 1  2.83889458885889  2.97546794289429  1.56132478777878
 1  1.21705890669067  2.95365609740974  0.83907363486349
 1  2.68119517831783  3.20078055155516 -0.31256522612261
 1 -2.84571644124412 -3.54769312521252 -1.84417942874287
 1 -3.38951055685569 -3.77851984488449 -0.04388973757376
 1 -1.54875584688469 -3.78787912231223 -0.62151437783778
 1  0.28122052285228  1.10432634783478  0.30545119031903
 1 -1.37214830343034 -0.14019603240324 -0.33733145924593
 1  2.03141168566857 -1.50432948264826 -0.14848441264126
 1 -0.04508399759976 -2.84560960326033 -0.67141800270027

