%nproc=4
%Mem=2GB
# td=(NStates=1) B3LYP/6-31G(d,p) 

TD

0 1
 6  12.05034937753775  0.42429302980298 -0.90475659455946
 6 -12.10843315741574  0.01895685408541  0.73986316521652
 6  13.38186759945995 -0.18633829382938 -0.86123212221222
 6 -13.07888438833883  1.11917630913091  1.15659637403740
 6  13.17309962416242 -1.74094976737674 -0.75458721752175
 6 -13.45240983708371  2.02854136623662 -0.07829746264626
 6  11.01694348824883 -0.00447618311831  0.19943748154815
 6 -10.89518718651865  0.47815769806981 -0.06939457425743
 6  12.38755319271927 -2.01044333833383  0.48745272157216
 6 -12.13242312491249  2.68182849104910 -0.67290562646265
 6  11.25922563056306 -1.19724177867787  0.79324589298930
 6 -10.93331812601260  1.70979660146015 -0.82562143584358
 6  11.38656924462446  0.48728985408541 -2.34512299089909
 6  12.52348576197620  1.91267532263226 -0.57111863086309
 6 -12.86575416621662 -1.01374849354936 -0.04767093719372
 6 -11.59738860686068 -0.70218339193919  2.08915706390639
 6  9.91923998659866  0.84223033663366  0.41818381888189
 6 -9.91112091899190 -0.51384392649265 -0.21799588738874
 6  10.27305148144814 -1.75278509020902  1.90603323822382
 6 -9.90230320052005  2.12770450955095 -1.74956642154215
 6  8.50497673737374  0.52061201740174  0.42730093629363
 6 -8.53634659305930 -0.36873673897390 -0.10764708760876
 6  7.34814338253825  1.26359515981598  0.63334594719472
 6 -7.46193508740874 -1.26354482958296 -0.43788418531853
 6  7.56051910161016  2.88580121732173  0.83954639163916
 6 -7.89165635383538 -2.64234424552455 -0.81319859745975
 6  6.11719562106211  0.79693408240824  0.43942610161016
 6 -6.25824443434343 -1.04014483708371 -0.24194630633063
 6  4.80425107580758  1.44073640554055  0.51509116811681
 6 -5.05325493729373 -1.73280925872587 -0.43852523412341
 6  3.68882759435944  0.75421298649865  0.37364931423142
 6 -3.79503488868887 -1.21341197389739 -0.18592102980298
 6  2.34238754015402  1.29042975067507  0.36936142404240
 6 -2.54498349774977 -1.93284834353435 -0.21939521962196
 6  2.31054542614261  2.78700806730673  0.52367674097410
 6 -2.54718526392639 -3.43391691819182 -0.55668701880188
 6  1.22459400790079  0.47230857245725  0.26438135513551
 6 -1.41900007310731 -1.17286585858586  0.01206250115012
 6  1.16097046924692 -0.89114406160616  0.08731121142114
 6 -0.06270573097310 -1.58982522232223 -0.00516427242724
 1  13.70464056985699  0.03412584208421  0.04932297519752
 1  13.87696471027103  0.08721034533453 -1.93171671007101
 1 -12.53121948694869  1.54955734593459  1.80276384118412
 1 -13.83144400200020  0.58332782508251  1.74537097519752
 1  14.09724034603460 -2.35782660036004 -0.54874832063206
 1  12.64576045774577 -1.95869976997700 -1.62649877317732
 1 -14.18669205740574  2.74156751675168  0.37637867546755
 1 -13.83525830963096  1.26546622082208 -0.91772579467947
 1  13.10013197699770 -2.08465097169717  1.45354723672367
 1  11.93174062856286 -3.01443513561356  0.41615847144714
 1 -11.83806359845985  3.59488720942094  0.02893941094109
 1 -12.11580779467947  3.15348885668567 -1.74507840904090
 1  11.45863923442344 -0.52077515481548 -2.57121525422542
 1  12.13203008370837  0.92945760706071 -3.07576415041504
 1  10.66868443974397  1.04145725742574 -2.40133085258526
 1  12.73159411351135  2.31251815371537  0.46259359985999
 1  11.77403581048105  2.59301921282128 -0.82333649064906
 1  13.30963281958196  2.26474674457446 -1.22900517161716
 1 -13.40280951165117 -0.49921393039304 -1.00374647534753
 1 -13.84412658525853 -1.47905370957096  0.57531475217522
 1 -12.29090669386939 -1.80846925182518 -0.38065394789479
 1 -11.22451494239424  0.23581794239424  2.63999365846585
 1 -10.83551007640764 -1.48023902460246  1.93288730493049
 1 -12.69393345734573 -1.16997146504650  2.48442697079708
 1  9.99903330993099  2.14061892199220  0.60892680058006
 1 -10.19948439313931 -1.56967207720772 -0.61503788178818
 1  9.59956403390339 -1.18647624232423  2.47416117371737
 1  10.96683749784978 -2.21996819471947  2.86444787478748
 1  9.79400146734674 -2.88901875187519  1.73100272187219
 1 -9.23954098939894  1.33080539313931 -2.15119761666167
 1 -9.08895370027003  2.67873139513951 -1.27166721292129
 1 -10.21716198119812  2.85987099249925 -2.54705467876788
 1  8.41432702350235 -0.54691547174717  0.27515056465647
 1 -8.18439183438344  0.70285447954795  0.31570791829183
 1  8.34300753285329  3.17658269416942  1.58438782128213
 1  6.49583146384638  3.35801350555055  1.37133971367137
 1  7.89856409410941  3.49109777177718 -0.24145736863686
 1 -8.62406335853585 -2.73507056615662 -1.76550324392439
 1 -8.38854984328433 -3.02382556985699 -0.00403426412641
 1 -6.81818637123712 -3.33174582588259 -1.25809469466947
 1  6.02022288678868 -0.32464769156916  0.26336431973197
 1 -6.06383836843684  0.02747468596860 -0.15713599039904
 1  4.77057041434143  2.48717716181618  0.85997890469047
 1 -5.13225332563256 -2.80587410381038 -0.74614675577558
 1  3.87753802050205 -0.14269883978398 -0.29827018861886
 1 -3.59128675987599 -0.08613228332833  0.23293142644264
 1  2.73730442984298  3.19850024612461  1.60901955725573
 1  1.34874207500750  3.06919765156516  0.56455618311831
 1  2.72943000180018  3.48275874937494 -0.22987695729573
 1 -3.19528139773977 -3.47679603550355 -1.44775978677868
 1 -2.93902550835084 -4.05714770767077  0.30851550295030
 1 -1.52047301860186 -3.85037537193719 -0.81608383478348
 1  0.32508490929093  1.00586650185018  0.55907655285529
 1 -1.44648573717372 -0.15764777757776  0.39782205610561
 1  2.02292083658366 -1.53299234893489  0.00406084188419
 1  0.12212272307231 -2.66855189748975 -0.07077793869387

