%nproc=4
%Mem=2GB
# td=(NStates=1) B3LYP/6-31G(d,p) 

TD

0 1
 6  12.09948429102910  0.42294289478948 -0.61653777267727
 6 -12.08731104520452 -0.15878091969197  0.94575375427543
 6  13.37301671437144 -0.50769042904290 -0.49191519051905
 6 -12.98613511341134  1.00719511101110  1.41613232763276
 6  13.02066438063806 -1.97351302370237 -0.44167592639264
 6 -13.37875247134713  1.96070458255826  0.33291365846585
 6  11.05514730863086 -0.07056279177918  0.33993153095310
 6 -10.92705037283728  0.43041292359236  0.03604596979698
 6  12.10093453085308 -2.26066836083608  0.74182815911591
 6 -12.22750263286329  2.58782909110911 -0.29651798769877
 6  11.06746645464546 -1.28106016051605  1.06169273767377
 6 -11.14867966216622  1.58982460426043 -0.63674254795480
 6  11.56713730143014  0.32117324242424 -2.04861333993399
 6  12.64204761816182  1.84567862296230 -0.29550106910691
 6 -12.93650124092409 -1.20015713441344  0.10595442534253
 6 -11.37814668266827 -0.84985815941594  2.19835798399840
 6  9.83314137673768  0.86230234383438  0.54025602610261
 6 -9.91819162606260 -0.54232677477748 -0.33894798259826
 6  10.08752292859286 -1.59471928362836  2.06876951185119
 6 -10.12756572677268  2.12356409550955 -1.63096456135614
 6  8.59194543424342  0.54977493369337  0.48282648884888
 6 -8.55659861826182 -0.28394826012601 -0.31706802970297
 6  7.42759132733273  1.45960476077608  0.38799141174117
 6 -7.51819071297130 -1.29344781988199 -0.49523992089209
 6  7.58755180488049  3.00531316851685  0.45461789878988
 6 -7.89711689988999 -2.80821083218322 -0.66845412301230
 6  6.14993889538954  0.84399878887889  0.23971613061306
 6 -6.27859646954695 -0.86686750935093 -0.47369948164816
 6  4.91715236593659  1.51713404530453  0.21285094409441
 6 -5.00512012381238 -1.72867884568457 -0.54532591419142
 6  3.76994570617062  0.78779634483448  0.20458240754075
 6 -3.73918930413041 -1.12763339603960 -0.44555699339934
 6  2.47680098149815  1.40829153685369  0.17665215311531
 6 -2.46728572797280 -1.80651571027103 -0.50846412651265
 6  2.41268564016402  2.94042340884088  0.28936330963096
 6 -2.48760930633063 -3.31033455995600 -0.58179953005300
 6  1.28784033253325  0.85732707430743 -0.13639872287229
 6 -1.36442461556156 -1.00333890589059 -0.42649135423542
 6  1.15135950815082 -0.62539748694869 -0.39994751445145
 6  0.04836537613761 -1.42640888068807 -0.56195995199520
 1  14.06468657445745 -0.10276784728473  0.32109015191519
 1  13.96211322512251 -0.61471984768477 -1.46263980238024
 1 -12.52367873287329  1.40427281748175  2.51857542234223
 1 -13.82662351995200  0.54885437773777  1.86884332243224
 1  13.81155177717772 -2.73372419011901 -0.67325077087709
 1  12.54010989268927 -2.35169906990699 -1.24446056935694
 1 -14.31716510471047  2.68614197419742  0.67364840244024
 1 -13.90030481428143  1.33435310951095 -0.43585760786079
 1  12.78442040584059 -2.38442094869487  1.62858474047405
 1  11.53553100760076 -3.29831352345235  0.65792264786479
 1 -11.96508630073007  3.22272999369937  0.43936045304530
 1 -12.50440665456546  3.26609011681168 -1.23889779097910
 1  11.11108447894789 -0.74149722702270 -2.24716284898490
 1  12.26243312401240  0.61619628092809 -2.78232480648065
 1  10.68903647494749  1.09822293399340 -1.99197991749175
 1  12.88780973507351  1.88229513141314  0.79222656315632
 1  11.78344675157516  2.57622753365337 -0.53756791379138
 1  13.51619347564757  1.98241851175118 -0.81521379247925
 1 -13.71482071277128 -0.77107111611161 -0.45523162386239
 1 -13.53869604220422 -1.77467327152715  0.81555877657766
 1 -12.27427503070307 -1.89596800170017 -0.40628651115112
 1 -10.52299479037904 -0.26619225862586  2.36418607770777
 1 -11.11313783918392 -2.00927192789279  1.96925094129413
 1 -12.26191025502550 -0.79298376627663  3.07575610371037
 1  10.19415282188219  1.81207606770677  0.57053296119612
 1 -10.27038148284828 -1.55700081008101 -0.34507088508851
 1  9.34202828032803 -0.83610120482048  2.38973273087309
 1  10.80512132623262 -1.93933013091309  2.99769119911991
 1  9.53460552775278 -2.46923677367737  1.73425304690469
 1 -9.21275831113111  1.45981829442944 -1.73280577747775
 1 -9.64111891679168  3.07008053005301 -1.09904995119512
 1 -10.56826709170917  2.50355536093609 -2.46311628492849
 1  8.19120471127113 -0.29670045024502  0.26736978657866
 1 -8.06710010521052  0.61190538463846  0.19934628212821
 1  8.33982721482148  3.42806784268427  1.20194957745775
 1  6.59364124482448  3.33332103630363  0.60668324802480
 1  8.09753399109911  3.26380504250425 -0.59112233513351
 1 -8.08053900610061 -3.19487654675468 -1.85599229282928
 1 -8.69688067636764 -3.40243343064306  0.02114825412541
 1 -6.96935148774878 -3.21245389668967 -0.52869175437544
 1  6.35020588508851 -0.20621584838484  0.30612859615962
 1 -6.23766575117512  0.29901183968397 -0.29854013081308
 1  4.91097445474547  2.55743418751875  0.29253216001600
 1 -5.10012011231123 -2.80463397979798 -0.85775791689169
 1  3.93465373207321 -0.34427899779978  0.20114975337534
 1 -3.53700133133313 -0.15429910001000 -0.22329419611961
 1  2.68679937933793  3.50170056615662  1.25425408070807
 1  1.46700390119012  3.16222695449545  0.07150687818782
 1  2.96434349314931  3.32605307880788 -0.39358332793279
 1 -2.85398726832683 -3.58685704160416 -1.56016102690269
 1 -2.96609821562156 -3.65478747164716  0.20402505390539
 1 -1.47186815811581 -3.56185652005201 -0.53885611201120
 1  0.44011641244124  1.34823073827383  0.00372101730173
 1 -1.85684677327733  0.17230521772177 -0.44295202130213
 1  2.15536408090809 -1.10712976267627 -0.54670423462346
 1  0.21513202400240 -2.50647568986899 -0.46789765066507

