%nproc=4
%Mem=2GB
# td=(NStates=1) B3LYP/6-31G(d,p) 

TD

0 1
 6  12.11191553415341  0.44570517101710 -0.72565868476848
 6 -12.26318863296330 -0.07671271287129  0.83130230913091
 6  13.53742315501550 -0.20341000100010 -0.62070806980698
 6 -13.15923242314232  1.17889228072807  1.30102081648165
 6  13.23912622682268 -1.81009668206821 -0.52343410221022
 6 -13.30312490859086  2.08075658775878  0.11668203530353
 6  11.10692248614862 -0.03342907840784  0.28895643344334
 6 -11.03533120092009  0.39086896919692 -0.03573120792079
 6  12.55777021442144 -2.07928022202220  0.71697567386739
 6 -12.06836671927193  2.59339964816482 -0.47513584948495
 6  11.30201990999100 -1.23224527902790  0.95235180358036
 6 -10.93887868206821  1.57960358215822 -0.65843471717172
 6  11.60703129082908  0.18241936703670 -2.16391487008701
 6  12.42405581898190  2.02291634673467 -0.59632115111511
 6 -13.08409600040004 -1.07170428912891  0.10385421532153
 6 -11.81707057505750 -0.72242541614161  2.08595674387439
 6  9.90848891149115  0.82316843044304  0.36461846234623
 6 -9.87378718561856 -0.53283582568257 -0.22936702450245
 6  10.28327250355035 -1.69468928062806  1.99195183008301
 6 -9.95706867706771  1.95235697479748 -1.61000246514651
 6  8.58278451815181  0.53213316951695  0.34962316851685
 6 -8.55368832723272 -0.28205807110711 -0.14782110501050
 6  7.40450901910191  1.35620442074207  0.44485709830983
 6 -7.61774066796680 -1.28390686578658 -0.48861925882588
 6  7.63381643134313  2.81930456765677  0.68148058505851
 6 -7.96466365456546 -2.73879389048905 -0.67102438003800
 6  6.17371127262726  0.83143753275328  0.34058621762176
 6 -6.23560217011701 -0.95182600520052 -0.36830894259426
 6  4.87246789748975  1.47021935383538  0.40959061806181
 6 -5.08088770057006 -1.72167814561456 -0.33315469706971
 6  3.72323103470347  0.81240880608061  0.34615656495650
 6 -3.82373775897590 -1.13274390709071 -0.31639407710771
 6  2.32714601600160  1.38737944564456  0.30764525242524
 6 -2.50329932933293 -1.75811086978698 -0.61802508260826
 6  2.24216858845885  2.90510987748775  0.50451482478248
 6 -2.58462900830083 -3.31466499299930 -0.94861621172117
 6  1.31375292379238  0.59538087968797  0.21410632763276
 6 -1.34891306440644 -1.13003157515752 -0.41877058215822
 6  1.09631400360036 -0.87544249144914 -0.02667018671867
 6 -0.02647210761076 -1.60265650545055 -0.35183893989399
 1  13.90017012281228  0.06862929242924  0.37536557945795
 1  14.18580559435944  0.02953457775778 -1.43807734613461
 1 -12.82005837083708  1.76920931113111  2.11284484928493
 1 -14.20022087968797  0.91486097839784  1.68413485158516
 1  14.12138276027603 -2.25319613731373 -0.35661910771077
 1  12.81966784848485 -2.25242914291429 -1.50818694199420
 1 -13.86121951015101  2.99145250525053  0.36595763336334
 1 -13.79526431023102  1.53664333853385 -0.70590461256126
 1  12.94096606040604 -1.82661516811681  1.72359424142414
 1  12.15146260076008 -3.11049474157416  0.54237109270927
 1 -11.63295308740874  3.38082580328033  0.12710922792279
 1 -12.29453566746675  3.10836434423442 -1.58907280848085
 1  11.39203257375738 -0.76582966026603 -2.45792392509251
 1  12.23579045974598  0.73486814811481 -2.91851842584258
 1  10.79096666796680  0.70638375007501 -2.46351707120712
 1  12.55783673777378  2.18841574347435  0.44252159265927
 1  11.56333474037404  2.66444635553555 -0.80947510451045
 1  13.18275013131313  2.31744201410141 -1.40724299539954
 1 -13.63896312701270 -0.52250625962596 -0.69341544224422
 1 -13.98824099669967 -1.34561036523652  0.97258447914792
 1 -12.42923052625263 -1.86323472837284 -0.30696657915792
 1 -11.18234072497250 -0.04642028142814  2.88363802290229
 1 -11.16320284568457 -1.58024902560256  1.86743075927593
 1 -12.64090815481548 -1.10662513041304  2.67146567466747
 1  10.09275268186819  2.08337319741974  0.18925483338334
 1 -10.05929037373737 -1.65227033703370  0.14211783378338
 1  9.50124420192019 -0.97679527422742  2.44657841544154
 1  10.96357717181718 -1.85688188608861  2.94530596059606
 1  9.70679274647465 -2.50619046904691  1.60046966856686
 1 -9.34177121242124  1.10160247284728 -1.70104260116012
 1 -9.26384118901890  2.72888641064106 -1.50134018021802
 1 -10.44610487548755  2.40961596699670 -2.49041901520152
 1  8.33268885968597 -0.50445122532253  0.37003005260526
 1 -8.09898329352935  0.76742093619362 -0.05780943344334
 1  8.03079631173117  3.05188022392239  1.74423380588059
 1  6.84987686838684  3.43448115231523  0.36231881158116
 1  8.58962320002000  3.30203886588659  0.10674745184518
 1 -8.58980993319332 -2.83458051715172 -1.52240893449345
 1 -8.59026001430143 -3.22023521082108  0.21448758805881
 1 -7.07817236983698 -3.33082573387339 -1.03304218941894
 1  6.08711957645765 -0.12360758755876  0.01602958625863
 1 -6.08981096569657  0.10947288578858 -0.22213249004901
 1  4.86370972827283  2.27504594869487  0.58827173397340
 1 -5.13016311661166 -2.66987050345034 -0.87109925102510
 1  3.57321758845885 -0.34999956985699  0.18452809120912
 1 -3.88328595979598 -0.08283195329533  0.10130826412641
 1  2.45578627802780  3.16315671177118  1.52585124042404
 1  1.23389058985899  3.29739047084708  0.28208793629363
 1  3.02257931673167  3.43745421892189 -0.12545651525153
 1 -3.08370023962396 -3.63352170807081 -1.86442145294529
 1 -2.96902850865087 -3.75447744064406 -0.03373872247225
 1 -1.57998897019702 -3.80424075847585 -0.93089531593159
 1  0.33979638043804  1.14784069926993  0.25170581578158
 1 -1.50000108870887  0.00218820602060 -0.07917564366437
 1  1.98199674417442 -1.57938698839884  0.05229566536654
 1  0.07109762056206 -2.62717776007601 -0.67676853775378

