%nproc=4
%Mem=2GB
# td=(NStates=1) B3LYP/6-31G(d,p) 

TD

0 1
 6  11.95167951055105  0.59482008250825 -0.73925004390439
 6 -12.06785910001000  0.05692065046505  0.85968514741474
 6  13.30370978367837 -0.05948560856086 -0.61055705470547
 6 -12.98270477037704  1.25003939543954  1.25678639303930
 6  13.32433474767477 -1.60957663006301 -0.67307906670667
 6 -13.23361795789579  2.19167767986799  0.13568393549355
 6  10.93845563946395  0.01804606910691  0.23519105690569
 6 -10.92310997879788  0.55560544284428 -0.09951758655866
 6  12.44484892229223 -2.07864015801580  0.50715469176918
 6 -12.01990187278728  2.64647495569557 -0.67762609850985
 6  11.25731543954396 -1.24509656415642  0.78646521492149
 6 -10.91968676287629  1.66177179897990 -0.81692056575658
 6  11.50449103680368  0.56820794589459 -2.15803428202820
 6  12.24188760216022  2.08271232633263 -0.42772429142914
 6 -12.98268585938594 -1.00312743144314  0.12434626452645
 6 -11.59555842384238 -0.67102027562756  2.18419656785679
 6  9.75843390599060  0.80157627122712  0.46680868136814
 6 -9.85508531543154 -0.40207274937494 -0.16660074787479
 6  10.40028420472047 -1.86770658235824  1.91438407330733
 6 -9.84858782898290  2.01905364446445 -1.74519598449845
 6  8.40723696339634  0.42708266446645  0.47689589578958
 6 -8.53179613801380 -0.23217308260826 -0.31719804270427
 6  7.26109467766777  1.33470227052705  0.57185979857986
 6 -7.39380827472747 -1.29929840494049 -0.41637203410341
 6  7.47327037673767  2.78290092729273  0.82855529252925
 6 -7.82960014821482 -2.64523453455346 -0.72131940954095
 6  6.07321122262226  0.71390577957796  0.38376053505351
 6 -6.11883049294929 -0.92891371397140 -0.21092320402040
 6  4.71079172987299  1.42307463936394  0.39653931293129
 6 -4.97036664846485 -1.72292827062706 -0.36509789138914
 6  3.56503521512151  0.67464502970297  0.07571952125213
 6 -3.71412679787979 -1.29704033673367 -0.31112355005501
 6  2.31216451785179  1.27186789448945  0.21130561846185
 6 -2.44411341074107 -1.99715477417742 -0.42253553365337
 6  2.14640901250125  2.72309167566757  0.57830220352035
 6 -2.52047259265927 -3.48476200270027 -0.35921727182718
 6  1.19854140264026  0.42686402800280  0.01733665066507
 6 -1.27969614271427 -1.29930850285028 -0.34839354445445
 6  1.12472684488449 -0.95785073227323 -0.17210473017302
 6  0.00407094669467 -1.70857709750975 -0.29913366936694
 1  13.67886799259926  0.32676510601060  0.41154919781978
 1  13.84416142994299  0.40747237153715 -1.44304784318432
 1 -12.54758112311231  1.55683807400740  2.28340190499050
 1 -14.05995685328533  0.77899739203920  1.35979241734173
 1  14.46076669866987 -2.09551036873687 -0.68798224402440
 1  12.99955583728373 -1.96875077507751 -1.65154127742774
 1 -13.67099048724872  3.01468482848285  0.44289532713271
 1 -13.86097088088809  1.58399807400740 -0.59532355445545
 1  13.03674563836384 -2.18909141574157  1.55406728872887
 1  12.18489594409441 -3.22609630173017  0.37600445604560
 1 -11.80128992109211  3.52273999469947  0.04266078307831
 1 -12.40659687358736  2.85067857565757 -1.75192909410941
 1  10.79648301880188 -0.36377945524552 -2.50159829252925
 1  12.26820370107011  0.74312897419742 -2.71679825382538
 1  10.62362993429343  1.19197230893089 -2.22064278377838
 1  12.48348930303030  2.02197909980998  0.61691903240324
 1  11.40438884578458  2.66659657055706 -0.53066722372237
 1  13.27785964226423  2.46055632553255 -0.92047431853185
 1 -13.28254748544854 -0.57662167116712 -0.76414251495150
 1 -13.87405957855786 -1.28510431463146  0.98112533323332
 1 -12.57099470267027 -1.93314171907191  0.14570868836884
 1 -10.73611610251025 -0.01692733213321  2.67837749684968
 1 -11.03712023742374 -1.41812281298130  1.98751276747675
 1 -12.54309837383738 -0.72779724762476  2.88247677577758
 1  9.84427783438344  1.87700256035604  0.61590749864987
 1 -10.09414385908591 -1.41114622462246 -0.11325770377038
 1  9.65921999949995 -1.28180577527753  2.41915567316732
 1  11.09151996609661 -2.31433763166317  2.59098052805280
 1  9.73163523072307 -2.60037988798880  1.54652427402740
 1 -9.19387642294229  1.17484979757976 -2.34027652455246
 1 -9.04646945184518  2.59858338033803 -1.19593964016402
 1 -10.24993525852585  2.76130113551355 -2.70419039233923
 1  8.08081367216722 -0.63747452765277  0.18194124372437
 1 -8.21497489268927  0.82684687878788 -0.26012966546655
 1  8.10895412751275  2.93407844374437  1.66555593809381
 1  6.59745162586259  3.27041474567457  1.14516709640964
 1  7.79617385508551  3.15542420442044 -0.20989421232123
 1 -8.40012096429643 -2.84229128822882 -1.52043873747375
 1 -8.50989197749775 -3.04549773707371  0.06575271457146
 1 -7.12140669326933 -3.44932758405841 -0.75350423562356
 1  6.06440730523052 -0.33612883968397  0.53920190349035
 1 -5.77153913851385  0.21185312381238 -0.21590186698670
 1  4.76066942424242  2.54281272537254  0.54924783158316
 1 -4.72964306460646 -3.01556507290729 -0.38816095719572
 1  3.68174844154415 -0.36042061196120 -0.43325368696870
 1 -3.50958859005901 -0.15739941004100 -0.24986685338534
 1  2.35312601200120  3.07694809090909  1.69101775707571
 1  1.11677887868787  2.98878961076108  0.45124485198520
 1  2.82076913571357  3.37273774727473 -0.04870884048405
 1 -3.03186505610561 -3.95718407430743 -1.24273928472847
 1 -2.92156376217622 -3.87696968986899  0.63966861826183
 1 -1.58660963226323 -3.89589992439244 -0.57241946834683
 1  0.24835723652365  0.97044295949595  0.32237288248825
 1 -1.56633772237224 -0.22847486028603 -0.17210493659366
 1  2.09243778827883 -1.46838588828883 -0.36650621482148
 1  0.08985949674968 -2.74994003630363 -0.48330919181918

