%nproc=4
%Mem=2GB
# td=(NStates=1) B3LYP/6-31G(d,p) 

TD

0 1
 6  12.19871421402140  0.60352095259526 -0.67204332323232
 6 -12.13799611371137 -0.02905794739474  0.78291747064706
 6  13.45213462616262 -0.24601426142614 -0.68716471547155
 6 -12.98995549544954  1.20024441594159  1.26378709310931
 6  13.09449176337634 -1.72331800420042 -0.84436619541954
 6 -13.45687028312831  2.06224473657366  0.02345271237124
 6  11.07074886878688 -0.05600133563356  0.16714425222522
 6 -10.91141880968097  0.45176505880588 -0.15146278107811
 6  12.30363480088009 -2.19710200420042  0.32359633593359
 6 -12.22676255885589  2.56223653185319 -0.78562689858986
 6  11.17588729672967 -1.24501655615562  0.75093166156616
 6 -11.09102389658966  1.55828144994499 -0.85954482818282
 6  11.80454104180418  0.81233235833583 -2.25224370297030
 6  12.62373578697870  2.01158521362136 -0.09773129212921
 6 -12.98044563536354 -1.01845896459646  0.23855768566857
 6 -11.51021988998900 -0.58559173277328  2.08988713691369
 6  9.90661872447245  0.76723283688369  0.38951095159516
 6 -9.92912271917192 -0.61738428052805 -0.28950303810381
 6  10.30142431873187 -1.70886069776978  1.80322295719572
 6 -10.15565853605361  2.07077881698170 -1.94027549244924
 6  8.52735897559756  0.43261321752175  0.20944915111511
 6 -8.58229118751875 -0.30312017731773 -0.29301562446245
 6  7.42323089128913  1.28785758605861  0.44086669926993
 6 -7.49894878877888 -1.28430690579058 -0.47656805370537
 6  7.54001705140514  2.72414505170517  0.84602703970397
 6 -7.91345853405341 -2.74536454755476 -0.60709798739874
 6  6.17758165966597  0.59225361436144  0.40655281428143
 6 -6.21739034893489 -0.93053387598760 -0.24498661036104
 6  4.88748939963996  1.30862319421942  0.53103276227623
 6 -4.95886549834984 -1.68587456525653 -0.30119150075008
 6  3.70825953755376  0.60190775597560  0.33573552285229
 6 -3.70022540774077 -1.10663129582958 -0.12993543124312
 6  2.31046434783478  1.22485319301930  0.33009749764977
 6 -2.55629462886289 -1.80167522622262 -0.16903018311831
 6  2.24585895749575  2.74119348584858  0.44827920122012
 6 -2.60811135653565 -3.34177770427043 -0.31746309640964
 6  1.23662521102110  0.58186952855286  0.14755967296730
 6 -1.41349952305231 -1.03315188718872 -0.12231093619362
 6  1.07247161936194 -0.84417936513651 -0.07741526122612
 6 -0.10950041044104 -1.55642188198820 -0.17033078907891
 1  13.90611071687169 -0.12038960946095  0.33914195709571
 1  14.12829984378438  0.27040866516652 -1.51203474187419
 1 -12.28721508650865  1.73823621382138  2.03083664846485
 1 -13.92775363296330  0.58019751205121  1.81478791689169
 1  14.00147076907691 -2.11731254895490 -1.07194063986399
 1  12.48899478117812 -1.77974187418742 -1.66091221452145
 1 -14.24701809000900  2.89550291029103  0.38040907850785
 1 -14.06284106790679  1.20639031323132 -0.61358538063806
 1  13.05773773757376 -2.50967347394739  1.25211709370937
 1  11.74641209570957 -3.12687637973797 -0.14387753215322
 1 -11.77696748884889  3.54145186588659 -0.28898238123812
 1 -12.77276349024903  2.79130263806381 -1.64458836003600
 1  11.70316368686869 -0.13561663896390 -2.74658279097910
 1  12.61093797449745  1.60685534683468 -2.72304887888789
 1  10.74494206550655  1.27534064576458 -2.07075779527953
 1  12.86767772187219  1.88002490439044  0.98028536903690
 1  11.62242064896490  2.67978788968897  0.15190103310331
 1  13.44408626492649  2.54263453335334 -0.70018228932893
 1 -13.52939216991699 -0.66793080208021 -0.71592769346935
 1 -13.65798797139714 -1.44660046424643  0.92083930463046
 1 -12.32726032923292 -1.77853625852585 -0.40268615111511
 1 -11.06167865876588  0.24099846044604  2.66258591769177
 1 -10.88535506090609 -1.30596159685969  1.83378739493949
 1 -12.37112117611761 -1.09990445834583  2.62294082218222
 1  9.97383078967897  1.87140200030003  0.46343225112511
 1 -10.29720416511651 -1.57398250825083 -0.36090246824683
 1  9.81144522202220 -0.91127872257226  2.35230898849885
 1  10.91884269836984 -2.22762896079608  2.63199462946295
 1  9.57669973717372 -2.44314416441644  1.44653427502750
 1 -9.40466750205020  1.27335964856486 -2.36320881778178
 1 -9.52041684658466  2.93677719971997 -1.71058110431043
 1 -10.81854211921192  2.13533853925393 -2.87153712701270
 1  8.58277386818682 -0.70107088728873  0.15431848144814
 1 -8.22753614881488  0.70095428952895 -0.24319797229723
 1  8.30348358045805  2.99656469236924  1.62792217471747
 1  6.56498837953795  3.25290299449945  1.23778635833583
 1  8.07837207490749  3.02990165216522  0.05256203330333
 1 -8.25440639283928 -2.93300035913591 -1.64995168876888
 1 -8.73073406170617 -3.08287147444744  0.21553769306931
 1 -7.13079763236324 -3.54238688998900 -0.36141502670267
 1  6.22298316281628 -0.27439266606661  0.19926791009101
 1 -6.08050003460346  0.08615055355536 -0.30908118491849
 1  4.73852721002100  2.40609905400540  0.67358026482648
 1 -5.03226332663266 -2.65135865226523 -0.52785492659266
 1  3.72072233893389 -0.36335090499050  0.03256289468947
 1 -3.72811044224422 -0.10848451855186  0.15033316661666
 1  2.85736643604360  2.99953034913491  1.32703135843584
 1  1.40047724852485  3.18164889668967  0.63947367486749
 1  2.61028808760876  3.55875634913491 -0.38389235883588
 1 -3.07990986058606 -3.70769912581258 -1.11177618841884
 1 -3.06704831063106 -3.73655564846485  0.45668031943194
 1 -1.59565053635364 -3.69427976237624 -0.34837706410641
 1  0.33946634743474  1.20379629482948  0.03988463366337
 1 -1.52315340394039 -0.03059507230723 -0.05781350745074
 1  1.94197274177418 -1.50393944364436 -0.19993955815582
 1 -0.06153564276428 -2.59989503180318 -0.30265112601260

