%nproc=4
%Mem=2GB
# td=(NStates=1) B3LYP/6-31G(d,p) 

TD

0 1
 6  12.08398274087409  0.56465706620662 -0.68515463436344
 6 -12.21882419651965 -0.02460750235023  0.91136031493149
 6  13.41827123982398 -0.34526418641864 -0.48556455545555
 6 -12.92798929882988  1.31246563806381  1.21957267166717
 6  13.22172448664866 -1.80259593199320 -0.59920167896790
 6 -13.41320591669167  2.08336684878488  0.02794316141614
 6  11.06035782968297  0.07685194969497  0.20343788158816
 6 -11.00018768656866  0.44340422272227 -0.10609824462446
 6  12.24141857925793 -2.15903819781978  0.43576755305531
 6 -12.21075095769577  2.64072438063806 -0.61386972287229
 6  11.12819252725273 -1.15098715321532  0.81617818621862
 6 -11.12744753895389  1.62094771657166 -0.78044691839184
 6  11.66874746244625  0.51548267336734 -2.17786626522652
 6  12.58108152155216  2.01087514261426 -0.35917743674367
 6 -13.01556914771477 -1.16583370207021  0.19424325422542
 6 -11.52597146514651 -0.61628480208021  2.12141028922892
 6  9.89091715431543  0.93714982858286  0.42978497899790
 6 -9.91757156405641 -0.64675721782178 -0.33552764056406
 6  10.17548172447245 -1.77000681238124  1.74230686558656
 6 -9.97683065326533  2.06268800790079 -1.76671813671367
 6  8.59881612131213  0.49261921812181  0.31363957015702
 6 -8.56548950735074 -0.40414027932793 -0.23671999489949
 6  7.37948651685168  1.39752855315532  0.44018663126313
 6 -7.50529942384238 -1.40392886798680 -0.37838823572357
 6  7.56621967166717  2.80136277347735  0.68053049004900
 6 -7.82507969616962 -2.73883389448945 -0.79081635923592
 6  6.14800870237024  0.81274566356636  0.31320347934793
 6 -6.28379698959896 -0.90134095669567 -0.32112422412241
 6  4.90208085878588  1.37887021892189  0.46520617961796
 6 -5.07329694149415 -1.62285826362636 -0.42656403800380
 6  3.67241595319532  0.73569113431343  0.25310726002600
 6 -3.83284867006701 -1.11931256395640 -0.26932937063706
 6  2.36633993539354  1.28772948064807  0.33709819771977
 6 -2.49932893229323 -1.78347340604060 -0.32105538563856
 6  2.27122149374938  2.80862022852285  0.52077645094509
 6 -2.50696124152415 -3.28161168766877 -0.55878722882288
 6  1.25814736323632  0.47736907850785  0.16763168016802
 6 -1.39442761586159 -1.06491506350635 -0.16785549064906
 6  1.17743211541154 -1.02802774997500 -0.03264078377838
 6  0.01526206580658 -1.72226846664666 -0.20957471347135
 1  13.73095320112011  0.05025745524552  0.51714975787579
 1  14.12696971077108 -0.00754913061306 -1.32870640904090
 1 -12.15296166116612  1.76303869406941  2.09557312211221
 1 -13.91697255485549  0.98958845114511  1.97385382348235
 1  14.06989761176118 -2.45040585828583 -0.43771721752175
 1  12.84184006570657 -2.01635553555356 -1.67354347764776
 1 -14.13675706390639  2.84729808980898  0.26490752835283
 1 -13.99107389118912  1.18053772797280 -0.62124614671467
 1  12.76665862966297 -2.27908041464146  1.48530041204120
 1  11.81231868636864 -3.05686937903790  0.38750560616062
 1 -11.51254104620462  3.32451017171717  0.10803732073207
 1 -12.33394960886089  3.20124363216322 -1.40718461966197
 1  11.69463283378338 -0.49058213551355 -2.76362449514952
 1  12.32096897759776  0.91538619991999 -2.85148172217222
 1  10.78252582388239  1.09899301100110 -2.30700141964196
 1  12.59540049414942  2.06359326122612  0.57140448094809
 1  11.78506691359136  2.71871178207821 -0.48998315531553
 1  13.51457331363136  2.13059332923292 -1.07902017311731
 1 -13.38608783948395 -0.73506751575158 -0.66473257395740
 1 -13.94178635123512 -1.42936874107411  0.87520474117412
 1 -12.44948255145515 -2.07955636053605  0.10935505300530
 1 -10.89933242414241  0.05929028962896  2.71353101220122
 1 -10.94956148154816 -1.43343434413441  1.88282229842984
 1 -12.38785284928493 -0.92014648254825  2.86142467056706
 1  9.87395080168017  1.92518737883788  0.74167007490749
 1 -10.21733617831783 -1.90084519451945 -0.39565594359436
 1  9.53452753025303 -1.22124971967197  2.45890964856486
 1  10.70139095319532 -2.28072427032703  2.70047147714771
 1  9.69624169136914 -2.50806065606561  1.24167378897890
 1 -8.92911994729473  1.55473778637864 -1.61831432833283
 1 -9.61037584248425  3.12938646064606 -1.51782182838284
 1 -10.46355662066207  2.26639164456446 -2.59057903120312
 1  8.62675826662666 -0.43378415861586 -0.07808475887589
 1 -8.00272366756676  0.69545373947395  0.04514086158616
 1  8.08295152725272  3.06700173607361  1.61037041954195
 1  6.74999688038804  3.44693239743974  0.77345992569257
 1  8.21708594629463  3.28548721072107 -0.02554577747775
 1 -8.29794074627463 -2.79186624572457 -1.79218591219122
 1 -8.43396438473847 -3.02730591789179  0.09245538483848
 1 -6.90057461006101 -3.37562021332133 -1.07963684888489
 1  6.14863572807281 -0.25193041984198  0.23775175847585
 1 -6.02522450705071  0.16114805330533 -0.22927320412041
 1  4.72296565386539  2.42453089718972  0.67420032683268
 1 -5.21910201050105 -2.75422893929393 -0.62106424752475
 1  3.82698296499650 -0.38588315821582 -0.20103046464646
 1 -3.54220185138514 -0.07895156525653  0.00270840414041
 1  2.70652135153515  3.16029642574257  1.53358201350135
 1  1.27939514031403  3.16111684348435  0.71427115461546
 1  2.68865592439244  3.31668214171417 -0.39515348494850
 1 -3.24591646124612 -3.39200755665567 -1.45556056685669
 1 -2.99470107590759 -3.72087408030803  0.18217286868687
 1 -1.67035800710071 -4.10932126652665 -0.71940416681668
 1  0.40553295409541  1.10473638883888  0.15498614381438
 1 -1.38867995659566  0.08888687588759 -0.05280300640064
 1  2.12467101160116 -1.58097714741474 -0.33193275747575
 1  0.02526303710371 -2.78435347764776 -0.24695555645564

