%nproc=4
%Mem=2GB
# td=(NStates=1) B3LYP/6-31G(d,p) 

TD

0 1
 6  12.13856819941994  0.49284988548855 -0.62024814371437
 6 -12.13541585568557 -0.02487752935294  0.84068324722472
 6  13.46339575227523 -0.41274093409341 -0.60105610461046
 6 -13.06745324522452  1.04902929442944  1.22883359775978
 6  13.02541485568557 -1.92788846124612 -0.35756751555156
 6 -13.37357195329533  2.02188070017002  0.04499486658666
 6  11.06263805770577 -0.00144588008801  0.20040757855786
 6 -11.01015868366837  0.28550843314331 -0.02426006080608
 6  12.22551698909891 -2.18662095609561  0.70383435973597
 6 -12.14559444204420  2.51458176637664 -0.62953128902890
 6  11.07388709670967 -1.20372242674267  0.81427799619962
 6 -11.08130292449245  1.45018063986399 -0.80699957365737
 6  11.75982657035704  0.69413053815382 -2.21008948754876
 6  12.63909732313231  1.94080813591359 -0.08579009800980
 6 -13.05371296209621 -1.16156327502750  0.17241107100710
 6 -11.62168103610361 -0.72454562816282  2.18021616981698
 6  9.86779484208421  0.84227034063406  0.29966196669667
 6 -9.91357116401640 -0.59949249134913 -0.24056814461446
 6  10.00183435973597 -1.57791760346035  1.85198783368337
 6 -9.90904387458746  1.99898163726373 -1.64824628952895
 6  8.61947818751875  0.48464842104210  0.11017922412241
 6 -8.56924988338834 -0.28528839413941 -0.10539686258626
 6  7.48488705690569  1.24455325562556  0.36020863346335
 6 -7.59676857075708 -1.24021249634964 -0.29285968286829
 6  7.66444949464947  2.74482711991199  0.59332176917692
 6 -7.92731992019202 -2.69525953705371 -0.60345762336234
 6  6.14917881938194  0.79115350435043  0.16524868386839
 6 -6.23503211311131 -0.84381520412041 -0.17605971767177
 6  4.88729938063806  1.40096242814281  0.29393905290529
 6 -4.95943555535554 -1.54091006880688 -0.31631301290129
 6  3.74799351095110  0.66585415061506  0.25723767306731
 6 -3.73192857805781 -0.95435606830683 -0.32849528722872
 6  2.39159246064606  1.31650235793579  0.19177366526653
 6 -2.50364936433643 -1.65741079977998 -0.48411169126913
 6  2.24746911851185  2.77347671417142  0.52290666396640
 6 -2.53315386078608 -3.19534306080608 -0.75274662476248
 6  1.25745729422942  0.51390273187319  0.12515743274327
 6 -1.31393956705671 -0.98547711971197 -0.27743644874487
 6  1.07694206640664 -0.82964791199120 -0.15058257795780
 6  0.00609114871487 -1.59875611541154 -0.30526428242824
 1  13.90427053285329 -0.08240581108111  0.40477852075208
 1  14.22306932073207 -0.27693606930693 -1.25227876627663
 1 -12.49018538353835  1.80338272847285  1.90028359315932
 1 -13.93291414901490  0.83110260256026  1.73001944004400
 1  13.92554317631763 -2.44818563626363 -0.45529897569757
 1  12.57599348104810 -2.19108300830083 -1.65099122242224
 1 -13.87015040324032  3.00317367736774  0.25876691429143
 1 -13.87058184198420  1.42378205240524 -0.72116613871387
 1  12.60651261506151 -2.19488199479948  1.70523240524052
 1  11.79746720122012 -3.25936962906291  0.44919177477748
 1 -11.63842363446345  3.45480320102010 -0.05135861886189
 1 -12.39339555345535  2.93724723252325 -1.67981188238824
 1  11.58166153665367 -0.20418349564957 -2.64658279097910
 1  12.50424730543054  1.36157081838184 -2.73477005100510
 1  10.80242781408141  1.26243935563556 -2.07577829732973
 1  12.98836979107911  1.90549745164517  0.96364370487049
 1  11.86253466036604  2.75773568446845 -0.21935609260926
 1  13.51862371867187  2.37399766966697 -0.67600987208721
 1 -13.56322555325533 -0.84118812781278 -0.88860496119612
 1 -13.78178035063506 -1.58803460766077  0.69580680138014
 1 -12.22507011021102 -2.07878628352835  0.03605772327233
 1 -10.93790628152815 -0.16398203760376  2.74556421552155
 1 -11.35633215861586 -1.77648864956496  2.04457847404740
 1 -12.37688175217522 -0.73299776767677  3.06873540164016
 1  9.95835924252425  1.91954681478148  0.76149205710571
 1 -10.14594903960396 -1.76462157215722 -0.38576495449545
 1  9.34950902840284 -0.73745133983398  2.14809856745675
 1  10.37097791189119 -2.20339653755376  2.80007143714371
 1  9.39951201840184 -2.34650450045004  1.43750337193719
 1 -9.21079811511151  1.19193150575058 -1.95923842074207
 1 -9.32968777367737  2.86236975897590 -0.95318536473647
 1 -10.25999626462646  2.61455646104610 -2.49955992929293
 1  8.50210580138014 -0.46885766596660 -0.25509245964596
 1 -8.36458985418542  0.91681587568757  0.20152650015001
 1  8.31071430353035  2.97554259015902  1.52338172067207
 1  6.68961084178418  3.38373607780778  0.82564514421442
 1  8.28633287098710  3.32351101310131 -0.21407463036304
 1 -8.43641459365937 -2.65074213331333 -1.62358905250525
 1 -8.39433042134213 -3.02930611791179  0.43225936523652
 1 -6.90877543014301 -3.25802845414541 -0.99472835803580
 1  6.22621348584858 -0.30408563536354 -0.08172018871887
 1 -6.19443142774277  0.21806374487449  0.25736545974597
 1  4.71004436173617  2.50005844994499  0.48848175497550
 1 -4.84759485978598 -2.48361187758776 -0.84532667376738
 1  3.81142140884088 -0.32232680258026 -0.24944530613061
 1 -3.94319195039504  0.15391172107211 -0.24680654735474
 1  2.80638133753375  3.12925332143214  1.41531018631863
 1  1.18235543634363  3.12194292609261  0.69593932143214
 1  2.59782684148415  3.41978245174517 -0.31879584918492
 1 -3.17525939553955 -3.46448480438044 -1.67069208000800
 1 -3.20869247504750 -3.49254124702470  0.00459511091109
 1 -1.42398336963696 -3.53877421182118 -0.81554378077808
 1  0.42142454325433  0.93009892509251  0.34408505370537
 1 -1.29735082368237  0.14889287648765  0.01667394129413
 1  2.09135768026803 -1.36235528522852 -0.19649921412141
 1  0.18510902170217 -2.63207825012501 -0.38264912581258

