%nproc=4
%Mem=2GB
# td=(NStates=1) B3LYP/6-31G(d,p) 

TD

0 1
 6  12.10712505510551  0.51895249574958 -0.72526864576458
 6 -12.00217253135314 -0.07826286788679  0.93243242214221
 6  13.33297270997100 -0.35543520352035 -0.55482148114811
 6 -12.89168566846685  1.12135652715272  1.46302701710171
 6  13.03222553675367 -1.92141781418142 -0.43345510431043
 6 -13.19470406650665  2.01215972807281  0.39279964706471
 6  11.03616541044105 -0.01963769926993  0.30468800660066
 6 -10.92175984378438  0.41409129142914 -0.02385001980198
 6  12.21802624002400 -2.09397169116912  0.89788376467647
 6 -11.97745762836283  2.69952026022602 -0.29045738163816
 6  11.09156886488649 -1.14951700620062  0.98752532093209
 6 -10.99108390259026  1.60765638743874 -0.57004587828783
 6  11.60489107680768  0.49791091619162 -2.18079655825583
 6  12.48609202260226  1.93126718181818 -0.20100161916192
 6 -12.88348593939394 -1.14249136783678  0.19188301820182
 6 -11.31488035603560 -0.70819399299930  2.13392154035404
 6  9.88083614621462  0.89936605020502  0.46778877937794
 6 -9.89781958885889 -0.54179672177218 -0.37296138393839
 6  10.10416459275928 -1.60510032173217  2.04906754165417
 6 -10.08159112931293  2.11076281538154 -1.68037950285029
 6  8.54022026172617  0.57500745694569  0.31719992619262
 6 -8.51630458885889 -0.33707357265727 -0.36098242114211
 6  7.34224279247925  1.38571737203720  0.36664927752775
 6 -7.43043193709371 -1.31207968306831 -0.59202959985999
 6  7.54476752645265  2.86842948014801  0.52765520252025
 6 -7.83597078527853 -2.70133014411441 -1.01084836243624
 6  6.08475237673767  0.73730811981198  0.23923608260826
 6 -6.14279288918892 -0.87941876447645 -0.57275938763876
 6  4.81269191989199  1.45182751465147  0.35100475947595
 6 -4.94941455325533 -1.60396637443744 -0.55811719331933
 6  3.60009872147215  0.73957152235224  0.15887783708371
 6 -3.72741812701270 -0.98589922262226 -0.26624906260626
 6  2.30788408980898  1.31187189488949  0.05874036193619
 6 -2.57854685408541 -1.80533559225923 -0.30953423352335
 6  2.15689006060606  2.86761612811281  0.26034040734073
 6 -2.65259580498050 -3.29948347484748 -0.54130548064806
 6  1.13899544804480  0.47824916651665 -0.09869495249525
 6 -1.31755992909291 -1.13098167016702 -0.26836554165417
 6  1.13447781998200 -0.94629957715772 -0.23293081278128
 6  0.06578711831183 -1.79696593639364 -0.36999075507551
 1  13.81912201800180 -0.18041561206121  0.28498654155416
 1  14.08122513631363 -0.27943631933193 -1.37682122052205
 1 -12.38130449544954  1.67011940214021  2.28861242604260
 1 -13.66814767236724  0.71206069836984  2.08028446654665
 1  14.05461608360836 -2.56716753445345 -0.39478292409241
 1  12.36388226992699 -2.28783268326833 -1.28017414071407
 1 -14.03499688788879  2.78512187218722  0.85909694729473
 1 -13.88703348714871  1.39149882408241 -0.15639966206621
 1  12.71555351915192 -2.07170967756776  1.76177805980598
 1  11.68505596009601 -3.04312800490049  0.98996585218522
 1 -11.53820361246125  3.41765948664866  0.33092960996100
 1 -12.54263047694769  2.96855036283628 -1.21104500570057
 1  11.25263863436344 -0.47538061536154 -2.49886801950195
 1  12.31193807450745  0.91466612791279 -2.73295986998700
 1  10.66812438373837  1.04429754145415 -2.26838755825583
 1  13.03970492459246  1.80896779867987  0.75612295279528
 1  11.56832523942394  2.67253716461646 -0.30993515051505
 1  13.19061091739174  2.38269853975398 -1.07722999409941
 1 -13.49574880558056 -0.49113312231223 -0.58440454115412
 1 -13.55140731333133 -1.67741354555456  1.00647786848685
 1 -12.25837344054406 -2.06138454335434  0.05569968746875
 1 -10.59137162806281  0.04535889648965  2.52396205530553
 1 -10.83053957935794 -1.81439243994399  1.95534955115512
 1 -12.00739480348035 -0.97742221012101  2.80890941904190
 1  10.17636104270427  1.81572643274327  0.85830173807381
 1 -10.21319576427643 -1.55728083808381 -0.55683206120612
 1  9.39291336883688 -0.91739933463346  2.28465222282228
 1  10.54278509260926 -1.95835203310331  2.77328875887589
 1  9.67725979317932 -2.51843169316932  1.65696531813181
 1 -9.48028506380638  1.13790610321032 -1.91340383728373
 1 -9.33923872877288  2.68177169916992 -1.22786283248325
 1 -10.66168643364337  2.39587459285929 -2.48279825312531
 1  8.46371196199620 -0.60251103130313  0.08542159175918
 1 -8.09082247744774  0.85528972307231 -0.36294994749475
 1  7.64808804090409  3.04053908980898  1.72455183768377
 1  6.63191507220722  3.43603130733073  0.29091167086709
 1  8.18535277297730  3.35935459745975 -0.08310153305331
 1 -8.22768372057206 -2.80294735383538 -2.04081077467747
 1 -8.66703769206921 -3.13816700400040 -0.35678953965396
 1 -7.00728528112811 -3.59542219351935 -0.78795768096810
 1  6.16691755625563 -0.36283150995100  0.04440242354235
 1 -6.23135512011201  0.11196313481348 -0.38510878767877
 1  4.88431178847885  2.48766721082108  0.35105801260126
 1 -4.96610671097110 -2.71727524392439 -0.73136527762776
 1  3.88998926562656 -0.27807237713771  0.53569320772077
 1 -3.79713734493449 -0.07770144024402 -0.11630349704970
 1  2.96383708310831  3.10616101220122  0.93002165746575
 1  1.24290149094909  3.24409514131413  0.47785751325133
 1  2.51576863566357  3.36305677917792 -0.69650361996200
 1 -3.35215708530853 -3.65117347324733 -1.39912492329233
 1 -3.23341494729473 -3.63736572947295  0.25168982038204
 1 -1.71951292259226 -3.79900023442344 -0.51535376177618
 1  0.36883928472847  1.04134004920492 -0.37662701750175
 1 -1.25240632923292 -0.02107412021202 -0.02975070117012
 1  2.26297484198420 -1.52759180888089 -0.14360392459246
 1 -0.08710820002000 -2.85056009830983 -0.58189905080508

