%nproc=4
%Mem=2GB
# td=(NStates=1) B3LYP/6-31G(d,p) 

TD

0 1
 6  12.20691503410341  0.57427802830283 -0.54118023692369
 6 -12.00033234733473  0.02054701310131  1.02890206910691
 6  13.37255666836684 -0.32599225922592 -0.38084408340834
 6 -12.84403090299030  1.28137252875288  1.35656637103710
 6  12.95950826502650 -1.75400107250725 -0.67289904870487
 6 -13.39990458655866  1.98999751185119  0.10922128922892
 6  11.00580237413741 -0.03573930943094  0.31855939373937
 6 -10.95743341114111  0.44514439673967 -0.07202483728373
 6  12.18542297969797 -2.26446874087409  0.48958293459346
 6 -12.16299618221822  2.57541784998500 -0.64143247914791
 6  11.13751345934593 -1.34914696919692  0.85305187358736
 6 -10.98175296949695  1.52298792059206 -0.83303217691769
 6  11.70131071877188  0.81431255635564 -2.02899137773777
 6  12.53716713011301  1.97361141624162 -0.04595611461146
 6 -12.92610020082008 -1.11623874257426  0.51769559945995
 6 -11.38389725772577 -0.49050222382238  2.38318646684669
 6  9.84978304090409  0.86617273087309  0.42669466996700
 6 -9.86364617151715 -0.53352589468947 -0.30543463126313
 6  10.09634381068107 -1.96080589228923  1.72869550445045
 6 -10.04722769296930  1.90796253535354 -1.80300176507651
 6  8.54265050475048  0.55313526972697  0.37214542074207
 6 -8.57643060146015 -0.26032589788979 -0.31069739263926
 6  7.42887145534553  1.38100690099010  0.46227884048405
 6 -7.48911780568057 -1.31177965306531 -0.43025342224222
 6  7.53361641134113  2.85673831103110  0.59287172417242
 6 -7.82228941714171 -2.78344835593559 -0.65264254185419
 6  6.13610751225122  0.86051044004400  0.33682584158416
 6 -6.20294890479048 -0.88819964256426 -0.50597270897090
 6  4.87992864356436  1.46604893679368  0.49188884788479
 6 -4.97170678247825 -1.64606058385839 -0.56576795839584
 6  3.66434514611461  0.70342790799080  0.20097204650465
 6 -3.77073245844584 -1.17526815951595 -0.39103154085409
 6  2.34523782518252  1.32298300600060  0.12611709960996
 6 -2.52551155055506 -1.89738479717972 -0.52557583768377
 6  2.11813618521852  2.82535190169017  0.17810218351835
 6 -2.52518306370637 -3.42171569806981 -0.56218756885689
 6  1.24707625612561  0.52401374297430  0.01258617561756
 6 -1.30586875997600 -1.15756432843284 -0.37627633273327
 6  1.11992636483648 -0.84913986118612 -0.15210272997300
 6 -0.00271973237324 -1.68137437723772 -0.28870262626263
 1  13.98194830063006 -0.18542611311131  0.52590063296330
 1  14.08558557235724  0.01081270557056 -1.15981952035204
 1 -12.46194255925592  2.00452284248425  2.00286385118512
 1 -13.79107996559656  0.76855634793479  1.99099553765377
 1  13.84485510751075 -2.54757557525753 -0.78956240204020
 1  12.44039992169217 -1.63376727672767 -1.50481660496050
 1 -14.00889427762776  2.84359771977198  0.47932897049705
 1 -13.88754353815382  1.27967764196420 -0.41020504260426
 1  12.90840280408041 -2.13414592119212  1.53716559855986
 1  11.87332478697870 -3.26676036813681  0.34374122972297
 1 -11.60301009310931  3.33395111581158  0.17379389638964
 1 -12.47689390329033  3.12867637543754 -1.72926682788279
 1  11.07975134563456 -0.00447352465247 -2.49455758845885
 1  12.48676555725573  1.06484114541454 -2.79524609860986
 1  11.13703127442744  1.77840095179518 -1.95573629312931
 1  12.82393334743474  1.80310721262126  1.14789212971297
 1  11.75385379227923  2.75006491739174 -0.23034719171917
 1  13.27345920222022  2.42202247214721 -0.52653492459246
 1 -13.54462369306931 -0.87511152015202 -0.52150825152515
 1 -13.78704087668767 -1.19242504670467  1.27071429212921
 1 -12.41566917011701 -2.07535594049405  0.27834195169517
 1 -10.70124261516152  0.31476583718372  2.78465812491249
 1 -10.88763528892889 -1.43403440414041  2.36005002120212
 1 -12.24668873287329 -0.74745921382138  3.09075760386039
 1  10.13116652325233  1.89601446154615  0.40791669956996
 1 -10.30319476417642 -1.58979408940894 -0.19269564756476
 1  9.32527660516052 -1.14691228592859  2.21534529212921
 1  10.41901271537154 -2.55588178607861  2.50139156915692
 1  9.58200026722672 -2.67755760576058  1.29028865046505
 1 -9.41563859915992  1.19979229182918 -2.23318581548155
 1 -9.42364716961696  2.57731125312531 -1.37499754595460
 1 -10.46045631063106  2.54690969636964 -2.59117909120912
 1  8.39399499029903 -0.53241402160216  0.21254430403040
 1 -8.28742213741374  0.75019921402140 -0.17058071057106
 1  7.79427265936594  3.13752878877888  1.61569095159516
 1  6.53322520322032  3.29434713891389  0.35305788548855
 1  8.28455269296930  3.14061272327233 -0.07788101100110
 1 -8.48787974017402 -2.85959301840184 -1.59308600220022
 1 -8.60121110941094 -3.07207039433943 -0.02068592929293
 1 -7.06065061766177 -3.64386703800380 -0.48312719791979
 1  5.97731859635964 -0.16912213901390  0.14654263756376
 1 -6.10543252785279  0.28488042654265 -0.51073134993499
 1  4.65498885618562  2.41694013811381  0.90679358615862
 1 -5.18964906520652 -2.87063057945795 -0.46083822492249
 1  3.69143941064106 -0.39060363026303 -0.04190455205521
 1 -3.73194082528253 -0.13563723382338 -0.36317818451845
 1  2.59672037143714  3.26865726182618  1.17642629792979
 1  1.01884908570857  3.18656938873887  0.15152487998800
 1  2.66921398019802  3.52745321882188 -0.63342731233123
 1 -3.16951882148215 -3.56044440034003 -1.48806381718172
 1 -2.91333293909391 -4.00182217511751  0.29905455685569
 1 -1.67688866016602 -4.01094142854285 -0.78668089448945
 1  0.20816321712171  1.15597151235124  0.26346699189919
 1 -1.51911299989999 -0.00932294509451 -0.12021974807481
 1  2.16574511901190 -1.37272632233223 -0.15420498469847
 1  0.16437694849485 -2.72562760506051 -0.44233509440944

