--Link1--
%CPU=0-23
%Mem=24GB
%Chk=b-carotene-charged-tunado-freq.chk
# wB97XD/Def2TZVP iop(3/107=0106300000,3/108=0106300000) Freq=(NoRaman,SaveNormalModes)

b-carotene-freq

  0  1
C,12.020006,0.506588,-0.801837
C,-12.019908,-0.015205,0.878373
C,13.320985,-0.31078,-0.704938
C,-12.877739,1.190766,1.300439
C,13.068422,-1.802556,-0.555884
C,-13.315024,2.04444,0.121483
C,10.988235,0.027299,0.235394
C,-10.93626,0.412387,-0.129756
C,12.294026,-2.056608,0.728464
C,-12.091702,2.588421,-0.603072
C,11.138377,-1.109143,0.941602
C,-10.991304,1.573066,-0.810634
C,11.413037,0.374729,-2.212531
C,12.386548,1.98504,-0.567634
C,-12.914132,-1.102023,0.247438
C,-11.368478,-0.59045,2.149128
C,9.811331,0.900805,0.392729
C,-9.859275,-0.575557,-0.3138
C,10.213882,-1.555497,2.043349
C,-9.985232,1.998078,-1.84757
C,8.534234,0.498904,0.297342
C,-8.541649,-0.330399,-0.244136
C,7.353877,1.338416,0.435245
C,-7.475091,-1.307544,-0.400544
C,7.553701,2.800658,0.719571
C,-7.856367,-2.734593,-0.678495
C,6.136094,0.757213,0.299303
C,-6.192858,-0.880204,-0.287417
C,4.843346,1.379243,0.393838
C,-4.987739,-1.655345,-0.403374
C,3.686403,0.697976,0.239656
C,-3.753377,-1.121409,-0.272429
C,2.356515,1.262219,0.321539
C,-2.494183,-1.8289,-0.375375
C,2.227645,2.736817,0.601514
C,-2.533408,-3.306335,-0.653706
C,1.228267,0.51892,0.156475
C,-1.345138,-1.119403,-0.215132
C,1.139052,-0.88934,-0.114265
C,0.001487,-1.612276,-0.277467
H,13.891829,0.035617,0.162961
H,13.934496,-0.104272,-1.585741
H,-12.294446,1.81204,1.987745
H,-13.743541,0.830894,1.8628
H,14.011355,-2.352943,-0.545669
H,12.498801,-2.175007,-1.41098
H,-13.950508,2.866024,0.458418
H,-13.917385,1.449999,-0.569833
H,12.967196,-1.983167,1.592271
H,11.910873,-3.081957,0.748004
H,-11.673024,3.434086,-0.041912
H,-12.381141,3.0014,-1.5735
H,11.190636,-0.664637,-2.457075
H,12.104539,0.763008,-2.964253
H,10.480399,0.935696,-2.287635
H,12.693124,2.157029,0.466126
H,11.560479,2.658257,-0.798373
H,13.220333,2.262099,-1.216313
H,-13.425586,-0.733945,-0.642156
H,-13.668429,-1.434654,0.964563
H,-12.333877,-1.978126,-0.045608
H,-10.666395,0.122669,2.584627
H,-10.822474,-1.512624,1.948117
H,-12.136243,-0.811297,2.894442
H,10.010522,1.95516,0.550598
H,-10.183856,-1.602172,-0.455774
H,9.547362,-0.767728,2.385028
H,10.803173,-1.907117,2.895286
H,9.599155,-2.402067,1.722443
H,-9.320681,1.193089,-2.149589
H,-9.367817,2.822734,-1.477037
H,-10.501094,2.372794,-2.735659
H,8.342296,-0.549123,0.088519
H,-8.218794,0.685535,-0.039394
H,8.111369,2.939441,1.648831
H,6.61639,3.342694,0.809822
H,8.13517,3.270836,-0.077353
H,-8.443481,-2.804643,-1.597362
H,-8.475408,-3.131846,0.12984
H,-6.993268,-3.38603,-0.784801
H,6.122979,-0.309937,0.09357
H,-6.045297,0.17738,-0.084589
H,4.802891,2.441787,0.59777
H,-5.07978,-2.715259,-0.605395
H,3.763025,-0.363851,0.036262
H,-3.680028,-0.056137,-0.069823
H,2.689665,2.999572,1.556635
H,1.18243,3.03929,0.639185
H,2.723199,3.330483,-0.170971
H,-3.043628,-3.505559,-1.599106
H,-3.087123,-3.829768,0.12935
H,-1.54359,-3.749763,-0.711877
H,0.288836,1.053093,0.239715
H,-1.466233,-0.059788,-0.018652
H,2.067118,-1.440961,-0.198447
H,0.133859,-2.668837,-0.475363

