%nproc=4
%Mem=2GB
# td=(NStates=1) CAM-B3LYP/6-31G(d,p) 

TD

0 1
 8  14.70955917491749 -2.22161963306331 -0.48034688768877
 8 -14.85223182018202  1.93990584658466  0.71081017501750
 6  11.47267056105611 -1.12723335743574  1.30378373937394
 6 -12.29395702770277 -0.94403696369637  0.91194671667167
 6  13.02380111211121 -1.52393543164316  1.20463803580358
 6 -13.68573118211821 -0.29271543154315  0.86821571757176
 6  13.37272926692669 -1.95997152425242 -0.32878776777678
 6 -13.60027236723672  1.25821861986199  0.73613539753975
 6  11.01964049004900 -0.40489470557056  0.01536729072907
 6 -11.33334043504350 -0.29588061706171 -0.13446420042004
 6  13.06490070907091 -0.89611036813681 -1.29981085408541
 6 -12.92303306330633  1.52470044704470 -0.60501754375438
 6  11.67700244724472 -0.35897627072707 -1.13319183518352
 6 -11.62963655365536  0.82782910591059 -0.78629816881688
 6  11.18363909090909 -0.25243440154015  2.47272771377138
 6  10.73986342734274 -2.38988947004700  1.46834495449545
 6 -11.72103429742974 -0.88840066806681  2.31948052805281
 6 -12.54711541354136 -2.54499994299430  0.50921282528253
 6  9.71089591559156  0.19986102300230  0.19471615161516
 6 -10.08506987398740 -1.04547863286329 -0.33333201420142
 6  11.15801856685668  0.35290975587559 -2.41205541254125
 6 -10.74075651465147  1.45148553255326 -1.88244755175518
 6  9.44060402740274  1.55118855675568 -0.00850622462246
 6 -8.78855934093409 -0.57464102110211 -0.26774782078208
 6  8.02906889288929  2.20710044994499  0.13482915191519
 6 -7.60038518051805 -1.17615194829483 -0.52406773877388
 6  8.16774725572557  3.66076428132813  0.43983534953495
 6 -7.66043714971497 -2.66091583968397 -0.74026420142014
 6  6.89722512951295  1.58440843474347 -0.04969497549755
 6 -6.50420222322232 -0.51898737383738 -0.38870187618762
 6  5.45255580758076  2.17184489138914  0.09577449344935
 6 -5.04513563556356 -1.02483235933593 -0.44090626462646
 6  4.51112504350435  1.33391880578058 -0.06215184418442
 6 -3.99935535553555 -0.27473367946795 -0.41580891089109
 6  3.09126173117312  1.73507410531053  0.15009667466747
 6 -2.53174693869387 -0.72516684678468 -0.69427708770877
 6  2.77122740374037  3.18940838973897  0.77198990799080
 6 -2.40641613561356 -2.14927222932293 -1.11577261726173
 6  2.00840041504150  1.01669883378338 -0.33887301230123
 6 -1.62592391539154  0.11062076797680 -0.23079490649065
 6  0.63216038503850  1.01437620552055 -0.10181430143014
 6 -0.15560442944294  0.07314520942094 -0.45225286528653
 1  13.54840411241124 -0.64329776487649  1.41873671167117
 1  13.27765300130013 -2.36919750085008  1.91865199719972
 1 -14.51697447444745 -0.73107326432643  1.70497770377038
 1 -14.21814318131813 -0.54645156815682 -0.16823844384438
 1  12.59657485948595 -2.70744548764876 -0.45311337633763
 1 -12.84728018901890  1.54797931593159  1.51907138013801
 1  13.91825275727573 -0.14819753985399 -1.28721460546055
 1  13.22608410141014 -1.37141936903690 -2.43522419841984
 1 -13.76084162816282  1.13967528852885 -1.35601353435344
 1 -12.81038964596460  2.61477354135414 -0.69216609960996
 1  11.48104672467247 -0.71605233133313  3.21002566356636
 1  9.92809867486749 -0.08160767086709  2.47890677167717
 1  11.71057032703270  0.67427716061606  2.33010214521452
 1  11.10899990299030 -3.11085166526653  0.76800218621862
 1  10.86620753775378 -2.75934085118512  2.43351327532753
 1  9.46087208820882 -2.22754374747475  1.60703564656466
 1 -12.05222212221222  0.28779435043504  2.60282417541754
 1 -10.68395290429043 -1.22457961296130  2.55490149414941
 1 -12.28059921892189 -1.61043194819482  3.28558115411541
 1 -13.47614739573957 -3.00401165316532  1.11473598259826
 1 -11.47338038603860 -3.14458648664866  0.71498655465547
 1 -12.54327468546855 -2.72853316131613 -0.63651212521252
 1  8.79375119911991 -0.44152247234723  0.44417860186019
 1 -10.34379411141114 -2.18410213421342 -0.18870850385038
 1  10.21922434143414  0.43515361326133 -2.26875157815782
 1  11.65443387838784  1.29631392229223 -2.47974768876888
 1  11.37888212321232 -0.43802428952895 -3.21439856985699
 1 -11.39976098309831  1.91500472947295 -2.65555704870487
 1 -10.07487302630263  0.87585822282228 -2.28860346634663
 1 -9.97675943094309  2.26599521252125 -1.53192678867887
 1  15.24462101510151 -2.56737564266427  0.52973486648665
 1 -15.13709314431443  1.72294720872087  1.66321452645265
 1  10.23954943694369  2.39633293719372 -0.12618193319332
 1 -8.54926162316232  0.55784788278828 -0.42826763976398
 1  8.87204006600660  4.38807866076608 -0.11295759875988
 1  7.16361975097510  4.09574498339834  0.11972780578058
 1  8.51776648664866  3.79686257315732  1.40441345934593
 1 -8.33375040504050 -3.17560448954895  0.03275743674367
 1 -8.18488424442444 -2.73636265036504 -1.72211854185418
 1 -6.76560540954095 -3.12280593269327 -0.58729552155216
 1  6.97917958095810  0.54085782868287 -0.42425581758176
 1 -6.53369363136314  0.46110595049505 -0.35944832183218
 1  5.21973135713571  3.12713786168617  0.33732598759876
 1 -4.99763358335834 -2.03055436253625 -0.72922032203220
 1  4.76636973597360  0.36788503440344 -0.54253266426643
 1 -3.87626313031303  0.93356847374737 -0.18930613461346
 1  2.84073185818582  3.26156019791979  2.03175937693769
 1  1.88610526352635  3.41960063096310  0.77083949194919
 1  3.28966298829883  3.88072590649065  0.22762226622662
 1 -2.63501563856386 -2.79842698979898 -0.30787383138314
 1 -2.88358786678668 -2.37865898599860 -2.13090705770577
 1 -1.34661146014601 -2.36364653975397 -1.30085312131213
 1  2.33337049504951  0.24194554345435 -0.72670057405741
 1 -2.05767516851685  0.99499941784178  0.43282666966697
 1  0.27600334733473  1.96745945184518  0.59365516051605
 1  0.33837660766077 -0.67465741584158 -1.30334791879188

