%nproc=4
%Mem=2GB
# td=(NStates=1) CAM-B3LYP/6-31G(d,p) 

TD

0 1
 8  14.63149136813681 -2.28421589268927 -0.39008786178618
 8 -14.80062665966597  1.94859671567157  0.63816291029103
 6  11.34632792679268 -1.19536017011701  1.27043040404040
 6 -12.26095372737274 -0.87597015701570  0.93679920192019
 6  12.84561329332933 -1.52074511261126  1.09692726472647
 6 -13.65111772077208 -0.25265142514251  0.80092898889889
 6  13.20212220622062 -2.03263879097910 -0.19886477547755
 6 -13.56029836983698  1.37688048604861  0.74198598259826
 6  10.89019754575458 -0.27955217131713  0.07352310631063
 6 -11.31392849384938 -0.37873890289029 -0.13647440144014
 6  12.93361758075807 -0.92388314541454 -1.34552542554255
 6 -12.80257101710171  1.55666364336434 -0.51907894989499
 6  11.63489823682368 -0.19727010011001 -1.07456597259726
 6 -11.45323891389139  0.85325164816482 -0.76998653765377
 6  11.01203193019302 -0.55852501060106  2.66686712771277
 6  10.46490593159316 -2.52537301840184  1.14630275027503
 6 -11.60655284928493 -0.80507233523352  2.39331791179118
 6 -12.54462516451645 -2.39895533853385  0.69303120712071
 6  9.66119094509451  0.41664270117012  0.32063874387439
 6 -9.99406077307731 -1.06699078407841 -0.33105178617862
 6  11.09302206720672  0.59054351925193 -2.23219742674267
 6 -10.65990842984299  1.47080746474647 -1.78455776277628
 6  9.23521348834884  1.66403984188419 -0.04671004500450
 6 -8.79564004900490 -0.56461001800180 -0.25957700370037
 6  7.99466545254525  2.33107284718472  0.10134580358036
 6 -7.52140728272827 -1.35683001610161 -0.46936226822682
 6  8.11785226622662  3.75189339423942  0.53820518651865
 6 -7.59777088308831 -2.87356710481048 -0.69780995599560
 6  6.88011341834183  1.66494648854885 -0.14065407140714
 6 -6.37191899489949 -0.65247072217222 -0.53594660066007
 6  5.51505205720572  2.09519722662266  0.04760967696770
 6 -5.03466458845885 -1.16662653875388 -0.57182935693569
 6  4.42634656565656  1.34826023992399 -0.10080570957096
 6 -3.86596201620162 -0.35298150425043 -0.55179250925093
 6  3.06003860886089  1.75914651255126  0.12537420242024
 6 -2.54922868686869 -0.80321465156516 -0.61792945294529
 6  2.82823310431043  3.15402485138514  0.59386209520952
 6 -2.24667016101610 -2.23416071817182 -0.97002804280428
 6  2.12644221922192  0.91130829472947 -0.23403252825283
 6 -1.60494181718172  0.15114482038204 -0.43114494149415
 6  0.73649081808181  1.11694646254625 -0.19507362736274
 6 -0.10599946894689  0.08498639353935 -0.55742338233823
 1  13.40583985598560 -0.52655609070907  1.43792863086309
 1  13.29342457845785 -2.32549313041304  1.69656978897890
 1 -14.21594437143714 -0.49796995399540  1.72773997999800
 1 -14.39448081508151 -0.47391431443144 -0.00991261126113
 1  12.78825402740274 -2.96941168426843 -0.36947501250125
 1 -12.77610307130713  1.79255377337734  1.55338481148115
 1  13.76981791379138 -0.15131785188519 -1.40946683068307
 1  12.98566005900590 -1.48734096119612 -2.30762143814382
 1 -13.47033257725773  1.52621394239424 -1.40815874887489
 1 -12.60331893889389  2.69630169416942 -0.44284116711671
 1  11.47481610161016 -1.21754248034804  3.49651431243124
 1  9.92788865386539 -0.50398990909091  2.72028090909091
 1  11.40880015001500  0.55702543544354  3.06412554755476
 1  10.64647365036504 -3.04071465156516  0.13529891589159
 1  10.83061397839784 -3.14439935703570  1.97018694269427
 1  9.20436643764377 -2.33918491159116  1.18500344334433
 1 -11.34013091309131  0.37724329532953  2.49683357635764
 1 -10.63114762376238 -1.49647680268027  2.44713071707171
 1 -12.48955011401140 -1.20700160516052  3.19919251525153
 1 -13.08007778877888 -2.77810906290629  1.58659316831683
 1 -11.60802385038504 -2.96135816381638  0.63469852585259
 1 -13.03166352435244 -2.63205351335133 -0.41243971797180
 1  8.96833865786579 -0.00282860296030  0.85029921392139
 1 -10.26302603460346 -2.20930465446545 -0.36411604460446
 1  9.94742716171617  0.72728282618262 -2.26575127812781
 1  11.57524595959596  1.60347463836384 -2.45212492649265
 1  11.47241147614762  0.22667218011801 -3.26077320732073
 1 -11.10172117911791  1.72402563156316 -2.75251674467447
 1 -9.70627616661666  0.84834547154715 -2.19799440544054
 1 -10.28558031303130  2.32207082008201 -1.36115971197120
 1  14.79751630463046 -2.86039494459446  0.56323821682168
 1 -15.39872930793079  1.41747666166617  1.35839404440444
 1  9.96005148714871  2.44687799169917 -0.35416473147315
 1 -8.57243394039404  0.43566566456646 -0.03733854685469
 1  9.02255511751175  4.22071192409241 -0.05987229022902
 1  7.24564795379538  4.31312672157216  0.64789062206221
 1  8.74119882988299  3.92822570947095  1.46199921792179
 1 -8.04126115611561 -3.37476440554055  0.13429759075908
 1 -8.13622937893789 -3.36469548364836 -1.54635096509651
 1 -6.56004485348535 -3.28814246634663 -0.70966775877588
 1  6.87935959895990  0.76480022292229 -0.75907929992999
 1 -6.45934619661966  0.50855069496950 -0.51336371337134
 1  5.35709509350935  3.19959510741074  0.19244149914992
 1 -4.63583740374037 -2.26914822192219 -0.61756915691569
 1  4.66736983598360  0.31026927282728 -0.37452586358636
 1 -3.93631913591359  0.69828494539454 -0.43414061806181
 1  3.45865365036504  3.21519556145615  1.54314051505150
 1  1.65385203820382  3.52499117001700  0.56870927892789
 1  3.26589061106111  3.85072290619062 -0.04307480348035
 1 -2.82336447344734 -2.98356550365036 -0.36507955195520
 1 -2.72375188318832 -2.59402052215222 -1.89979394639464
 1 -1.24210100910091 -2.41642181728173 -1.09819285528553
 1  2.47843500150015 -0.20593924502450 -0.62707061106111
 1 -2.01043044404440  1.25966588448845 -0.27217383038304
 1  0.42300804780478  1.91297400330033  0.22346814181418
 1  0.44184695469547 -0.92893284338434 -0.79254683868387

