%nproc=4
%Mem=2GB
# td=(NStates=1) CAM-B3LYP/6-31G(d,p) 

TD

0 1
 8  14.70910912991299 -2.15154262536254 -0.57517637063706
 8 -14.91267786478648  2.04497635363536  0.59436853085309
 6  11.51888518251825 -1.09630026412641  1.27179054005401
 6 -12.23932156415641 -0.86576913691369  0.85777129912991
 6  13.04710344234424 -1.37668070617062  0.98879645164516
 6 -13.64208681768177 -0.09622578257826  0.99827872387239
 6  13.34568656265627 -1.93745927302730 -0.42638752775278
 6 -13.57394973497350  1.43971676967697  0.78741052505251
 6  11.02169069506951 -0.21280549664966  0.03926968096810
 6 -11.31579868086809 -0.24162519151915 -0.27004775877588
 6  12.98062228122812 -0.88153891099110 -1.35340621362136
 6 -12.83089384938494  1.67724570157016 -0.54634167616762
 6  11.64815956295630 -0.13434380748075 -1.08217673367337
 6 -11.58740233023302  0.89012533553355 -0.89668920792079
 6  11.26321704870487 -0.27761691979198  2.51943238423842
 6  10.75762520352035 -2.49092957405741  1.36174429442944
 6 -11.54431662566257 -0.64715654365437  2.25777435743574
 6 -12.44810551255126 -2.35868131113111  0.82878478247825
 6  9.64638946494649  0.32215325222522  0.32470915091509
 6 -10.07734910191019 -0.97686177117712 -0.54761344234423
 6  11.10849361436144  0.61974643954395 -2.40119432643264
 6 -10.93022546154616  1.42311269526953 -2.02025133213321
 6  9.32438240524052  1.65713915181518  0.14118874487449
 6 -8.83331381638164 -0.46031958895890 -0.32860390639064
 6  8.05004099009901  2.32452219211921  0.27975364436444
 6 -7.63011815381538 -1.31157549064907 -0.53546887888789
 6  8.06329681068107  3.70002820772077  0.55202656865687
 6 -7.65237634363436 -2.76947669576958 -1.05097527252725
 6  6.90116552355236  1.62410240414041  0.12426242024202
 6 -6.46572837583758 -0.72045752085209 -0.26940994699470
 6  5.45266581858186  2.07358506540654  0.31910682668267
 6 -5.05818694069407 -1.19902977907791 -0.56277845184518
 6  4.45829976097610  1.21476689058906  0.02049642064206
 6 -3.94240966096610 -0.47357356345635 -0.27662499249925
 6  2.94995760076008  1.61214181208121  0.02606427142714
 6 -2.66133989798980 -0.92288661876188 -0.47912557255726
 6  2.68078835983598  3.02152160106011  0.45855856485649
 6 -2.37328282228223 -2.35070237233723 -0.85405644564456
 6  2.10878045304530  0.65624278817882 -0.26905603060306
 6 -1.53946526952695 -0.07928822292229 -0.27897972497250
 6  0.70006717571757  0.80891565946595 -0.18318243824382
 6 -0.11903077207721 -0.20736284138414 -0.47216485648565
 1  13.68501777377738 -0.47793122822282  1.12331716971697
 1  13.24090932693269 -2.13595417651765  1.74986511851185
 1 -14.17860063706371 -0.54018417541754  1.91885909190919
 1 -14.18680004700470 -0.38954587758776  0.20841922192219
 1  12.72450765276528 -2.71452619571957 -0.56935500050005
 1 -12.95535099609961  1.90811532953295  1.50120959395940
 1  13.86553748574858 -0.21260398049805 -1.30469635363536
 1  13.08000949394939 -1.19319154625462 -2.40214089008901
 1 -13.68017356135613  1.66094741574157 -1.27724565756576
 1 -12.60394900190019  2.80507257125713 -0.44765164816482
 1  11.98866748674868 -0.69198992509251  3.42319698069807
 1  10.30188605360536 -0.31159066916692  2.90727960896090
 1  11.68706797679768  0.77584731763176  2.18791792679268
 1  10.84727373037304 -3.29216979707971  0.57769315531553
 1  11.16243716071607 -2.85346026312631  2.43955387938794
 1  9.78741474247425 -2.56311730483048  1.38240318331833
 1 -11.50036693669367  0.48639421042104  2.60435432843284
 1 -10.51692620162016 -1.20334748974897  2.26243224722472
 1 -12.02497365636564 -0.97348825382538  3.12560515651565
 1 -13.11965174617462 -2.68576982898290  1.42885739473947
 1 -11.47006005400540 -2.86555858385839  1.00893594959496
 1 -12.92755311331133 -2.64080438843884 -0.08769724372437
 1  8.88963078707871 -0.47752607270727  0.66203038703870
 1 -10.20828056005601 -2.03160688468847 -0.65269490249025
 1  10.16346876587659  0.91983208110811 -2.10268497149715
 1  11.70211864686469  1.52926721762176 -2.63986370037004
 1  11.18926316131613 -0.20737122422242 -3.12228935893589
 1 -11.72345335233523  1.91016424542454 -2.81241273427343
 1 -10.23827936693669  0.56557719471947 -2.35550015601560
 1 -10.28307006200620  2.21740035303530 -1.71078467446745
 1  15.03911046404640 -2.65731463656366  0.14960685368537
 1 -15.48899833483348  1.77279219321932  1.31834003900390
 1  10.18526400840084  2.28330163406341 -0.07106642164216
 1 -8.64740143714371  0.50674277227723 -0.12500731373137
 1  8.75298816081608  4.23045289818982 -0.26656295929593
 1  7.12810619961996  4.13056846574657  0.47529336233623
 1  8.65526023602360  4.03055594249425  1.38910192819282
 1 -7.99317634763476 -3.53419034813481 -0.17582342134213
 1 -8.32652840884088 -2.87773678777878 -1.99197552755275
 1 -6.57415626462646 -2.99217286938694 -1.14443123512351
 1  6.94000566356636  0.57605134803480 -0.08932232423242
 1 -6.52767302930293  0.33015285518552  0.16388401140114
 1  5.38071745574557  3.08650379827983  0.80535279027903
 1 -5.15342916291629 -2.29145045214521 -0.90006740674067
 1  4.79211231023102  0.32957120302030 -0.44046245724572
 1 -4.24767027102710  0.44752986988699  0.11079387538754
 1  2.79254703970397  3.46675071697170  1.63719992099210
 1  1.48397505050505  3.25658432933293  0.21443385138514
 1  3.13343736573657  3.74746258015802 -0.29407990399040
 1 -2.97909004600460 -2.82962010911091 -0.07131017501750
 1 -2.46090559855986 -2.59475059515952 -2.08202216921692
 1 -1.27214401340134 -2.71111128622862 -0.59308234423442
 1  2.50300745874587 -0.41233988508851 -0.42114001800180
 1 -2.04281368236824  0.76934685258526  0.03794718171817
 1  0.36125187218722  1.89067177307731  0.14834062906291
 1  0.24683745374537 -1.10974092419242 -0.53428101210121

