%nproc=4
%Mem=2GB
# td=(NStates=1) CAM-B3LYP/6-31G(d,p) 

TD

0 1
 8  14.66700491949195 -2.24140161126113 -0.20691954495450
 8 -14.79085568256826  1.82241409740974  1.10945003900390
 6  11.29826312031203 -1.08973960806081  1.26442980398040
 6 -12.13259089108911 -1.00860342034203  0.87683320532053
 6  12.85644437643764 -1.47425046314631  1.08079565156516
 6 -13.52636524552455 -0.31837799779978  0.95278417441744
 6  13.23704569856986 -2.10694622172217 -0.21614650365037
 6 -13.53714605460546  1.20409320732073  0.91505328932893
 6  10.86033455945595 -0.42695691179118 -0.10094434043404
 6 -11.26965406640664 -0.32628365736574 -0.15020577457746
 6  12.85794001300130 -1.04903566066607 -1.28130900390039
 6 -12.91234199419942  1.55890386738674 -0.50026706870687
 6  11.62413716071607 -0.43994436753675 -1.23729224522452
 6 -11.62136572657266  0.72365868886889 -0.94509404840484
 6  11.12313304030403 -0.19836899499950  2.55244568556856
 6  10.56235567656766 -2.35438591969197  1.48077619761976
 6 -11.44616681068107 -0.97747957595760  2.24192277227723
 6 -12.42795349734974 -2.46928237123712  0.47205910991099
 6  9.56962178817882  0.26143718061806  0.07532421242124
 6 -10.14099546654665 -0.97951203620362 -0.55545422642264
 6  11.05243800880088  0.14809927482748 -2.41735594259426
 6 -10.92226466546655  1.49581996599660 -2.03652295929593
 6  9.35892585958596  1.55477891579158 -0.05364073807381
 6 -8.84970545554556 -0.49947350435044 -0.50810185618562
 6  8.09128511451145  2.22230197009701  0.09800546954695
 6 -7.48782392439244 -1.25457979107911 -0.59465479747975
 6  8.14019450045005  3.79382758765877  0.44142550855086
 6 -7.63684479047905 -2.61933168126813 -0.99051922692269
 6  6.91442684968497  1.62679267316732 -0.03802380838084
 6 -6.38891069406941 -0.60605608070807 -0.45456846284628
 6  5.61729228122812  2.19066677357736  0.11408632463246
 6 -5.06739786178618 -1.17788766486649 -0.51678385238524
 6  4.52817674867487  1.56883229712971 -0.12235786478648
 6 -3.99072449244925 -0.34846105220522 -0.42725005500550
 6  3.09009161416142  1.89598019591959  0.11891355635564
 6 -2.56523028702870 -0.67965229532953 -0.53287094709471
 6  2.80389067006701  3.27529697859786  0.57235994499450
 6 -2.23972946694669 -1.99460676277628 -0.90338137813781
 6  2.19029860486049  0.93674083798380 -0.13490261526153
 6 -1.61564288728873  0.23355306120612 -0.15727755475548
 6  0.72937010601060  1.07661242914291  0.03807968796880
 6 -0.19468833783378  0.12900079497950 -0.39156679667967
 1  13.46488576057606 -0.61671510661066  1.18586342434243
 1  12.92207744374437 -2.26575715681568  1.97036716871687
 1 -13.93665644264427 -0.60268042504250  1.84886209220922
 1 -14.26258762576258 -0.70402732573257  0.04284266426643
 1  12.69921512351235 -2.96626136923692 -0.09295736073607
 1 -12.80111557255726  1.50757527552755  1.73419289228923
 1  13.83498443044305 -0.21233395349535 -1.18076396039604
 1  12.90092158515852 -1.51720394749475 -2.20119079507951
 1 -13.64071961596160  1.42602392339234 -1.27776570957096
 1 -12.50311891889189  2.60497256125613 -0.63619050205020
 1  11.61161978197820 -0.69655038113811  3.43679834083408
 1  9.99633549854986 -0.09491900200020  2.75009389038904
 1  11.70718998899890  0.61563129602960  2.29169830483048
 1  10.42397140014001 -3.09681026112611  0.62853823982398
 1  10.76002691969197 -2.94207912501250  2.20353027702770
 1  9.47521352235224 -2.30878187128713  1.51763670667067
 1 -11.13715061506151  0.04479005000500  2.47313120612061
 1 -10.54420892989299 -1.50715787078708  2.10536654065407
 1 -12.19024018301830 -1.36990789578958  2.95391798779878
 1 -13.02681246224622 -2.87806905890589  1.22969747874787
 1 -11.55151819981998 -3.13190521852185  0.53936899289929
 1 -12.54246460446045 -2.48871917991799 -0.70258873287329
 1  8.76199802380238 -0.35261358145815  0.49408359235924
 1 -10.03816354835484 -2.14004772877288 -0.64847448044805
 1  9.96200861986199  0.40068016591659 -2.35337004000400
 1  11.64800323532353  1.05589988088809 -2.82035174917492
 1  11.16170040504051 -0.58255874297430 -3.41326845684568
 1 -11.78736974397440  1.38243147214722 -3.10121161416142
 1 -9.81706724572457  1.08011864886489 -2.10466507250725
 1 -10.86482823782378  2.69102771577158 -1.72510610661066
 1  15.02198875187519 -2.89467837293729  0.39317121012101
 1 -15.18498793379338  1.54402931693169  1.86656486148615
 1  10.31632711471147  2.30284358825883 -0.26330564556456
 1 -8.76586328332833  0.64120621862186 -0.26550136313631
 1  8.97621048304831  4.24931478437844 -0.16464276727673
 1  7.24490787978798  4.10960636953695  0.55053088608861
 1  8.61555626562656  3.89513240014001  1.48773179117912
 1 -8.40241727172717 -3.08161509060906 -0.33538937793779
 1 -8.26733248924893 -2.83010202430243 -1.79781611161116
 1 -6.66506535553555 -3.17944159625963 -1.13249004100410
 1  6.96401806480648  0.71781552445244 -0.25005839783978
 1 -6.59542980498050  0.38658849874988 -0.03932630963096
 1  5.57720710471047  3.14936008390839  0.74380663566357
 1 -4.94476829682968 -2.09205051215121 -0.87041444144414
 1  4.66295939493949  0.64196244214421 -0.36694510551055
 1 -4.04041954595460  0.60390550745075 -0.07046425042504
 1  3.14950273527353  3.44558860076008  1.62243844484448
 1  1.78857551055106  3.59201787268727  0.66907931593159
 1  3.16058008000800  3.89824765866587 -0.14657515351535
 1 -2.59856199319932 -2.92232938003800 -0.28005104910491
 1 -2.87052656065607 -2.26339745984598 -1.67342130913091
 1 -1.15728252725273 -2.38604877997800 -1.05144818081808
 1  2.28009516751675  0.00428177707771 -0.70016792079208
 1 -1.80827022802280  1.22060197809781  0.21609499649965
 1  0.36918266526653  2.01425413131313  0.47143293829383
 1  0.19808257825783 -0.78447839793979 -0.89315689968997

