%nproc=4
%Mem=2GB
# td=(NStates=1) CAM-B3LYP/6-31G(d,p) 

TD

0 1
 8  14.75897411641164 -2.19382685378538 -0.51779063206321
 8 -14.84325092209221  2.08713056905691  0.53087218121812
 6  11.50390368436844 -1.06921755585559  1.19761312231223
 6 -12.36339397139714 -0.85836839683968  0.67910343234323
 6  13.06188492049205 -1.42302534063406  1.00690826282628
 6 -13.74474708370837 -0.15935209520952  0.79261815781578
 6  13.39439143314331 -1.90950647774777 -0.31904679367937
 6 -13.54927726772677  1.39008180618062  0.65115689968997
 6  10.92211073707371 -0.28742295839584 -0.05396964296430
 6 -11.31551865286529 -0.29657068606861 -0.15487624162416
 6  13.07365158415842 -0.89412016911691 -1.36278715171517
 6 -12.81922268226823  1.66970494749475 -0.56641368336834
 6  11.71804655165517 -0.22358273137314 -1.22214073007301
 6 -11.58237182718272  0.87067339033903 -0.80500003900390
 6  11.33872459945995 -0.24753391149115  2.46186662766277
 6  10.69369881088109 -2.37202768386839  1.28297641764176
 6 -11.70327252125212 -0.93631545954595  2.17457603760376
 6 -12.61311201320132 -2.32366780978098  0.16146805080508
 6  9.60815564156416  0.34410544744474  0.12255893589359
 6 -10.03169453645365 -0.99473355835584 -0.28804748574857
 6  11.05366813181318  0.43055752065207 -2.39294350135014
 6 -10.63380581958196  1.44872525652565 -1.84247355435544
 6  9.36006597359736  1.73574701260126 -0.06964233823382
 6 -8.81358184318432 -0.48376193319332 -0.28402944894489
 6  8.01854784078408  2.32020176007601  0.00101577057706
 6 -7.62951809380938 -1.30685501860186 -0.47785311731173
 6  8.06686716771677  3.85048325322532  0.38488985498550
 6 -7.76107721372137 -2.75430517861786 -0.78779895489549
 6  6.89705511251125  1.53413340724072 -0.04237424342434
 6 -6.44349615261526 -0.67542301740174 -0.30265327132713
 6  5.55743629562956  1.92503020992099  0.13892880888089
 6 -5.12621374337434 -1.21664154025403 -0.41757393139314
 6  4.42241617261726  1.19206462036204 -0.00692632163216
 6 -4.03382880288029 -0.44529073517352 -0.19074640464046
 6  3.12525513051305  1.73732433033303  0.29679134413441
 6 -2.61056482048205 -0.95181951205121 -0.31313897389739
 6  2.92444272527253  3.03656310521052  0.75039774877488
 6 -2.31865735973597 -2.26990429252925 -0.76391743174317
 6  2.06960653565357  0.72617978187819 -0.01859098409841
 6 -1.63480480348035  0.02699240514051 -0.11508333533353
 6  0.67542471147115  0.84855962386239  0.08458433843384
 6 -0.20873974297430 -0.11652375747575 -0.14602224222422
 1  13.75610488248825 -0.52461589668967  1.17810264826483
 1  13.21591682768277 -2.20304088518852  1.84242437443744
 1 -14.29661243824382 -0.35919607660766  1.73741094709471
 1 -14.37930929792979 -0.45026194919492 -0.07074869486949
 1  12.82911811381138 -2.76791153425343 -0.61577964296430
 1 -13.03548900990099  1.74662918091809  1.61680115311531
 1  13.86039697169717 -0.18861158125813 -1.23510939493949
 1  13.08073956695670 -1.30534276137614 -2.38067874387439
 1 -13.53194873887389  1.63525484648465 -1.49445737873787
 1 -12.41342994999500  2.73299536353635 -0.78529541254125
 1  11.85267388738874 -0.74947567366737  3.35910057105711
 1  10.27792365736574 -0.04416392649265  2.64367324832483
 1  11.86483575357536  0.77312704560456  2.18779791479148
 1  10.77909691269127 -3.01788236833683  0.46908229422942
 1  11.10641155815582 -2.88300321742174  2.05134505850585
 1  9.55492149314932 -2.11012200530053  1.42101704470447
 1 -11.50296719671967  0.13734930593059  2.42721661466147
 1 -10.88706321532153 -1.72292944794479  2.13917992199220
 1 -12.45256641564156 -1.30916182118212  2.83389598559856
 1 -13.43767354835484 -2.70005125712571  0.71979648864886
 1 -11.80727377537754 -2.97860988898890  0.38995405140514
 1 -12.81755211321132 -2.26186649464946 -0.79524799879988
 1  8.96091791579158 -0.24168248834884  0.48245242924292
 1 -10.19025875787579 -2.05636936093609 -0.31947158015802
 1  9.98415083408341  0.65131522942294 -2.34557926092609
 1  11.41191962696270  1.55249954085409 -2.38438815281528
 1  11.23558779377938 -0.09494998209821 -3.34977210721072
 1 -11.17083809080908  1.67301053005301 -2.74900639363936
 1 -9.89635517451745  0.75333597059706 -2.15517012301230
 1 -9.94670642564256  2.29988860186019 -1.50804440044004
 1  14.87303385638564 -2.82950185528553  0.13445533853385
 1 -15.25212464746475  2.38500341434143  1.37487569256926
 1  10.11408689068907  2.33351665556556 -0.61675099009901
 1 -8.48945564256426  0.59306140414041 -0.30092490549055
 1  8.27351021302130  4.34837469036904 -0.60872717571757
 1  6.96222961196120  4.24669007790779  0.44362019501950
 1  8.57151186118612  4.05082796969697  1.43421643964396
 1 -8.62531956195619 -3.45660258935894 -0.30601644064406
 1 -8.19504526052605 -3.03180219431943 -1.78016434643464
 1 -6.85464431343134 -3.26169982208221 -0.95320211221122
 1  6.91855351835184  0.56134987788779 -0.33773716571657
 1 -6.38626888888889  0.25398523842384 -0.20269264626463
 1  5.30440982498250  2.92676782468247  0.42748500350035
 1 -4.86652047204721 -2.22290359745975 -0.51244864486449
 1  4.64376747574758  0.11811005690569 -0.20697910891089
 1 -4.10828633263326  0.63764888178818 -0.03778098209821
 1  3.71739952495250  3.36020006190619  1.67258345934593
 1  1.77591424442444  3.28445711661166  1.32686509450945
 1  2.98895291729173  3.81593942784278  0.12873237723772
 1 -2.68775091209121 -3.10054720182018  0.08638559455946
 1 -2.99332884088409 -2.61454257435744 -1.62739670667067
 1 -1.27363416241624 -2.57006718181818 -0.98204124012401
 1  2.37623478147815 -0.30671932303230  0.04338643464346
 1 -2.14434383538354  0.84010392829283  0.31500488748875
 1  0.34000974797480  1.92783548944894  0.31220701570157
 1  0.22360513051305 -1.13525347544755 -0.29418700270027

