%nproc=4
%Mem=2GB
# td=(NStates=1) CAM-B3LYP/6-31G(d,p) 

TD

0 1
 8  14.90900911991199 -1.97379485058506 -0.16331518451845
 8 -14.78521511851185  1.88322017801780  0.85998509250925
 6  11.32676597059706 -1.20429106320632  1.16672003300330
 6 -12.29017664966497 -0.94473703370337  0.86180170217022
 6  12.91314004600460 -1.38237127522752  1.13248082008201
 6 -13.68729133813381 -0.19330549054905  0.73430232623262
 6  13.43976597059706 -1.99989551665167 -0.13988887788779
 6 -13.56175851585158  1.29337213521352  0.87357914191419
 6  10.97157568356836 -0.35933014911491 -0.04678892489249
 6 -11.34474157515752 -0.31550257925793 -0.15283603760376
 6  13.18473269226923 -0.98488924602460 -1.35855672867287
 6 -12.78057881788179  1.80530850785078 -0.39454649664967
 6  11.79927467446745 -0.30253062616262 -1.16468498449845
 6 -11.59868345834583  0.87316363936394 -0.70878041704170
 6  11.06801752875288 -0.32877203530353  2.53197363836384
 6  10.65953539453945 -2.58747922902290  1.30339845984598
 6 -11.80761295529553 -1.00943277127713  2.29313789378938
 6 -12.49796049804981 -2.43029847284728  0.41042294629463
 6  9.64835966196620  0.31524256115612  0.13736041604160
 6 -10.01564293129313 -1.00776486148615 -0.35009369036904
 6  11.32010477547755  0.37730219511951 -2.35716992399240
 6 -10.73633607260726  1.44937532153215 -1.77838714571457
 6  9.29206917391739  1.60510394829483 -0.19254462846285
 6 -8.77843832883288 -0.54542809980998 -0.33522456845685
 6  7.99027501350135  2.19365910581058  0.09584525352535
 6 -7.63105824782478 -1.25332966606661 -0.61833716571657
 6  8.25303578457846  3.65319352425243  0.29987135313531
 6 -7.80926203220322 -2.73777352545255 -1.10046022102210
 6  6.84146955395540  1.55177517141714 -0.00649065506551
 6 -6.47259906290629 -0.64237971307131 -0.47205021102110
 6  5.45822637463746  2.15052275917592  0.13970888688869
 6 -5.09932105410541 -1.19362923902390 -0.54622679667967
 6  4.37596152715271  1.36247166106611  0.02400677167717
 6 -4.06432185218522 -0.37998420452045 -0.34323165316532
 6  3.05601820682068  1.76004660256026  0.04407607260726
 6 -2.63157692169217 -0.71322565266527 -0.50844850485049
 6  2.86760704170417  3.27223667256726  0.37168987798780
 6 -2.32245773977398 -2.20325762786279 -0.81408244824482
 6  2.06886646164616  0.86519368326833 -0.08656778177818
 6 -1.66554787778778  0.15041474737474 -0.13158498549855
 6  0.60170733973397  1.15236000390039 -0.09426354635464
 6 -0.17809667866787  0.10114800970097 -0.28976661666167
 1  13.35143441544155 -0.50293372847285  1.44059889788979
 1  13.25548078407841 -2.11376195729573  2.02344247624763
 1 -14.40019279627963 -0.68612876987699  1.43138034403440
 1 -14.12091345834584 -0.63093001600160 -0.10733235323532
 1  12.97012221422142 -3.00223496659666 -0.40709877487749
 1 -12.92748820982098  1.65164968296830  1.65297477047705
 1  13.88712964496450 -0.08528124822482 -1.41563744774477
 1  13.42422391539154 -1.53907613471347 -2.21057173317332
 1 -13.51865740974097  1.60012133313331 -1.31084901790179
 1 -12.45217382438244  2.97233929792979 -0.39095597859786
 1  11.52903152315232 -0.91423214931493  3.31355601660166
 1  10.01906777177718 -0.44447395749575  2.75462434343434
 1  11.47585685568557  0.67273700660066  2.58482761776178
 1  10.67292629562956 -3.09181976207621  0.35285067106711
 1  10.95989690669067 -3.00167508460846  2.17395731973197
 1  9.58585458645865 -2.36836782988299  1.56867181018102
 1 -11.84489138913891  0.10200577157716  2.71736562956296
 1 -10.61905641464146 -1.21399855485549  2.48227423142314
 1 -12.41798295729573 -1.81482238723872  2.94250684668467
 1 -13.44012379337934 -2.80859211121112  1.07408191719172
 1 -11.46982003000300 -3.22084411241124  0.38963401940194
 1 -12.87547790579058 -2.39485979397940 -0.80297877187719
 1  8.90152197619762 -0.48643696379638  0.37175135913591
 1 -10.07051678367837 -2.01306503050305 -0.40909054205421
 1  10.24148656765676  0.69378947684768 -2.31505620862086
 1  12.02037047204720  1.06078036893689 -2.76541625562556
 1  11.13879811481148 -0.56782726982698 -3.05356248624862
 1 -11.24762576957696  1.78654188318832 -2.66035752875288
 1 -9.92154769376938  0.72357299429943 -2.34301890789079
 1 -10.27585934093409  2.39572818581858 -1.35805940194019
 1  15.25700225322532 -2.59201810691069  0.30151204420442
 1 -15.35703513851385  1.27816273027303  1.59678788378838
 1  10.01775725772577  2.21868517241724 -0.53535285028503
 1 -8.79832652965296  0.55510760876088  0.07388257525753
 1  8.83384624662466  4.08985883878388 -0.38890519351935
 1  7.20448383738374  4.18385379427943  0.21442727572757
 1  8.82936764676468  3.92709559645965  1.21257427542754
 1 -8.16177320732073 -3.35281221032103 -0.13674951395140
 1 -8.52141789778978 -2.83232224632463 -1.84880121012101
 1 -6.64041289028903 -3.15664931703170 -1.24454124612461
 1  6.97315897889789  0.60112385528553 -0.08687207920792
 1 -6.62753301530153  0.36481632153215  0.08323594659466
 1  5.36621600560056  3.05882103000300  0.49929218421842
 1 -4.83351717171717 -2.24428573567357 -1.00445784578458
 1  4.59501260026003  0.34808305420542 -0.21800021102110
 1 -4.25105060906091  0.74501961886189 -0.40826803080308
 1  3.44363214821482  3.53363740564056  1.40925712671267
 1  1.91354800780078  3.52613128402840  0.64387679567957
 1  3.34022804480448  3.89711754565457 -0.41333182918292
 1 -2.93330546754675 -2.97890503760376 -0.17578062206221
 1 -2.79945945394539 -2.75588670877088 -1.81891585858586
 1 -1.25594239323932 -2.47222739783978 -0.68057109310931
 1  2.47809496749675 -0.15200385148515 -0.21792969696970
 1 -2.08715811681168  1.13918383628363 -0.05004161716172
 1  0.32405815281528  2.11109381528153  0.10821661666167
 1  0.24683745374537 -0.86253620372037 -0.46485406940694

