%nproc=4
%Mem=2GB
# td=(NStates=1) CAM-B3LYP/6-31G(d,p) 

TD

0 1
 8  14.73800201920192 -2.20434790589059 -0.62633148614862
 8 -14.80226682368237  2.04216607260726  0.58851794579458
 6  11.53812710671067 -1.05596623072307  1.23880724172417
 6 -12.39199683168317 -0.78688124812481  0.89032455445545
 6  13.05656438843884 -1.33572661076108  0.96750432243224
 6 -13.60513312231223 -0.19694585458546  0.67475637163716
 6  13.30762275627563 -1.86985251235124 -0.41914680368037
 6 -13.54068640864086  1.41628442644264  0.60969275327533
 6  11.03956248224823 -0.26141035713571  0.07774352835284
 6 -11.27906500750075 -0.22014304330433 -0.15189594359436
 6  13.02778699769977 -0.74835559265927 -1.36855772877288
 6 -12.72756351635164  1.78121609860986 -0.52492953495350
 6  11.63817856485649 -0.13171354445445 -1.12725124112411
 6 -11.52268585858586  0.86974329732973 -0.80476001500150
 6  11.35150587758776 -0.06432559065907  2.48048848984898
 6  10.66477591859186 -2.23570405150515  1.36376449644965
 6 -11.76789898389839 -0.62624445244524  2.31318989898990
 6 -12.51469217121712 -2.28030347334733  0.64069597359736
 6  9.72970779677968  0.32876391329133  0.24495117511751
 6 -10.08284965196520 -1.07303138813881 -0.54872355335534
 6  11.06473923892389  0.51367583248325 -2.36836104310431
 6 -10.57370980998100  1.35346573057306 -1.97810711771177
 6  9.28761872887289  1.62339577747775 -0.06438181218122
 6 -8.85063554855486 -0.51380493749375 -0.25187623362336
 6  7.96628261426143  2.18561830173017  0.20925659465947
 6 -7.62866800880088 -1.29934426752675 -0.53087841984198
 6  8.06576705770577  3.64078228312831  0.55734710071007
 6 -7.71868297429743 -2.83984373247325 -0.96205638063806
 6  6.82273768076808  1.50106009990999  0.05185517951795
 6 -6.44572637563756 -0.65078055315532 -0.27526053205321
 6  5.49365991799180  1.85486319321932  0.25245016101610
 6 -5.10314143614361 -1.15047492359236 -0.51244341834183
 6  4.45545947694769  1.04814022792279  0.04959933093309
 6 -4.04154957495750 -0.44096030213021 -0.26703403340334
 6  3.01167377237724  1.63476407430743  0.19887155215522
 6 -2.67189095309531 -0.84838916901690 -0.47942560256026
 6  2.75459574057406  2.94591404030403  0.63227593659366
 6 -2.32915840984098 -2.35764306640664 -0.81539257925793
 6  2.11068064306431  0.69524668856886 -0.09151827682768
 6 -1.60296161916192  0.05129483538354 -0.32449427642764
 6  0.60864803380338  0.77248201610161 -0.04717883788379
 6 -0.19374824382438 -0.18481058615862 -0.34600224022402
 1  13.61027029902990 -0.25007844294429  0.88450328832883
 1  13.52710794679468 -1.97462804390439  1.82288242024202
 1 -14.08118089508951 -0.60859101610161  1.74634184018402
 1 -14.17095846284628 -0.67261418441844 -0.03484510451045
 1  12.56028123012301 -2.77557230033003 -0.85502356735674
 1 -12.93627908890889  1.57100161816182  1.52207168016802
 1  13.79107003900390 -0.02612533263326 -1.47412329632963
 1  12.90427192019202 -1.22093432053205 -2.50310098609861
 1 -13.52957850185019  1.68168948994899 -1.47631556455646
 1 -12.35314392139214  2.82145420942094 -0.30627751075108
 1  11.66396501650165 -0.78812953905391  3.16435109610961
 1  10.36965283028303  0.17639812971297  2.59000788178818
 1  12.15590486048605  0.78587832073207  2.31020015501550
 1  10.57494649764976 -2.78291887198720  0.35161054705471
 1  11.10624154115412 -3.02810772787279  2.16714663866387
 1  9.57637363836384 -2.09064005710571  1.85998094109411
 1 -11.76206310631063  0.35986155715572  2.77074096709671
 1 -10.94233874287429 -1.26604375937594  2.51142714671467
 1 -12.68255941494149 -1.07727863286329  2.97348994499450
 1 -13.58358813981398 -2.62125337733773  1.02241675067507
 1 -11.67205025302530 -2.72232426042604  1.04261931793179
 1 -12.68608896689669 -2.54635494349435 -0.37364583858386
 1  8.99542136613661 -0.40234855495550  0.70839502350235
 1 -10.27822755475548 -2.07026075007501 -0.93641327432743
 1  10.08265068406841  0.72748284618462 -2.27582228522852
 1  11.59602803780378  1.57824211511151 -2.45798551255126
 1  11.38177241224123 -0.00430091719172 -3.18934606460646
 1 -11.20869187618762  2.04362759175918 -2.63583507650765
 1 -10.18180371937194  0.39044968196820 -2.51195580158016
 1 -9.59042079707971  2.01507012001200 -1.58773236923692
 1  14.80198675167517 -3.02900180528053 -0.13004111111111
 1 -15.37466690169017  1.86847176117612  1.48915712071207
 1  9.98837431943194  2.32485578947895 -0.46532584758476
 1 -8.67040373737374  0.54054615261526 -0.00325513851385
 1  9.11594445644564  4.15175502840284  0.03754745174517
 1  7.20463385238524  4.38919432833283  0.33682951595160
 1  8.35480019001900  3.85586847374737  1.66106912491249
 1 -8.26186321632163 -3.31455838493849 -0.08025386438644
 1 -8.11567732373237 -3.06564557865787 -1.92189851985199
 1 -6.67116596559656 -3.24081773387339 -0.77302409440944
 1  6.83390505350535  0.27917166006601 -0.12550594259426
 1 -6.50448071007101  0.37250709060906  0.11605922892289
 1  5.27067645164516  2.81376652455246  0.72683493849385
 1 -4.89999381938194 -2.21641294839484 -0.69195659565957
 1  4.60847394639464  0.23797204310431 -0.65338374937494
 1 -4.20010551455146  0.69841495839584 -0.06979418341834
 1  3.26084386938694  3.14387842974297  1.60881708270827
 1  1.56886353935394  3.14099277017702  0.85085749374937
 1  3.25762978497850  3.62637047094710  0.02636214021402
 1 -2.93986612361236 -2.94320146724672 -0.10035307930793
 1 -2.59267877587759 -2.50625174527453 -1.96205017201720
 1 -1.27569436843684 -2.51066124122412 -0.54869790579058
 1  2.34353151115112 -0.35119377047705 -0.46097400140014
 1 -1.87812721372137  1.08082800070007 -0.12612922592259
 1  0.30189593659366  1.77801050695069  0.30828662366237
 1  0.19583235323532 -1.25497544764476 -0.65637322132213

