%nproc=4
%Mem=2GB
# td=(NStates=1) CAM-B3LYP/6-31G(d,p) 

TD

0 1
 8  14.62022024102410 -2.41907937903790 -0.31961081408141
 8 -14.79987658465847  1.98403025902590  0.82974206820682
 6  11.43756705070507 -1.06736737083708  1.16170953195320
 6 -12.34903253525352 -0.95383794379438  0.75905142714271
 6  12.85566429842984 -1.42515555365537  1.08323589558956
 6 -13.72383499249925 -0.21750791079108  0.72537143314331
 6  13.18137013101310 -1.98167369446945 -0.27524241324132
 6 -13.55470781078108  1.36008880688069  0.80281206520652
 6  10.90950947694770 -0.23261747784778 -0.08021226722672
 6 -11.28622572357236 -0.25904693369337 -0.24406516051605
 6  13.04060827982798 -0.96120687778778 -1.33213408640864
 6 -12.82325308530853  1.77332530953095 -0.47503454545455
 6  11.66141088808881 -0.25203557665767 -1.17470598659866
 6 -11.54230782078208  0.91139746274627 -0.80249978897890
 6  11.25845657265727 -0.13976313441344  2.54968540954095
 6  10.51992143314332 -2.34116459755976  1.33665178517852
 6 -11.74383657765777 -0.86520834883488  2.17637621762176
 6 -12.55670637263726 -2.34308975197520  0.18265016901690
 6  9.64909973597360  0.48222925982598  0.17585426542654
 6 -9.95832719971997 -0.99847393239324 -0.60421910291029
 6  11.21947471247125  0.39670413531353 -2.49103331033103
 6 -10.70416285528553  1.46035641964196 -1.93802310931093
 6  9.30100006700670  1.74409784768477 -0.31441681568157
 6 -8.82880336533653 -0.61497505450545 -0.27701874787479
 6  8.07169315531553  2.33523326322632 -0.07892222322232
 6 -7.60050519251925 -1.26124045714571 -0.46250158215822
 6  8.10452093309331  3.82198040294029  0.25143650965096
 6 -7.67160826682668 -2.58774852295230 -1.07285746074608
 6  6.86944235123512  1.68863885778578 -0.09891989798980
 6 -6.41422322532253 -0.69726520162016 -0.24301730773077
 6  5.52204275627563  2.09566727362736  0.09607452345235
 6 -5.00487160916092 -1.24324420052005 -0.38607078107811
 6  4.50037396839684  1.29046446034603 -0.02875850485048
 6 -3.95085050505050 -0.51546775287529 -0.03652098209821
 6  3.08502110711071  1.63655425332533  0.16441810681068
 6 -2.57254101810181 -0.87880221032103 -0.16888454845485
 6  2.80442072307231  3.03387283618362  0.85341805080508
 6 -2.32529802380238 -2.25941324342434 -0.74995603560356
 6  2.15653522852285  0.71933909780978 -0.18015714071407
 6 -1.54916623962396  0.09569927582758  0.02779095209521
 6  0.76521369036904  0.84005877377738  0.18292417241724
 6 -0.12717158615862 -0.11497360246025 -0.18997663766377
 1  13.74995426742674 -0.61164459955996  1.22577741574157
 1  13.17472270827083 -2.31870245134513  1.91646177817782
 1 -14.23162593959396 -0.68989914691469  1.55625283128313
 1 -14.28410977797780 -0.54433135613561 -0.25106672667267
 1  12.72252745474547 -2.87946268936894 -0.67336540154015
 1 -12.77321278227823  1.69060357835784  1.49779925292529
 1  13.87799873187319 -0.17715043514351 -1.10375625962596
 1  13.10332182518252 -1.15507773487349 -2.37240791679168
 1 -13.50976652065206  1.60558187918792 -1.38236616961696
 1 -12.64231283828383  2.86060812481248 -0.29960684368437
 1  11.86990561056106 -0.55544627072707  3.22073673467347
 1  10.21926779177918  0.00997148704870  2.94953383438344
 1  11.76995626562656  0.85549528242824  2.21128026302630
 1  10.63373237623762 -2.83820440054005  0.44914030003000
 1  10.64473539053905 -2.83581849894989  2.34001392539254
 1  9.47771377237724 -1.98427942104210  1.48497344034403
 1 -11.70157705770577  0.09482505350535  2.71961585458546
 1 -10.62628713771377 -1.54458161316132  1.84757076107611
 1 -12.23697485648565 -1.66248715371537  2.98987158315832
 1 -13.52311209220922 -2.65358661066107  0.56364087308731
 1 -11.63199624762476 -2.95548757675768  0.61768682468247
 1 -12.49609996799680 -2.42581288928893 -0.89472794679468
 1  8.92214403840384 -0.07472579267927  0.72389657365737
 1 -10.29552928492849 -2.07241096509651 -1.13691332433243
 1  10.28992141114111  0.89099919781978 -2.42132683568357
 1  11.90366880188019  1.27365165606561 -2.80563027702770
 1  11.25503973897390 -0.48311879897990 -3.19630676067607
 1 -11.57181818881888  1.74277750675067 -2.74440593359336
 1 -10.05053059205921  0.65173581058106 -2.35266987298730
 1 -10.25732748774878  2.44540315331533 -1.66278987498750
 1  14.82088864186418 -2.88176708180818  0.47519941294129
 1 -15.21568100310031  1.48243315731573  1.54442264726473
 1  10.13560904290429  2.14138744264426 -0.62411172617262
 1 -8.64345104210421  0.33375547354735  0.09894508150815
 1  8.58172103410341  4.29916976987699 -0.62182848584859
 1  7.00728411741174  4.19033444234424  0.28433426642664
 1  8.54054876487649  3.80609349624963  1.27840085808581
 1 -8.37470450045004 -3.36217314641464 -0.84035987498750
 1 -8.28936469246925 -2.55566458055806 -1.92137846784679
 1 -6.78351720072007 -3.16525017711771 -1.14800159215922
 1  7.04780644364436  0.65530927382738 -0.36941033303330
 1 -6.40762102410241  0.42935277517752 -0.14592696969697
 1  5.24360374437444  3.04468961686169  0.26772902790279
 1 -4.90976479647965 -2.04190549764976 -0.80347774777478
 1  4.93895699469947  0.13433167906791 -0.26700511151115
 1 -4.30229573357336  0.51530664756476  0.09958275427543
 1  3.23801158615862  2.89241328322832  1.86179238023802
 1  1.76119277227723  3.07832650355035  0.65978838683868
 1  3.48640266226623  3.60183801770177  0.28288779277928
 1 -2.66543868086809 -3.07265441254125 -0.01953499749975
 1 -2.62634214221422 -2.39965108520852 -1.58508247524752
 1 -1.15219201820182 -2.36784695979598 -1.07836087208721
 1  2.46834399239924 -0.12266091719172 -0.78702660666067
 1 -1.87814721572157  1.04339425732573  0.49926331333133
 1  0.50637638463846  1.73955666156616  0.82508830383038
 1  0.31549431943194 -0.96415636573657 -0.59745732973297

