%nproc=4
%Mem=2GB
# td=(NStates=1) CAM-B3LYP/6-31G(d,p) 

TD

0 1
 8  14.70827904690469 -2.30106757785779 -0.31174002700270
 8 -14.70262685968597  2.09598145414541  0.76519561356136
 6  11.45258855285529 -0.97485811991199  1.14495785678568
 6 -12.25726335833583 -0.87889044904490  0.76938246024602
 6  12.95260399239924 -1.41892493059306  1.03229080108011
 6 -13.62155476447645 -0.19586574657466  0.66876577257726
 6  13.32346434043404 -1.84375990309031 -0.32223711271127
 6 -13.43949628962896  1.35512831083108  0.74784656865687
 6  10.96901542754276 -0.35158937503750 -0.01622586858686
 6 -11.33510061106110 -0.26387741674167 -0.20970172417242
 6  13.00067428642864 -0.87825858295830 -1.37098797179718
 6 -12.74918567856786  1.76710468746875 -0.49086612861286
 6  11.64042878987899 -0.18320869396940 -1.18662717871787
 6 -11.57572116211621  0.96798312131213 -0.73258279727973
 6  11.25671639863987 -0.28778793689369  2.41603204420442
 6  10.62963240424043 -2.37163764486449  1.36275439543954
 6 -11.75304749874987 -0.89352118011801  2.20761934193419
 6 -12.69725042704271 -2.38091353435344  0.38518042204220
 6  9.58940376637664  0.37165820272027  0.10694737473747
 6 -10.08625999299930 -1.12635672067207 -0.52456113711371
 6  11.12751551655166  0.53926839173917 -2.45752995999600
 6 -10.60727316631663  1.55087547154715 -1.86478578557856
 6  9.41191115811581  1.64746818471847 -0.05531090509051
 6 -8.88722920792079 -0.55936949394939 -0.36733777977798
 6  8.05425141114111  2.33282302220222  0.22234790379038
 6 -7.55708085008501 -1.34699903300330 -0.51020635263526
 6  7.98710919191919  3.73549175407541  0.58106947294729
 6 -7.64566567256726 -2.86212596069607 -0.87945812081208
 6  6.89763517051705  1.60276026992699 -0.06027603360336
 6 -6.40846264926493 -0.71073654875488 -0.39037204320432
 6  5.52753330533053  2.03544125102510  0.04728964496450
 6 -5.08357947994799 -1.24690456655666 -0.44836701070107
 6  4.37434136513651  1.22286770067007 -0.10772640164016
 6 -3.96492191219122 -0.50052625872587 -0.28212554255426
 6  3.05312791779178  1.68260885878588  0.11279294429443
 6 -2.58848261226123 -0.84755908600860 -0.30611827182718
 6  2.85868614961496  3.12126157505751  0.41594430343034
 6 -2.31050654465447 -2.26716401850185 -0.61033207320732
 6  2.07965754075408  0.73643080698070 -0.09370849584958
 6 -1.60324164716472  0.06381608750875 -0.07471929892989
 6  0.61993916291629  0.83971873977398 -0.02561668166817
 6 -0.23326219521952 -0.13910601570157 -0.17684532453245
 1  13.50544981698170 -0.51393482858286  1.44678951695169
 1  13.33708894489449 -2.17237781888189  1.86449658165817
 1 -14.32088486548655 -0.35365552255226  1.57382458845885
 1 -14.17678904590459 -0.53202012501250 -0.29450107010701
 1  12.66867206920692 -2.84332907600760 -0.75614367936794
 1 -12.84607006800680  1.75295981398140  1.63291276427643
 1  13.77239817181718 -0.14516723682368 -1.33256914091409
 1  13.15157665066507 -1.24541676877688 -2.33952462846285
 1 -13.41520706470647  1.73087440844084 -1.44052198519852
 1 -12.43557216421642  2.64405646964696 -0.46402328532853
 1  11.76275489548955 -0.91291201730173  3.29309397039704
 1  10.11726759175918 -0.38341785188519  2.74054293529353
 1  11.48814808480848  0.77367710061006  2.39604873987399
 1  10.79084808780878 -2.89049963006301  0.32448783478348
 1  10.92857377437744 -2.90825574267427  2.30908083208321
 1  9.51008700970097 -2.27591858495850  1.46084102710271
 1 -11.86636353635364  0.08882445344534  2.58210210321032
 1 -10.66795130413041 -1.18711586658666  2.22067807180718
 1 -12.44868602760276 -1.39262016701670  2.77612020802080
 1 -13.36779656065606 -2.68970022202220  1.18950345934593
 1 -11.76943999199920 -3.09163119111911  0.45414047004700
 1 -12.88747910591059 -2.31321162916292 -0.68988746274627
 1  8.94832665666567 -0.34298261836184  0.83710789478948
 1 -10.47092682468247 -2.11626535053505 -0.75631526452645
 1  10.15897831683168  0.97401749964996 -2.51038574157416
 1  11.88559699469947  1.46121041194119 -2.52643235723572
 1  11.11339557455746 -0.03175366246625 -3.31504863486349
 1 -11.20133114011401  2.22926615561556 -2.47902939593959
 1 -9.90061560056006  0.96074671167117 -2.37197180318032
 1 -9.87505926092609  2.31511012401240 -1.45680927692769
 1  14.75643219621962 -3.36869577467747  0.05642753575358
 1 -15.07742717771777  1.98980389438944  1.63385159015902
 1  10.26425190719072  2.18921222512251 -0.40784009900990
 1 -8.59282597959796  0.34343644164416  0.11865705270527
 1  8.81128399039904  4.32348220112011 -0.04173047604760
 1  7.00342373137314  4.18214362326233  0.54220005300530
 1  8.27767247724772  3.99232211911191  1.74527754575458
 1 -8.05065209520952 -3.45544247334734 -0.05670150915091
 1 -8.20473622962296 -3.00772978707871 -1.72646897689769
 1 -6.57142599159916 -3.08841249334934 -1.04374116611661
 1  6.88338000100010  0.59966370927093 -0.39362275427543
 1 -6.43299356135614  0.23476331623162 -0.01826420342034
 1  5.21119050305030  3.06978212611261  0.18964121912191
 1 -4.94626844684468 -2.17473878097810 -0.88039543954395
 1  4.58446154515452  0.39978822472247 -0.30310872187219
 1 -4.12240774477448  0.64239935683568 -0.16635383938394
 1  3.21857964296430  3.39441348324833  1.42258845984599
 1  1.84476112911291  3.38827749864987  0.61723413141314
 1  3.15064908690869  3.75730356425643 -0.44185468146815
 1 -2.82748488548855 -2.96004315141514  0.12538949494949
 1 -2.43455296329633 -2.44917603770377 -1.66133010001000
 1 -1.19039583858386 -2.57184735983598 -0.54950798679868
 1  2.47746490449045 -0.33902255335534 -0.18874677867787
 1 -2.04272367336734  1.17593751165117  0.05509889688969
 1  0.17169291629163  1.74552725862586  0.17376317131713
 1  0.10728349834984 -1.25234518461846 -0.49291687568757

