%nproc=4
%Mem=2GB
# td=(NStates=1) CAM-B3LYP/6-31G(d,p) 

TD

0 1
 8  14.82640085908591 -2.22050952205220 -0.29269812281228
 8 -14.79935653265327  2.03116497249725  0.86266536053605
 6  11.52623591759176 -1.06017665176518  1.22570593159316
 6 -12.41547917991799 -0.83274583458346  0.80290581258126
 6  13.03543227522752 -1.40958399649965  1.17581515351535
 6 -13.70408301730173 -0.15605176517652  0.82258115411541
 6  13.39746174017402 -1.92032755985599 -0.19628451745175
 6 -13.52645498549855  1.33241603960396  0.88893067706771
 6  11.04265279127913 -0.26909112521252 -0.04133837983798
 6 -11.39970707170717 -0.28041907090709 -0.15686644064406
 6  13.11783600260026 -0.91424218131813 -1.22211308430843
 6 -12.78662942294229  1.71876985398540 -0.46902394439444
 6  11.72921766876688 -0.22667304040404 -1.16535505150515
 6 -11.69187277727773  0.93543986698670 -0.76618615761576
 6  11.38696942394239 -0.24476363446345  2.60078051905191
 6  10.83892333333333 -2.33873435453545  1.44250237023702
 6 -11.68021021502150 -0.94318614661466  2.21130971097110
 6 -12.68881958395840 -2.37241268426843  0.37637954195420
 6  9.67851267726773  0.39305034193419  0.12684936493649
 6 -10.23514488148815 -1.07522160716072 -0.52454113511351
 6  11.19609237423742  0.49452391729173 -2.34843905090509
 6 -10.67207964696470  1.49578996299630 -1.76048535553555
 6  9.28919888688869  1.59875331323132 -0.17479285328533
 6 -8.97371785678568 -0.53045660266027 -0.28471951795180
 6  8.01413739973997  2.21472121202120  0.17027269626963
 6 -7.66027116911691 -1.33525785888589 -0.51866719871987
 6  8.12279276027603  3.71271947684768  0.58659002500250
 6 -7.62427353335334 -2.68780852895290 -0.79200937593759
 6  6.94734014101410  1.54425441934193 -0.02215222122212
 6 -6.45319712271227 -0.73040851595160 -0.28817182318232
 6  5.52952350435044  2.03949165606561  0.15289020502050
 6 -5.11072219421942 -1.10287016311631 -0.44261643564356
 6  4.47143107410741  1.20178559245925 -0.10616624562456
 6 -3.97294271427143 -0.47574378047805 -0.32451978197820
 6  3.01140374537454  1.67978857675768 -0.08128646364636
 6 -2.62458622262226 -0.81731606170617 -0.50741840184018
 6  2.71109139013901  3.08132758165817  0.30206291529153
 6 -2.41291678567857 -2.13280058215822 -1.13364440444044
 6  2.15131470647065  0.71709887378738 -0.29578870387039
 6 -1.61390271327133  0.09530923682368 -0.34467629462946
 6  0.66222339133913  0.82018678657866 -0.13311743174317
 6 -0.26096496549655 -0.08379048414842 -0.28607624762476
 1  13.71029030103010 -0.69474290939094  1.49561439943994
 1  13.23568880488049 -2.23679426052605  1.87855798779878
 1 -14.32989576657666 -0.47434759175918  1.80105731173117
 1 -14.11854322132213 -0.39912683568357 -0.02435405540554
 1  12.88539374137414 -2.83535827892789 -0.62938100310031
 1 -13.01747720872087  1.66555107310731  1.73206267926793
 1  13.90660159215922 -0.17732045214521 -0.83481936593659
 1  13.27281877487749 -1.27529975707571 -2.16910758675868
 1 -13.49688523252325  1.54833615461546 -1.04091202420242
 1 -12.42737134413441  2.77830989498950 -0.28993587658766
 1  11.82651127112711 -0.66146687278728  3.46160082108211
 1  10.13777964296430 -0.23164267436744  2.66375525652565
 1  11.75426469646965  0.73618335123512  2.44526366136614
 1  11.00231923492349 -2.99344992509251  0.48677406340634
 1  11.07553847084709 -2.87090200730073  2.54209413341334
 1  9.69427542854285 -2.10972196529653  1.43021796479648
 1 -11.55960286028603 -0.07874230323032  2.72960685368537
 1 -10.90129463846385 -1.67292444744474  2.22104810881088
 1 -12.51514267326733 -1.43478438343834  2.81265386138614
 1 -13.44648442944294 -2.94065531753175  0.88124263326333
 1 -11.84242729072907 -3.10926295429543  0.42315737173717
 1 -13.16644700270027 -2.43779408740874 -0.64840331433143
 1  8.82658448244825 -0.04627294739474  0.67782196619662
 1 -10.42863259525953 -2.10771449544955 -0.74515414841484
 1  10.15883830283028  0.81266136403640 -2.38324302730273
 1  11.72565100010001  1.42396668756876 -2.47762747674768
 1  11.59039327432743 -0.12772325942594 -3.19373650365037
 1 -10.95542654965497  2.11906513551355 -2.66340783378338
 1 -9.94020955995600  0.89343998099810 -2.14922952895290
 1 -10.31331308630863  2.31113972697270 -1.25872946894689
 1  14.80115666866687 -2.91801070617062  0.26964885788579
 1 -15.26348578357836  1.90167508150815  1.78975718071807
 1  9.97411289328933  2.21046435033503 -0.61380069506951
 1 -8.69212590959096  0.40558265626563  0.00480566756676
 1  8.28376123812381  4.32446229912991 -0.49333563656366
 1  6.98332172117212  4.02124753365337  0.97800363336334
 1  8.96603131313131  3.74046693359336  1.35888890689069
 1 -8.11903893389339 -3.40547747684768  0.00436459745975
 1 -8.23185894189419 -3.01311032513251 -1.78354468446845
 1 -6.69518836783678 -3.31495514761476 -0.93328012001200
 1  7.08314997799780  0.54371811471147 -0.52386577857786
 1 -6.44441470347035  0.38357819771977  0.07935555855586
 1  5.30409979397940  3.03783893179318  0.35450770577058
 1 -5.05937975797580 -2.17338864596460 -0.59210661066107
 1  4.82394549354936  0.40281852775278 -0.57390580158016
 1 -3.95996150015002  0.72828794569457  0.04280707670767
 1  3.36391417641764  3.30636467836784  1.16312251325132
 1  1.69656630963096  3.08875754665467  0.66950935893589
 1  2.84164818681868  3.68384621852185 -0.61954245024502
 1 -3.15733787078708 -2.87176432353235 -0.54209725372537
 1 -2.64822433043304 -1.94463558365837 -2.27284125112511
 1 -1.40404720372037 -2.54512468756876 -1.30256329232923
 1  2.46103326132613 -0.41812046314631 -0.51590949494949
 1 -1.91042044304430  1.17990790869087 -0.08436504950495
 1  0.19616536353635  1.74253695959596  0.33174896989699
 1  0.25185795579558 -1.18012796289629 -0.61835941994199

