%nproc=4
%Mem=2GB
# td=(NStates=1) CAM-B3LYP/6-31G(d,p) 

TD

0 1
 8  14.72271049004901 -2.21931940304030 -0.66240509350935
 8 -14.81552814981498  1.97265912191219  0.64498359235924
 6  11.52418571257126 -1.01486212031203  1.26350971197120
 6 -12.35963359535953 -0.89066162616262  0.69641516351635
 6  12.98315704770477 -1.48608164626463  1.00498807080708
 6 -13.65430803980398 -0.14625078507851  0.69539843584358
 6  13.37828982298230 -1.89163469056906 -0.42598748774877
 6 -13.56117845784578  1.33177597559756  0.59158094209421
 6  11.10898942494249 -0.18266248234823 -0.02345659165917
 6 -11.36091319231923 -0.23131416041604 -0.28831958595860
 6  13.01864608360836 -0.80795155225523 -1.44655552855286
 6 -12.70562132213221  1.87366534353435 -0.55663270527053
 6  11.63931867886789 -0.12761313441344 -1.23529204520452
 6 -11.61401499149915  0.91830815381538 -0.83286282528253
 6  11.39610033703370 -0.19671882998300  2.55044548554855
 6  10.61241068206821 -2.30063054415442  1.35520364036404
 6 -11.79638183218322 -0.79049087708771  2.11289986998700
 6 -12.62300300230023 -2.31940738373837  0.37694959895990
 6  9.76436126212621  0.45727676457646  0.27507418741874
 6 -10.13858522552255 -1.01450553555356 -0.54375305630563
 6  11.16378914391439  0.57108157305731 -2.39029323632363
 6 -10.72914535353535  1.47482786678668 -1.97411671867187
 6  9.38859882688269  1.69110254815482 -0.19197457145715
 6 -8.89920040504050 -0.51582513951395 -0.30790183618362
 6  8.05113109910991  2.32646238613861  0.03174884388439
 6 -7.63903904590459 -1.23177751085109 -0.37355268726873
 6  8.09279976097610  3.80577878277828  0.38754012001200
 6 -7.70501160716072 -2.78368811691169 -0.73052322732273
 6  6.99427483448345  1.55671566546655 -0.13389339533953
 6 -6.44297610061006 -0.59282475757576 -0.24377738373837
 6  5.55383593559356  2.01688939583958  0.13442835883588
 6 -5.13416453845385 -1.16075595169517 -0.35448762276228
 6  4.50691462246225  1.14599001290129  0.09097346834683
 6 -4.01333675367537 -0.48319452555255 -0.24398172817282
 6  3.14064666966697  1.50074067196720  0.28978064306431
 6 -2.62496626062606 -0.88999332943294 -0.29174683468347
 6  2.71559184018402  2.91239068796880  0.54020672967297
 6 -2.44289978397840 -2.26897419951995 -0.73626466646665
 6  2.10935051005101  0.49440660456046  0.18427930293029
 6 -1.65563688668867  0.03320302620262 -0.04423625062506
 6  0.71535870487049  0.72893766166617  0.19998587858786
 6 -0.21553042204220 -0.23142524762476 -0.12419005900590
 1  13.46502577457746 -0.92794622972297  1.36901173917392
 1  13.27185242124212 -2.32348292939294  1.78513864586459
 1 -14.16724950195020 -0.58282843984398  1.49409661566157
 1 -14.22781414841484 -0.37043396639664 -0.18120974097410
 1  12.60257545954595 -2.76466120922092 -0.63809187418742
 1 -13.04435989698970  1.68859337733773  1.54042351535154
 1  13.83548448044805 -0.21304402450245 -1.33614949894989
 1  13.17647914091409 -1.34087631473147 -2.42707338333833
 1 -13.39685522952295  1.72676399739974 -1.36356428942894
 1 -12.36311491849185  2.90288235223522 -0.35207209020902
 1  11.83726234623462 -1.05103582968297  3.38577323832383
 1  10.41747761276128  0.08264875477548  2.92168104910491
 1  11.84562383238324  0.72713244614461  2.64157329232923
 1  10.57893689668967 -2.91376195629563  0.20487587358736
 1  11.15254617161716 -2.91642655975598  2.09501942594259
 1  9.58075407640764 -2.10537153025303  1.67133207620762
 1 -11.80497739773977  0.12357792879288  2.74485837883788
 1 -10.71901641064106 -1.27977513251325  2.17009301330133
 1 -12.38167932693269 -1.29354025902590  2.75820841684168
 1 -13.44418419941994 -2.63904515651565  0.91444595359536
 1 -12.00905395339534 -3.01829385738574  0.57817287328733
 1 -12.97141749974998 -2.58578888688869 -0.81697017101710
 1  9.03229505350535 -0.09808812891289  0.72051623562356
 1 -10.40273000500050 -2.08205192919292 -0.87136676967697
 1  10.02362478147815  0.74340443834383 -2.45358006100610
 1  11.85681411641164  1.44730902180218 -2.49665937993799
 1  11.42607684268427  0.13200271317132 -3.28787591759176
 1 -11.36562756975698  2.00058328732873 -2.87737923092309
 1 -10.02327786678668  0.74487512451245 -2.37884249024902
 1 -9.98623037803780  2.32951156415642 -1.57442103810381
 1  14.93314986798680 -3.01828073317332 -0.02450055705571
 1 -15.48091752675268  1.38032294629463  1.14852305730573
 1  10.16401188318832  2.37760106400640 -0.55171448644865
 1 -8.84538123512351  0.59542164016402 -0.21497631063106
 1  9.03732659465947  4.21794164706471 -0.17485378837884
 1  7.17379076807681  4.42579798869887  0.06411224422442
 1  8.34156886688669  4.06783967086709  1.61778479647965
 1 -8.26249327932793 -3.39927685678568  0.01296545754575
 1 -8.44906066206621 -3.15416443054305 -1.60262659265927
 1 -6.71611046004601 -3.01584523662366 -0.77994478647865
 1  7.03174483748375  0.46330007290729 -0.38466185818582
 1 -6.32697295929593  0.48666850675068 -0.31153353035304
 1  5.39295867986799  3.04327947584758  0.38027028202820
 1 -4.93085690569057 -2.24731603870387 -0.40490789078908
 1  4.69714281328133  0.11419966586659 -0.46979539053905
 1 -4.14591009500950  0.69436455335534 -0.00253745774577
 1  3.30776856185619  3.21534557645765  1.48259446044604
 1  1.64216086908691  3.09391806270627  0.78449085708571
 1  3.18286230823082  3.51984981888189 -0.03806430243024
 1 -2.70745288228823 -2.85369251635163  0.23376033203320
 1 -3.12950245824582 -2.51390251035104 -1.61054502150215
 1 -1.46960375937594 -2.58589876497650 -0.95560859685969
 1  2.56611376937694 -0.55115376647665 -0.11165906990699
 1 -1.87151655265527  0.92153207110711  0.23794718171817
 1  0.21532727972797  1.74020672657266  0.44520031503150
 1 -0.03337056705671 -1.36539648974897 -0.40667825182518

