%nproc=4
%Mem=2GB
# td=(NStates=1) CAM-B3LYP/6-31G(d,p) 

TD

0 1
 8  14.70998921792179 -2.10657812891289 -0.46873572657266
 8 -14.60639723672367  2.12941479747975  0.75512460646065
 6  11.44891818581858 -1.17220785488549  1.30296365736574
 6 -12.36071370337034 -0.90904346434643  0.76663218521852
 6  12.97817654965497 -1.42654569266927  1.09946751875188
 6 -13.70586319531953 -0.18537469746975  0.71823071907191
 6  13.31488348234823 -1.91937746484648 -0.33100798979898
 6 -13.40977331733173  1.34751754975498  0.72536432043204
 6  10.99177770377038 -0.30783499959996  0.05331108510851
 6 -11.33981108210821 -0.38111914091409 -0.10319107310731
 6  12.87003122212221 -0.91707246434643 -1.31447232023202
 6 -12.71137189718972  1.71885986298630 -0.63060010201020
 6  11.62513726072607 -0.19682005510551 -1.07896641264126
 6 -11.51209479947995  0.76905322832283 -0.77831737073707
 6  11.26740746774678 -0.39683884198420  2.53885432643264
 6  10.52791223222322 -2.38156863796380  1.35347346734673
 6 -11.63097529152915 -0.96294812281228  2.23895247524752
 6 -12.69100980298030 -2.43717916091609  0.53823572757276
 6  9.67723254925493  0.41161219811981  0.25791247124712
 6 -10.09416078307831 -1.05898998399840 -0.34299298029803
 6  11.14399716471647  0.50427489238924 -2.39982418941894
 6 -10.64651709070907  1.27213759775978 -1.86827613461346
 6  9.39845981298130  1.57946138403840 -0.08006338033803
 6 -8.94801528652865 -0.56931048804880 -0.21087213321332
 6  8.01590757675767  2.26663640354035  0.06783245224522
 6 -7.63742888488849 -1.38586291939194 -0.44655998799880
 6  7.95072555355536  3.71866007090709  0.37730909690969
 6 -7.68998010401040 -2.80840058815882 -0.85857603260326
 6  6.98101350835084  1.52748274217422 -0.02925293129313
 6 -6.49930173317332 -0.65585106020602 -0.20090309630963
 6  5.59585013701370  1.96550425732573  0.17430234623462
 6 -5.14155527752775 -1.04212408850885 -0.55325749974997
 6  4.52829676067607  1.30249566346635 -0.08695432443244
 6 -4.05841126112611 -0.29624583068307 -0.44774210421042
 6  3.10861346634663  1.65143574147415  0.04833649864986
 6 -2.59316308030803 -0.69322365246525 -0.52127978797880
 6  2.79072935393539  2.99390883978398  0.60205291429143
 6 -2.39404489848985 -2.02992029412941 -1.05801684168417
 6  2.08877845284528  0.77862502640264 -0.22237136213621
 6 -1.60336165916592  0.15061476737674 -0.25231705870587
 6  0.71921909090909  0.96149091699170  0.05772165216522
 6 -0.18868773777378 -0.04609671477148 -0.37101474147415
 1  13.76273554555456 -0.43261669676968  1.09541437943794
 1  13.33726896289629 -1.94053463456346  1.91695182718272
 1 -14.56280905790579 -0.30797095409541  1.41344855085509
 1 -14.18163953095310 -0.47834475747575 -0.28691031103110
 1  12.91192639463946 -2.84043878697870 -0.39755782078208
 1 -12.84656011701170  1.67230174817482  1.64786425942594
 1  13.73764469646965 -0.18472119221922 -1.29016490049005
 1  12.90677217021702 -1.44201642874287 -2.36007668366837
 1 -13.44137968196820  1.91453277427743 -1.54394232723272
 1 -12.15759436643664  2.74213627762776 -0.47452433543354
 1  11.72829144914492 -0.85946667276728  3.54009867086709
 1  10.28720458545855 -0.16268577867787  2.71343022402240
 1  11.97103637363736  0.44393412631263  2.48981811681168
 1  10.71567057005701 -3.05397597769777  0.44831021702170
 1  10.74753567056706 -2.86036095319532  2.25102502650265
 1  9.35968196919692 -2.07592858595860  1.39575451845185
 1 -11.36468336833683 -0.00449487848785  2.64899879287929
 1 -10.68619312831283 -1.33331048604860  2.01943794779478
 1 -12.27178833783378 -1.48473937893789  3.05832842884288
 1 -13.38081786278628 -2.59515076707671  1.30989549854986
 1 -11.79712276027603 -2.96662869086909  0.47948300430043
 1 -12.99140949894990 -2.64125443344334 -0.44752322632263
 1  8.81963378737874 -0.15386370647065  0.57466165016502
 1 -10.18936866886689 -2.09845356935694 -0.38298793179318
 1  10.14668708770877  0.62138223612361 -2.26986168916892
 1  11.65384381938194  1.45359965086509 -2.43199291329133
 1  11.56775101010101 -0.17689817691769 -3.13878100810081
 1 -11.22981398839884  1.75504873387339 -2.77556904990499
 1 -10.03392893189319  0.48102873987399 -2.15964057005701
 1 -9.78949070407041  2.08960757375738 -1.55813940994099
 1  15.22761931493149 -2.79887879297930  0.31783367636764
 1 -14.93494292929293  2.02243715771577  1.70689889488949
 1  10.07385286728673  2.37774107800780 -0.48157747274727
 1 -8.80320701770177  0.54783688168817 -0.01511632463246
 1  8.76783964596460  4.32409226212621 -0.03310961396140
 1  6.99715310431043  4.41620702960296  0.50366619961996
 1  8.58493320332033  3.91210409730973  1.32229524752475
 1 -7.91960899089909 -3.30914784388439 -0.01425726472647
 1 -8.49968572457246 -2.97877689178918 -1.70027635763576
 1 -6.74444329332933 -3.26019967206721 -0.95000179217922
 1  7.15065672867287  0.48504224712471 -0.42895628762876
 1 -6.75176543854385  0.40948078797880 -0.09458183518352
 1  5.37292667666767  2.91040618851885  0.64247650265027
 1 -5.06087990799080 -2.14333564066407 -0.69372677267727
 1  4.89154225322532  0.32834108000800 -0.60890930193019
 1 -4.39503500750075  0.62725784268427  0.02735553155315
 1  3.16444422942294  3.45789983188319  1.60627682868287
 1  1.76392304530453  3.20734940584058  0.74587699569957
 1  2.95752977497750  3.93978181208121 -0.09851034703470
 1 -2.74673681068107 -2.81794894199420 -0.39720276427643
 1 -2.97150665866587 -2.32569368946895 -1.88029199619962
 1 -1.45334213321332 -2.33123329842984 -1.08091112711271
 1  2.37060421842184 -0.24222287338734 -0.44096200020002
 1 -1.97154655565557  1.18306822472247 -0.01983859685969
 1  0.08109385638564  1.84455716161616  0.63197899289929
 1  0.37306007600760 -0.92977292739274 -0.90803838783878

