%nproc=4
%Mem=2GB
# td=(NStates=1) CAM-B3LYP/6-31G(d,p) 

TD

0 1
 8  14.62022024102410 -2.20003747484748 -0.44205305830583
 8 -14.72108870587059  2.13749560556056  0.94643373737374
 6  11.45649894389439 -1.02624325842584  1.29889325032503
 6 -12.27878551055105 -0.83681624162416  0.83092861486149
 6  13.03840257225723 -1.32803584168417  1.10336790879088
 6 -13.63273588258826 -0.15899205920592  0.80786968296830
 6  13.33792578657866 -1.87577310441044 -0.24134902390239
 6 -13.47331967196720  1.33545634363436  0.81997378137814
 6  11.06220474647465 -0.19991420752075  0.07655340934093
 6 -11.34374147514751 -0.20418144714471 -0.14329508350835
 6  13.13614783378338 -0.78670942804280 -1.25534640764076
 6 -12.81618237823782  1.76488446544654 -0.54105114711471
 6  11.69619436643664 -0.08975934903490 -1.07165568156816
 6 -11.57038062806281  0.99363568656866 -0.78507804680468
 6  11.40646137313732 -0.12504166226623  2.55169561056106
 6  10.62236167716772 -2.32331281238124  1.43865198519852
 6 -11.70176237023702 -0.93829565756576  2.21865044504450
 6 -12.70619132113211 -2.32923836683668  0.36405830983098
 6  9.66344117011701  0.31011204810481  0.27259393939394
 6 -10.05610697769777 -0.99042312731273 -0.42585126612661
 6  11.23283604860486  0.58143260816082 -2.27069127612761
 6 -10.71355379437944  1.54944532853285 -1.79188849584959
 6  9.27656762376238  1.54327776567657 -0.01594696869687
 6 -8.71683216821682 -0.52172572957296 -0.16321736773677
 6  7.99340532653265  2.20544028392839  0.10915658465847
 6 -7.58063320532053 -1.33814814791479 -0.49323465546555
 6  7.99383986498650  3.61927013191319  0.39651101710171
 6 -7.70309141514151 -2.70269001710171 -0.98787896289629
 6  6.84144955195520  1.47721771567157 -0.11901190719072
 6 -6.36948875187519 -0.70749622472247 -0.23465647164716
 6  5.47894844684468  1.91964967186719  0.02730764676468
 6 -5.03747486948695 -1.23349322542254 -0.49937211121112
 6  4.36520045104510  1.12233764766477 -0.17891352035204
 6 -3.93451887188719 -0.47600380648065 -0.43156048604860
 6  2.86796940194019  1.63139373727373 -0.02902123712371
 6 -2.57924168816882 -0.91510584068407 -0.58558621862186
 6  2.71603188418842  2.99475892479248  0.53104581358136
 6 -2.28491398539854 -2.36978428052805 -0.79968100810081
 6  2.07843741874187  0.64906207010701 -0.27403652865287
 6 -1.64739606260626  0.00427013291329 -0.33243507050705
 6  0.62838000700070  0.84090885878588 -0.23110723072307
 6 -0.22691156015602 -0.24231633673367 -0.38437607760776
 1  13.51635090709071 -0.29133256835684  1.28004284228423
 1  13.57123235923592 -2.01178175927593  1.71094122612261
 1 -14.22075485248525 -0.66541669866987  1.53878108410841
 1 -14.14528589558956 -0.42769969296930 -0.20887250725073
 1  12.54819002100210 -2.72418716181618 -0.43640170517052
 1 -12.83315877687769  1.77391190919092  1.52357183018302
 1  13.77961889388939  0.18909618951895 -1.15488137213721
 1  13.16856834983498 -1.10502272937294 -2.31893256925693
 1 -13.59654519851985  1.79519084008401 -1.25898383138314
 1 -12.66666527352735  2.89520158415842 -0.52717960096010
 1  12.06549516951695 -0.62539326542654  3.55178983998400
 1  10.34472033703370  0.02762325222522  2.92273115411541
 1  11.91344061406141  0.68818855175518  2.38607774277428
 1  10.42160116311631 -2.94373495359536  0.49588497449745
 1  10.82093301030103 -3.04612953005301  2.17786771077108
 1  9.61751775277528 -1.88742973607361  1.52413735673567
 1 -11.62517941794179  0.14904047504750  2.43361725472547
 1 -10.76102061106111 -1.62491964696470  2.26503250725073
 1 -12.24243540254025 -1.47573847884789  3.09743233923392
 1 -13.34183396439644 -2.76726797879788  1.10351486048605
 1 -11.93871691969197 -3.04829685768577  0.54252930893089
 1 -13.09619997799780 -2.57378768676868 -0.70036851085109
 1  8.90228205220522 -0.44833315341534  0.75173935793579
 1 -10.16405613761376 -1.95889961396140 -0.84490412341234
 1  10.16746916591659  0.70160025792579 -2.14708941194119
 1  11.61571000600060  1.72849714061406 -2.46597631163116
 1  11.24290852585259 -0.00106059315932 -3.27814494449445
 1 -11.28273928092809  1.98389161816182 -2.66633812681268
 1 -9.85258079707971  1.07072770977098 -2.22186679267927
 1 -10.17233898889889  2.39052766576658 -1.45576917291729
 1  14.93691024402440 -3.20177908300830 -0.07696580358036
 1 -15.09243867886789  2.12810772477248  1.79139734473447
 1  10.13801928392839  2.35219852375238 -0.19079839483948
 1 -8.57110380738074  0.41994409240924  0.39338452545254
 1  8.58334119611961  4.30134998789879 -0.31935823882388
 1  7.07039042804280  4.16446185508551  0.52345817881788
 1  8.68501321132113  3.86741962886289  1.41866488448845
 1 -8.45025205520552 -3.54458138723872 -0.37956379537954
 1 -8.20147590359036 -2.53436245034503 -2.06881321132113
 1 -6.89039788878888 -3.10983463556356 -1.07899469146915
 1  6.80421208420842  0.36669041194119 -0.23045643764376
 1 -6.43212347434743  0.32047188708871  0.09916753975398
 1  5.12932231623162  2.79129427732773  0.40317257225723
 1 -4.82362618261826 -2.19310061716172 -0.58395579557956
 1  4.64064716371637  0.24484273017302 -0.56318472947295
 1 -4.07958346234623  0.47341245814582 -0.14596180018002
 1  3.26980476547655  3.01580562246225  1.55801200220022
 1  1.72172882588259  3.19181785268527  0.61285369336934
 1  3.07222124412441  3.81499933383338 -0.09875037103710
 1 -2.38671080808081 -2.95744289138914  0.19582653865387
 1 -3.19600910891089 -2.89596071617162 -1.50600456745675
 1 -1.20990778977898 -2.67656783188319 -1.31807484348435
 1  2.42912007000700 -0.30253890499050 -0.59408731273127
 1 -1.94497389838984  0.91285120302030 -0.02497911091109
 1  0.05492123912391  1.63836654255426 -0.04857906290629
 1  0.27169993999400 -1.20093004310431 -0.81602918691869

