%nproc=4
%Mem=2GB
# td=(NStates=1) CAM-B3LYP/6-31G(d,p) 

TD

0 1
 8  14.55855407440744 -2.42946041714171 -0.43826267926793
 8 -14.84232082908291  1.73814567056706  0.53590268426843
 6  11.39167246124612 -1.15853648774877  1.11420478147815
 6 -12.26139377137714 -1.01899445944594  0.73888941094109
 6  12.89035776777678 -1.50531356945695  1.07906547854785
 6 -13.64954756375638 -0.38098425842584  0.61334023002300
 6  13.20643263726373 -2.02769829692969 -0.37527241624162
 6 -13.58968130813081  1.19601239923992  0.61510329432943
 6  10.97754628062806 -0.40066428252825 -0.04604885088509
 6 -11.31738883988399 -0.32718374737474 -0.21605235923592
 6  12.97891211021102 -1.02819357645765 -1.35631650465047
 6 -12.88225898589859  1.63026100310031 -0.63464050605061
 6  11.63499824682468 -0.35468584168417 -1.23673218921892
 6 -11.58092168216822  0.71910823382338 -0.88603814281428
 6  11.23213394039404 -0.27146630473047  2.38829927092709
 6  10.64510395139514 -2.37348782988299  1.23355147514751
 6 -11.78393058705871 -0.80167199519952  2.21194977497750
 6 -12.43733443544354 -2.48584402740274  0.46254815881588
 6  9.66815164116412  0.45599663656366  0.06872355235524
 6 -10.04316568356836 -0.92953703870387 -0.41080976197620
 6  11.28729149414941  0.43578804370437 -2.48158236523652
 6 -10.75802824182418  1.42358274227423 -1.88754806180618
 6  9.38235820282028  1.74332777067707 -0.31596697069707
 6 -8.84201468646865 -0.45501905890589 -0.18674972097210
 6  8.14188017401740  2.32472221212121  0.19324499349935
 6 -7.60632577457746 -1.18908324142414 -0.44440977297730
 6  8.33854433543354  3.77767597249725  0.63146451245125
 6 -7.75037614361436 -2.70176992509251 -0.59654982998300
 6  6.96710211721172  1.63193318721872  0.03311330533053
 6 -6.42297410041004 -0.55572104720472 -0.30070307630763
 6  5.58383893589359  1.99225693259326  0.34423933993399
 6 -5.04453557555756 -1.09071894799480 -0.44725689968997
 6  4.53025695669567  1.28004341824182  0.03348771977198
 6 -3.99698511851185 -0.27115332143214 -0.38037536753675
 6  3.10038264326433  1.73507410531053  0.13023468846885
 6 -2.61059482348235 -0.70391472157216 -0.38818647864786
 6  2.85755603660366  3.20426987588759  0.68982169116912
 6 -2.36006150015002 -2.10230753285329 -0.61557259725973
 6  2.05019459445945  0.85840300420042 -0.07364648964896
 6 -1.67139846284628  0.29164887078708 -0.19477130413041
 6  0.64422159115912  1.04369913781378  0.17803368336834
 6 -0.21123999299930  0.12933082798280 -0.10363800380038
 1  13.32699197119712 -0.56549998509851  1.20879571757176
 1  13.30800603660366 -2.35827640874087  1.74710484248425
 1 -14.30299307630763 -0.54600475747575  1.50075728172817
 1 -14.16011737873787 -0.50646756975698 -0.45102672267227
 1  12.63435863786379 -2.87134187728773 -0.30571863686369
 1 -12.89350481148115  1.58237275527553  1.37474694769477
 1  13.74712564456446 -0.28741146124613 -1.43313919791979
 1  12.80925241824182 -1.41642386948695 -2.55369604560456
 1 -13.46375191919192  1.57137845884588 -1.59253718671867
 1 -12.69101770877088  2.70877294129413 -0.67419430243024
 1  11.97419603960396 -0.87982870897090  2.96618127912791
 1  10.20472633763376 -0.20471998209821  2.74163304430443
 1  11.67775704570457  0.77819755265527  2.21861099609961
 1  10.60376937993799 -3.04693527362736  0.29227461346135
 1  10.94283520052005 -3.08367328442844  2.24316424042404
 1  9.58960496149615 -1.94619561266127  1.28361330433043
 1 -11.73492039203920  0.29611518251825  2.39244313731373
 1 -10.74056856585659 -1.11397855285529  2.26884288828883
 1 -12.37070822982298 -1.45686659165917  2.88393098909891
 1 -13.41284106510651 -3.04868612061206  0.85937044604460
 1 -11.47087013501350 -3.14572660066007  0.64768982498250
 1 -12.44312467046705 -2.57824813281328 -0.62597107110711
 1  8.79890171417142 -0.10074839493949  0.66418060206021
 1 -10.07500723272327 -1.91818554255426 -0.74882451545155
 1  10.05324774377438  0.79506960486049 -2.35061976497650
 1  11.75887432243224  1.44234852575257 -2.43200291429143
 1  11.49489372437244 -0.24410489758976 -3.53672080208021
 1 -11.49710071707171  1.48580180918092 -2.84288578157816
 1 -9.91209674867487  0.81352198919892 -2.16372097809781
 1 -10.05744749974997  2.42330094309431 -1.69850344634463
 1  14.85208176117612 -3.21783068816882  0.07598949194919
 1 -15.25269470447045  1.57225213921392  1.31056926192619
 1  10.09747522952295  2.66607991189119 -0.65457477247725
 1 -8.70557725472547  0.52303440144014  0.14719990699070
 1  8.69466232823282  4.50861071397140 -0.26273257625763
 1  7.32935632463246  4.23018842774277  0.87761359435944
 1  8.97025173517352  3.94240712761276  1.59634265226523
 1 -8.32911994199420 -3.32786971607161  0.11930609160916
 1 -8.24459021502150 -2.97619663376338 -1.46614294429443
 1 -6.59829867886789 -3.19534318641864 -0.61980877287729
 1  7.05035669866987  0.71141488438844 -0.65635902790279
 1 -6.60786104810481  0.42138197809781  0.15263288628863
 1  5.55102448644864  2.83443859175918  0.77411966696670
 1 -4.85847966796680 -2.14135544264426 -0.59520692069207
 1  4.58515161416142  0.16174442034203 -0.51095950695070
 1 -4.22292779677968  0.93054817171717 -0.14874207820782
 1  3.54770255525552  3.35546958885889  1.49717591859186
 1  1.74507116011601  3.18815748664866  0.86703911191119
 1  3.30109413141314  3.78988682258226 -0.12010250625062
 1 -2.79729186618662 -2.71206835393539  0.09864682068207
 1 -2.83820332833283 -2.58381950205021 -1.50862482948295
 1 -1.27120391939194 -2.54121429652965 -0.67613064906491
 1  2.38278543654365 -0.11361001210121 -0.33269117311731
 1 -2.11234063506351  1.27669758765877 -0.18699531253125
 1  0.28115386238624  1.97547025292529  0.47860365536554
 1  0.11633440344034 -0.76121607170717 -0.41329891389139

