%nproc=4
%Mem=2GB
# td=(NStates=1) CAM-B3LYP/6-31G(d,p) 

TD

0 1
 8  14.92048026702670 -1.93811128222822 -0.20732958595860
 8 -14.76775337233723  1.94484634063406  0.63795288928893
 6  11.37752104610461 -1.25766640074007  1.20583394439444
 6 -12.32766039803980 -0.87730029002900  0.87020254225423
 6  12.90636936893690 -1.38960199829983  1.15372294429443
 6 -13.58068067706771 -0.15838199819982  0.83143203920392
 6  13.52512450645064 -1.82435796289629 -0.19975486448645
 6 -13.46013835383538  1.37352015001500  0.62106389038904
 6  11.04552307830783 -0.35709992609261 -0.05775002100210
 6 -11.40458755975597 -0.37214824382438 -0.20041079507951
 6  13.16187040604060 -0.81008176527653 -1.19367024002400
 6 -12.82276303630363  1.77071504850485 -0.63782082408241
 6  11.70972571957196 -0.17841821492149 -1.16976549254925
 6 -11.55177876787679  0.83534985798580 -0.87815735473547
 6  10.83950467746775 -0.62512167026703  2.49124956595660
 6  10.64096353735374 -2.68105858695870  0.99208732873287
 6 -11.70106230023002 -0.70243207120712  2.33920250025002
 6 -12.58262896489649 -2.41458690169017  0.66415831983198
 6  9.68080290629063  0.26316735363536  0.13531021102110
 6 -10.15107647464746 -1.11885597059706 -0.38048672967297
 6  11.33635640064006  0.76055051995200 -2.46648085508551
 6 -10.70977341634164  1.38768915291529 -1.92438174517452
 6  9.28566853385339  1.55510894879488 -0.12287766176618
 6 -8.86835732073207 -0.64654821182118 -0.33448449444944
 6  7.97529351535153  2.26625636553655  0.00725639463946
 6 -7.56509165116512 -1.33506783988399 -0.55536086808681
 6  8.13114359535954  3.70370857575758  0.40723208920892
 6 -7.68919002500250 -2.75045479357936 -0.88108828382838
 6  6.86595200220022  1.65718571247125 -0.12817282328233
 6 -6.42722452545255 -0.55585106020602 -0.39421242724272
 6  5.54876542854285  2.12091979887989  0.06240115611561
 6 -5.14012513451345 -1.15996587268727 -0.50943311731173
 6  4.40567449844984  1.27296271017102 -0.07023265226523
 6 -4.03615903590359 -0.33557976407641 -0.30420775077508
 6  3.08624122912291  1.62811340924092  0.13352501750175
 6 -2.63327709170917 -0.81558588868887 -0.45249290929093
 6  2.75865614661466  3.04345379427943  0.45601831083108
 6 -2.41289678367837 -2.21552885498550 -0.82955399539954
 6  2.11451102610261  0.72047921182118  0.08179905490549
 6 -1.59311063406341  0.20133983988399 -0.10087191419142
 6  0.63155032403240  0.95582034993499  0.10192607260726
 6 -0.20081895089509 -0.12367447254725 -0.17596523652365
 1  13.47468674067407 -0.47638107320732  1.64907974597460
 1  13.09385462146215 -2.15627620872087  1.76882701470147
 1 -14.17355013201320 -0.38593875087509  1.85033223922392
 1 -14.19755112211221 -0.35430235323532 -0.05821744174417
 1  13.10871607360736 -2.69974471757176 -0.59744780978098
 1 -12.88702416341634  1.97006152415242  1.47946741974197
 1  13.83955488748875  0.01477875777578 -1.10215609960996
 1  13.29597109010901 -1.38981120822082 -2.19632030803080
 1 -13.64706025002500  1.80917223822382 -1.42236016901690
 1 -12.35217382438244  2.84881694569457 -0.44143102610261
 1  11.43324194419442 -1.23874460056006  3.32793745474547
 1  9.75205107010701 -0.76804631473147  2.62145102610261
 1  11.18507777777778  0.56898663156316  2.67385652065207
 1  10.80781978497850 -3.05529610971097 -0.10434504850485
 1  11.10689160616062 -3.42401731883188  1.74767469146915
 1  9.52307830883088 -2.62463345644564  1.24314925792579
 1 -11.97130403040304  0.27152272327233  2.81776566956696
 1 -10.55604011301130 -1.11068822382238  2.19822582658266
 1 -12.17873903290329 -1.32158306330633  3.06109870587059
 1 -13.22406218721872 -2.79010026202620  1.47892240124012
 1 -11.78134118211821 -2.98735076307631  0.85282033803380
 1 -12.79954031203120 -2.67635794379438 -0.43423189718972
 1  8.93938576257626 -0.38089640974097  0.42784696869687
 1 -10.16241597359736 -2.26588031203120 -0.37480711371137
 1  10.24620703970397  0.88988908680868 -2.30888559155916
 1  11.77785622062206  1.75360965186519 -2.50676039003900
 1  11.39697393239324  0.17802731563156 -3.39582671267127
 1 -11.44869587658766  1.71794502350235 -2.68950044304430
 1 -9.88341388038804  0.69920055705571 -2.26745135113511
 1 -10.19417117211721  2.28341695469547 -1.59385298129813
 1  15.12134868786879 -2.80695960106011  0.25549744274427
 1 -15.08383781878188  1.81238615261526  1.63082128712871
 1  10.14352983498350  2.09731303520352 -0.33049236423642
 1 -8.86728342534253  0.48507060506051  0.03499868686869
 1  9.07707056905691  4.15848570147015 -0.21037734073407
 1  7.15022841184118  4.30135554445445  0.37512334533453
 1  8.51621633163316  3.71667455435544  1.32362538053805
 1 -8.13254028402840 -3.37292422152215 -0.18861470047005
 1 -8.39200495649565 -2.94329334343434 -1.86183251325132
 1 -6.66353520252025 -3.06099975207521 -1.14163095509551
 1  6.93954561756176  0.54502824572457 -0.61517490949095
 1 -6.54128439043904  0.52715255515552 -0.05407778477848
 1  5.36710609460946  3.14653980188019  0.39942219721972
 1 -5.09149296929693 -2.30794210131013 -0.59203660366037
 1  4.61353445244524  0.18604685058506 -0.32041045204520
 1 -3.97887339133913  0.69969508640864  0.11429422542254
 1  3.06666445144514  3.40603464536454  1.48240444144414
 1  1.63691034403440  3.53657232813281  0.37213962196220
 1  3.41567558955896  3.66921475537554 -0.18811930793079
 1 -2.95807794479448 -2.83379052615262 -0.02768581258126
 1 -2.83707321532153 -2.22387350745075 -1.92010597759776
 1 -1.32931973097310 -2.52539271437144 -0.83773680968097
 1  2.57281443944394 -0.18021667276728 -0.20152805680568
 1 -2.01041044204421  1.27852777067707  0.02193558055806
 1  0.32294804180418  1.84616732263226  0.31871766676668
 1 -0.08108533853385 -1.26683663376338 -0.41930951495150

