%nproc=4
%Mem=2GB
# td=(NStates=1) CAM-B3LYP/6-31G(d,p) 

TD

0 1
 8  14.81189940894089 -2.02388986008601 -0.40279913291329
 8 -14.76450304730473  1.97257911391139  0.72176127012701
 6  11.42286558055806 -1.16007664176418  1.21792515351535
 6 -12.21191882388239 -0.88919147914791  0.81093661566157
 6  12.97128586058606 -1.29824286238624  1.01952952495250
 6 -13.65695830483048 -0.21147730773077  0.88861775777578
 6  13.39612160616062 -1.86069159625963 -0.30325521452145
 6 -13.54748708870887  1.30148294629463  0.72150393439344
 6  10.80211873787379 -0.42064628072807 -0.03514776077608
 6 -11.27981508250825 -0.32396342534253 -0.22382313631363
 6  12.96753097209721 -0.79883064016402 -1.36377725072507
 6 -12.82213297329733  1.61608958595860 -0.58347538953895
 6  11.52504725172517 -0.20946131923192 -1.24005252125213
 6 -11.59539312931293  0.84966128912891 -0.92285182418242
 6  11.14807553455346 -0.39680883898390  2.53868430943094
 6  10.70305974697470 -2.49978045914591  1.28692681268127
 6 -11.67963015701570 -0.86775860386039  2.23256183618362
 6 -12.37922862486249 -2.47260270327033  0.45527743174317
 6  9.51273609960996  0.24485552245225  0.25879255925593
 6 -10.04767613461346 -1.03486757175718 -0.49196787778778
 6  10.89169193419342  0.33499796469647 -2.48165237223722
 6 -10.73388582758276  1.24404478847885 -2.05289459645965
 6  9.28126809380938  1.50703414131413 -0.18006338033803
 6 -8.87316780178018 -0.44379793679368 -0.43761480748075
 6  8.05246123212321  2.27541728162816  0.10591626062606
 6 -7.55122026402640 -1.22368670177018 -0.57680301230123
 6  8.18598907990799  3.74604280918092  0.13641500750075
 6 -7.66345745174517 -2.66649639773977 -1.01171134613461
 6  6.93026843384338  1.54828482238224  0.09139913391339
 6 -6.37506930993099 -0.56597207230723 -0.26839984598460
 6  5.62787333933393  1.97476518341834  0.16823173917392
 6 -4.99576069806981 -1.17727760386039 -0.30082225622562
 6  4.43970790179018  1.17674308820882  0.16700107110711
 6 -4.03170859085909 -0.22898910501050 -0.12035936593659
 6  3.11839444444444  1.55736633453345  0.32600426542654
 6 -2.68029179317932 -0.75915024512451 -0.34127178717872
 6  2.87018729972997  3.08139758865887  0.61917462646265
 6 -2.30976647064707 -2.12829013111311 -0.88364940494049
 6  2.01270084508451  0.79499666356636 -0.02690181518152
 6 -1.63833515651565  0.23178288418842 -0.23812563956396
 6  0.71373854285429  1.05157992589259  0.11753763376338
 6 -0.17025589458946  0.09636753165317 -0.19854749474947
 1  13.69693896589659 -0.57512094719472  1.23225806380638
 1  13.07722295829583 -2.07420800190019  1.85043517551755
 1 -14.11935471247125 -0.43475363236324  1.72060926692669
 1 -14.41457282428243 -0.65968289128913  0.09315769576958
 1  12.93269847184718 -2.86707145024502 -0.54756282128213
 1 -12.73132859385938  1.81464598259826  1.42709218221822
 1  13.75735666766677 -0.06723944404440 -1.15590147414741
 1  13.04407590059006 -1.20062228932893 -2.50575125112511
 1 -13.46664220822082  1.52575389638964 -1.33651158415842
 1 -12.42440104710471  2.72815487948795 -0.57714459745975
 1  11.69887850785079 -0.94009473557356  3.46448110911091
 1  10.05303116811681 -0.37732724282428  2.78719760076008
 1  11.60266953695369  0.61702143504350  2.44622375737574
 1  10.65601460446045 -3.10113069316932  0.39056444244424
 1  11.26237715471547 -3.06325124222422  1.92028195219522
 1  9.60376637763776 -2.57591858495850  1.34869981298130
 1 -11.31200810081008  0.26167173817382  2.57407130013001
 1 -10.64439894889489 -1.49963711871187  2.17690369436944
 1 -12.32988414741474 -1.26169707470747  2.99368196419642
 1 -13.23323310431043 -2.86592784478448  1.16116062506251
 1 -11.60934398239824 -2.94282631063106  0.23879893589359
 1 -12.81457181518152 -2.49930023802380 -0.45388386238624
 1  8.69327115111511 -0.23305162526253  0.87601178517852
 1 -10.15626535853585 -1.98269199319932 -0.96349598259826
 1  9.73133555255525  0.41930202810281 -2.30350505350535
 1  11.01052948794880  1.48415270617062 -2.63138285228523
 1  11.26914114911491 -0.21121160826083 -3.26518364836484
 1 -11.38342934993499  1.51523475247525 -2.86743823682368
 1 -9.94299983898390  0.65184582158216 -2.43405801180118
 1 -10.36545830083008  2.12651126412641 -1.97527112311231
 1  15.00296684968497 -2.71476038113811  0.31764365736574
 1 -15.45383481848185  1.84082899689969  1.41072927792779
 1  10.11126660866087  2.05223852775277 -0.65649496449645
 1 -8.85850254725472  0.72161425942594 -0.16243105610561
 1  8.54880774277428  4.27907776067607 -0.83463976697670
 1  7.08332172117212  4.14376978587859  0.04701053405341
 1  8.64163887388739  4.11610449734974  1.12064508250825
 1 -8.27527455745575 -3.41802873197320 -0.32454829382938
 1 -8.35402115811581 -2.57815682978298 -1.84885121512151
 1 -6.75923477247725 -3.41299495159516 -1.20611740374037
 1  6.99763142614261  0.49969371227123 -0.01083447544754
 1 -6.51051131313131  0.29673951385139  0.11524914791479
 1  5.48786817081708  3.05272041994199  0.31624387938794
 1 -4.90109392939294 -2.20391169826983 -0.44791219121912
 1  4.59420251925193 -0.03374512861286  0.17016860586059
 1 -4.20431593559356  0.63015813271327  0.16472926892689
 1  3.14916270127013  3.21950599249925  1.73360956195620
 1  1.94077073007301  3.36847551845185  0.46960936893689
 1  3.78901292329233  3.72420025392539  0.20026953095310
 1 -2.87637977497750 -2.96657380448045 -0.31008405240524
 1 -2.71544105210521 -2.25720684078408 -1.90651461846185
 1 -1.21751855085509 -2.26237641274127 -0.89851288728873
 1  2.22307946594659 -0.40855950705070 -0.25939384338434
 1 -1.98801820282028  1.14276419431943  0.30327371437144
 1  0.50659640664066  2.01121382728273  0.56155195019502
 1  0.19870264026403 -0.96685663576358 -0.57013459745975

