%nproc=4
%Mem=2GB
# td=(NStates=1) CAM-B3LYP/6-31G(d,p) 

TD

0 1
 8  14.71620983998400 -2.29763723482348 -0.45620447344734
 8 -14.74630122712271  1.97526938293829  0.57566666066607
 6  11.49881317531753 -1.16132676677668  1.12430579157916
 6 -12.34563219521952 -0.94301686168617  0.75965148714871
 6  12.95435416741674 -1.41469450755076  1.03247081908191
 6 -13.67181979097910 -0.16218237823782  0.81744064006401
 6  13.34674666866687 -1.93603913101310 -0.28242313131313
 6 -13.49841218121812  1.32595539353935  0.61798358235824
 6  10.98349687568757 -0.33205742184218 -0.00233447944794
 6 -11.40039714071407 -0.28920994999500 -0.28321907590759
 6  13.04962918191819 -0.89329008610861 -1.42669354235424
 6 -12.83537429742974  1.61247922492249 -0.67811485348535
 6  11.70257500450045 -0.25597597069707 -1.09574809080908
 6 -11.49172276227623  0.81694801780178 -0.77361690069007
 6  11.26403713071307 -0.30457961606161  2.43538397939794
 6  10.61941138213821 -2.48154863596360  1.33059117911791
 6 -11.78080027402740 -0.99963179117912  2.23688226822682
 6 -12.62307300930093 -2.37303274627463  0.38578048204820
 6  9.62692751875188  0.34926596349635  0.12997967796780
 6 -10.05772713971397 -1.19229331433143 -0.39988866986699
 6  11.26647941294129  0.43692815771577 -2.37145135213521
 6 -10.69262170117012  1.55490587458746 -1.81565087208721
 6  9.36303627062706  1.65626906480648 -0.08579395339534
 6 -8.85894637963796 -0.56515007200720 -0.18504955095510
 6  8.05254124012401  2.29291903180318  0.10018568756876
 6 -7.57488263026303 -1.23536786988699 -0.36231156315632
 6  8.06039652065207  3.75515372027203  0.46882824882488
 6 -7.65958706470647 -2.73982373047305 -0.79667984298430
 6  6.87774318131813  1.65942593649365 -0.00308031403140
 6 -6.43492529552955 -0.50170564566457 -0.20708371437144
 6  5.50642119411941  2.16911461836184  0.17234215021502
 6 -5.12597371937194 -1.07347722382238 -0.32952512651265
 6  4.38773270427043  1.40668608250825 -0.02628825782578
 6 -3.92729814981498 -0.33576978307831 -0.29443677367737
 6  3.01121372637264  1.75863646154615  0.13439510451045
 6 -2.59550331433143 -0.72500683078308 -0.30367802780278
 6  2.78849913091309  3.12633208210821  0.56561927092709
 6 -2.39816531053105 -2.16499380148015 -1.01736277627763
 6  2.18052762776278  0.74830199409941 -0.20395952095210
 6 -1.58655997899790  0.05126483238324 -0.10543237023702
 6  0.73499066806681  0.87162193009301 -0.00818493849385
 6 -0.13801267026703 -0.16652875797580 -0.13066070607061
 1  13.69936920892089 -0.54248768386839  1.05182002000200
 1  13.10430566656666 -2.11707228832883  1.93428356035604
 1 -14.13784656165616 -0.45363552055206  1.80333753975398
 1 -14.04503587058706 -0.64244116711671 -0.02286390639064
 1  12.59225442744274 -2.88893363646365 -0.42189025402540
 1 -13.11581704270427  1.76411092909291  1.61812128512851
 1  13.91901283328333 -0.41821454155416 -1.38813469746975
 1  12.98167966096610 -1.48990121722172 -2.37294797079708
 1 -13.55488103210321  1.27581890289029 -1.31824975797580
 1 -12.70038864586459  2.78657072107211 -0.99053593659366
 1  11.68758737873788 -0.79426015211521  3.35327998899890
 1  10.22131799679968 -0.12297180728073  2.70782966396640
 1  11.66579584958496  0.64502423532353  2.46937607260726
 1  10.53790279327933 -3.12261284138414  0.48026341234123
 1  10.96736765376538 -3.08909382648265  2.16793671767177
 1  9.51264726572657 -2.30158115121512  1.40484542754275
 1 -11.75958285828583  0.00577614861486  2.59394328732873
 1 -10.66167067606761 -1.17489464446445  2.12992899689969
 1 -12.48292945194519 -1.47177808280828  2.93658625462546
 1 -13.35270505150515 -2.78655990799080  1.14265877487749
 1 -11.68738178617862 -3.16507853585359  0.51402645864586
 1 -12.96195655365537 -2.54239454745475 -0.69662813681368
 1  8.79614143814381 -0.30392871297130  0.67430161416142
 1 -10.19117884988499 -2.30433415741574 -0.78287792079208
 1  10.36102852185218  0.61857195509551 -2.48099280228023
 1  11.85837427242724  1.32014630553055 -2.60458017201720
 1  11.29402363736374 -0.18105859295930 -3.20810794079408
 1 -11.27365837283728  2.20846407540754 -2.48194968796880
 1 -10.26549208820882  0.82173281028103 -2.64262886888689
 1 -10.09914166916692  2.08205681868187 -1.11008460446045
 1  14.98897545054505 -2.91466037113711  0.28628052105210
 1 -15.59636907190719  1.52401731573157  1.04144234923492
 1  10.18011349334934  2.37935123902390 -0.34616393139314
 1 -8.83456015301530  0.38014011201120  0.15249043604360
 1  8.81664452645265  4.45664551745175 -0.15421172417242
 1  7.00428381738174  4.17328273717372  0.24816064906491
 1  8.53790850085008  3.85549843674367  1.50468348634864
 1 -8.39430646064606 -3.28569549864986 -0.18342418141814
 1 -8.33188894489449 -2.79652866696670 -1.72753908390839
 1 -6.77441629062906 -3.26734038613861 -0.86276306830683
 1  7.11250291329133  0.65118886178618 -0.25820921292129
 1 -6.57912817481748  0.47872771267127  0.13955157815782
 1  5.37510689468947  3.41282643054305  0.31953420842084
 1 -5.09026284628463 -1.99856116321632 -0.63390079007901
 1  4.73002610161016  0.34606285218522 -0.61006941794179
 1 -4.01978748274828  0.71292640954095 -0.05673287728773
 1  2.94733251825183  3.34268831073107  1.48233443444344
 1  1.75237189018902  3.38315698659866  0.43793620162016
 1  3.16547056905691  3.89091692559256  0.08019752375238
 1 -2.99829196619662 -2.86456360346035 -0.23643668766877
 1 -2.75100460846085 -2.41261238133813 -1.98366233323332
 1 -1.39913671267127 -2.61256143124312 -1.28805184118412
 1  2.37532469046905 -0.34744339543954 -0.53049095309531
 1 -1.98858825982598  1.11486140404040  0.24171755875588
 1  0.20485623262326  1.81865457135714  0.15466126112611
 1  0.30511328132813 -1.15035498559856 -0.04653223722372

