%nproc=4
%Mem=2GB
# td=(NStates=1) CAM-B3LYP/6-31G(d,p) 

TD

0 1
 8  14.62467068606861 -2.23818128922892 -0.24407326032603
 8 -14.65899249624962  1.92000385638564  1.03815290929093
 6  11.34868816281628 -1.08828946304630  1.35680904190419
 6 -12.23556118811881 -0.99606216621662  0.80624614661466
 6  12.89889862186219 -1.30711374947495  1.18189576157616
 6 -13.56937954695469 -0.25089124912491  0.89652854885489
 6  13.23595558955896 -2.02979850695069 -0.09051394039404
 6 -13.38547088708871  1.21637443544354  0.93158494249425
 6  10.85440396639664 -0.35715993209321  0.02834858885889
 6 -11.27711481248125 -0.26384741374137 -0.19179993399340
 6  12.88564278327833 -1.03608436553655 -1.32988386138614
 6 -12.71736249624963  1.76426440344034 -0.32337937993799
 6  11.61273602060206 -0.32852322542254 -1.03985250125013
 6 -11.52540613061306  0.89797612061206 -0.71268080708071
 6  11.27130785778578 -0.13725288338834  2.54773521452145
 6  10.69748918991899 -2.37321780288029  1.44037215721572
 6 -11.50774296829683 -0.91814364236424  2.18647722772277
 6 -12.57240794279428 -2.39146458945895  0.38711061506151
 6  9.49106393239324  0.29735077197720  0.20628730873087
 6 -10.01136250325033 -1.08617270227023 -0.49594827582758
 6  11.04048681368137  0.31470593549355 -2.30587479447945
 6 -10.75666810581058  1.68101848584858 -1.80852015901590
 6  9.23689365636564  1.60106354425443 -0.12330770477048
 6 -8.81966245124512 -0.54626818381838 -0.32146319231923
 6  8.07971395739574  2.32337207710771  0.05869153815382
 6 -7.57261240324032 -1.25302963606361 -0.54541987398740
 6  8.05995647664767  3.81879008390839  0.40758212421242
 6 -7.70132123812381 -2.74883463156316 -1.05320549554955
 6  6.87511291829183  1.74415440934093 -0.14803480948095
 6 -6.42576437943794 -0.64087956305631 -0.38786179217922
 6  5.51834238623862  2.09303701060106  0.05307022302230
 6 -5.03690481248125 -1.09874975107511 -0.67872004600460
 6  4.37439137013701  1.30893630753075 -0.22947857685769
 6 -3.89207462746275 -0.42315852195220 -0.36285361536154
 6  3.09681228622862  1.78644924282428 -0.02537087208721
 6 -2.55894965896590 -0.84858918901890 -0.49972763276328
 6  2.72375265626563  3.21205065396540  0.48980168916892
 6 -2.30745623962396 -2.31788909100910 -1.01337237723772
 6  2.04623419841984  0.78213537743774 -0.16594571957196
 6 -1.59994131713171  0.05481518741874 -0.29981180818082
 6  0.62933010201020  0.96838160606061 -0.15408952895290
 6 -0.11509037803780 -0.09721182628263 -0.39003664366437
 1  13.52437170917092 -0.27701113621362  1.07885272327233
 1  13.38582381838184 -1.98669925102510  1.86252638463846
 1 -14.01866464346435 -0.92481263826383  1.66928413441344
 1 -14.20816218321832 -0.37427435043504 -0.02180380038004
 1  12.62307750975097 -2.81786652975298 -0.43000106510651
 1 -12.87722318331833  1.47540205820582  1.82593206620662
 1  13.92246317831783 -0.35113783388339 -1.03530941494149
 1  13.01742323532353 -1.62391461856186 -2.20603127912791
 1 -13.65238078207821  1.83988530953095 -1.08132606560656
 1 -12.26522512951295  2.74029609360936 -0.14061094409441
 1  11.42772139213922 -0.90001072717272  3.54160882188219
 1  10.23583944894490  0.17575806570657  2.70276915791579
 1  12.07441671167117  0.54515424832483  2.46115525052505
 1  10.65909491249125 -2.75364594469447  0.39298468446845
 1  10.93240415741574 -3.08647356445645  2.27334725872587
 1  9.64150015101510 -2.15716670977098  1.60856579957996
 1 -11.46228312831283  0.02502807380738  2.52994688768877
 1 -10.57054156315632 -1.39369652465247  2.15310131413141
 1 -11.99091025002500 -1.56753765876588  2.94418701470147
 1 -13.39912969396940 -2.70670192219222  0.97018152715272
 1 -11.67564061206120 -2.94048607660766  0.49904496049605
 1 -12.96266662466247 -2.59204951295130 -0.61496997099710
 1  8.57409923392339 -0.29616793689369  0.50977516151615
 1 -10.02179191119112 -2.14587831183118 -0.85864549754975
 1  10.14253667266727  0.56357645554555 -2.29938464146415
 1  11.82932136713671  1.13052734363436 -2.36288600260026
 1  11.15715995099510 -0.30748123522352 -3.05698282828283
 1 -11.40662166916692  2.01311454045405 -2.46111760476048
 1 -10.12220775977598  1.01023166016602 -2.45352995899590
 1 -10.11685344034403  2.44147276027603 -1.47267086308631
 1  14.88460501350135 -2.82496140124012  0.53164505750575
 1 -14.83383281828183  1.83870878487849  2.15618382338234
 1  10.20308579057906  2.14728803270327 -0.46292560756076
 1 -8.86767346434643  0.41281337933793 -0.10940575357536
 1  8.87938080008001  4.12717257015702 -0.28683498649865
 1  7.23239662866287  4.47962337123712  0.38293412641264
 1  8.49426413641364  4.12076496339634  1.47218023602360
 1 -8.52615964596460 -3.25028195729573 -0.50601644064406
 1 -8.06320207620762 -2.75393440754075 -2.20047637763776
 1 -6.77116596559656 -3.29900355245525 -1.14191098309831
 1  6.66935859885989  0.65031877477748 -0.41775516751675
 1 -6.49011927392739  0.45019485938594 -0.06104848184818
 1  5.39458884288429  3.01175632353235  0.53159541454145
 1 -4.88528234823482 -2.22879418651865 -1.20657805780578
 1  4.51736483548355  0.41383962986299 -0.66295470647065
 1 -3.89415491949195  0.56971208810881  0.09186198219822
 1  3.69076686168617  3.34430847274727  0.98340454145415
 1  1.72258891189119  3.17501617251725  0.89982239023902
 1  2.79335335733573  3.95112294619462 -0.42332282828283
 1 -2.97087922492249 -2.78038518561856 -0.34740778477848
 1 -2.38838834683468 -2.33646476657666 -2.25521948894889
 1 -1.25688248724872 -2.68166834193419 -0.66421945794579
 1  2.49839699769977 -0.20959961106111 -0.56194409840984
 1 -2.15024442544254  0.96682660056006 -0.12027864086409
 1  0.05435118211821  1.88319102500250  0.45346114111411
 1  0.36508927892789 -0.92282223232323 -1.06999458345835

