%nproc=4
%Mem=2GB
# td=(NStates=1) CAM-B3LYP/6-31G(d,p) 

TD

0 1
 8  14.66839505850585 -2.22575004610461 -0.30229908290829
 8 -14.62933953095309  1.95979783578358  1.04371346534653
 6  11.38586188018802 -1.04766540064006  1.30677403840384
 6 -12.13790142214221 -0.96630919091909  0.84315983798380
 6  12.96884561656166 -1.41562460056006  1.18932650465047
 6 -13.53377598659866 -0.26022218221822  0.84003289928993
 6  13.24910690469047 -1.90566609370937 -0.23541843084308
 6 -13.46731907190719  1.31982478047805  0.88870065406541
 6  10.85975450145015 -0.25721993809381  0.02759851385139
 6 -11.26890399139914 -0.23920494949495 -0.30782153615362
 6  12.92100631963196 -0.99011976907691 -1.23035390839084
 6 -12.81057181718172  1.71788976597660 -0.42945998799880
 6  11.52901764876488 -0.35585595869587 -1.13793230923092
 6 -11.55671926192619  0.91839816281628 -0.77009654865487
 6  11.31241196819682 -0.17266642474247  2.47417785878588
 6  10.64660410141014 -2.34960544164416  1.50570869086909
 6 -11.53508570257026 -1.03152498049805  2.19057763776378
 6 -12.40059076107611 -2.37236267926793  0.43555545954595
 6  9.60239506550655  0.46376741364136  0.18125480548055
 6 -9.99878124512451 -0.94809889488949 -0.52596127712771
 6  11.04798756375638  0.29494395929593 -2.43087729472947
 6 -10.81165360436044  1.60892127612761 -1.95152445944594
 6  9.30231019801980  1.66257969586959 -0.18103347734773
 6 -8.78064854985499 -0.50087364436444 -0.47857890389039
 6  8.03829981598160  2.37473721362136 -0.03588791979198
 6 -7.63506864886489 -1.25954028712871 -0.74125945794579
 6  8.00536101710171  3.75398360326033  0.37100846684668
 6 -7.70816192219222 -2.62530227832783 -1.39971014601460
 6  6.92532793979398  1.61477147104710 -0.22453245924592
 6 -6.41865366836684 -0.66183165826583 -0.29585259125913
 6  5.55346589858986  2.08981668856886 -0.11574665866587
 6 -5.00208133013301 -1.23613348944894 -0.33833600760076
 6  4.47072100310031  1.16187160106011  0.01603597459746
 6 -3.99995541554155 -0.43943014911491 -0.15828315831583
 6  3.00650325532553  1.64472507040704  0.13307497249725
 6 -2.59625338933893 -0.81919624972497 -0.37313497349735
 6  2.71661194219422  3.03300274917492  0.43776648564856
 6 -2.26254174817482 -2.13373067516752 -0.92400344034403
 6  2.01422099709971  0.71460862476248 -0.04624374937494
 6 -1.61855317831783  0.05851555745575 -0.00427225422542
 6  0.64561173017302  0.87083185108511  0.07092297229723
 6 -0.23872274127413 -0.09535164026403 -0.09005664566457
 1  13.57887715971597 -0.50430386548655  1.32695753375337
 1  13.42165740174018 -2.09727030813081  2.07572770477048
 1 -14.15878865586559 -0.55341549854986  1.61998920492049
 1 -14.08328969596960 -0.65080200320032 -0.18558017801780
 1  12.59676487848785 -2.78345308840884 -0.17400546554656
 1 -12.74154961596160  1.60847536553655  1.83909338233823
 1  13.72507343934393 -0.16495921602160 -1.22308819281928
 1  13.23108460146015 -1.64959718681868 -2.23317399339934
 1 -13.54732027602760  1.76314763576358 -1.18199613261326
 1 -12.47101570857086  2.78978104210421 -0.23895077807781
 1  11.74073269326933 -0.70530125622562  3.28024268526853
 1  10.25379124412441 -0.07395690579058  3.02318119911991
 1  11.82465173517352  0.69565929882988  2.63391252625263
 1  10.86962596559656 -3.10516109620962  0.56364175017502
 1  10.99686060306031 -2.98844376147615  2.40044996899690
 1  9.60585658665867 -2.22029302240224  1.61221616461646
 1 -11.48017491749175  0.00472604360436  2.58595248824882
 1 -10.54771928092809 -1.50252740774077  2.05013101710171
 1 -12.17976913591359 -1.35868677367737  3.04660725672567
 1 -13.02963274427443 -2.73768502050205  1.08568307730773
 1 -11.35545859385938 -2.99447147514751  0.63698875487549
 1 -13.12811316931693 -2.30170047804781 -0.47733620762076
 1  8.90003182718272  0.03674535443544  0.66726091009101
 1 -10.02144187618762 -1.90425414941494 -1.10296992999300
 1  10.00815323432343  0.51922202010201 -2.29510421342134
 1  11.61673010801080  1.10903519441944 -2.91439115311531
 1  10.78261249624963 -0.46472695979598 -3.09222635263526
 1 -11.36579758675868  1.71510473947395 -2.84093558655866
 1 -10.14862040104011  0.81175181218122 -2.40686529252925
 1 -10.16796855185519  2.59087770077008 -1.72053564956496
 1  14.57864441744174 -3.09033793889389  0.25626751975198
 1 -15.17106654165416  1.49530444444444  1.80621882688269
 1  9.87235271727173  2.38423172707271 -0.83776309130913
 1 -8.69528622562256  0.37695979397940 -0.04724953795380
 1  8.53296615861586  4.46546639953995 -0.34557086008601
 1  6.93198658765877  4.16029143804380  0.28910474347435
 1  8.52150686068607  3.89188207510751  1.12341535953595
 1 -8.21102813281328 -3.47243417251725 -0.81204704370437
 1 -8.44237999399940 -2.49354836893689 -2.24486081608161
 1 -6.69899874887489 -2.96735038713871 -1.79700649264927
 1  7.24868653165317  0.72511625452545 -0.52285567756776
 1 -6.23294355635564  0.47931777167717  0.12499012201220
 1  5.32554193819382  3.22209735763576 -0.11065881088109
 1 -4.92370619061906 -2.25074638173817 -0.86910431043104
 1  4.64642774177418 -0.05835758985899 -0.05904431543154
 1 -4.18812431643164  0.56629174607461  0.25012780878088
 1  3.07635542054205  3.41846588848885  1.34464066506651
 1  1.66995364836484  3.05248391929193  0.50356276427643
 1  3.27473149514952  3.76771460536054 -0.19031952795280
 1 -2.84257639463946 -2.98178532563256 -0.50562360636064
 1 -2.50829033703370 -2.04699581968197 -2.12754672167217
 1 -1.20834763376338 -2.38709888498850 -0.84761779777978
 1  2.26485364336434 -0.30611926302630 -0.46676458045805
 1 -1.98755815681568  1.03524344224422  0.38485187218722
 1 -0.06330058305831  1.93237594349435  0.27873366836684
 1 -0.10084731473147 -1.16601655175518 -0.27660524452445

