%nproc=4
%Mem=2GB
# td=(NStates=1) CAM-B3LYP/6-31G(d,p) 

TD

0 1
 8  14.54666288528853 -2.35577304840484 -0.44348320132013
 8 -14.75590218721872  1.97131898789879  0.78956805080508
 6  11.45170846484648 -1.10293092719272  1.23636699769977
 6 -12.28918655065507 -0.92623518351835  0.75533105510551
 6  12.96598533053305 -1.47438047614761  1.05733330533053
 6 -13.62424503350335 -0.22126828682868  0.76928582458246
 6  13.22763475747575 -1.99545507260726 -0.26383127212721
 6 -13.50898323832383  1.25578837683768  0.81185296929693
 6  11.01463998999900 -0.15753997009701  0.09782553655366
 6 -11.33316041704170 -0.22564359335934 -0.18389914391439
 6  12.95303952295230 -0.93188394549455 -1.30231110411041
 6 -12.83787454745475  1.77398537553755 -0.38100514251425
 6  11.71249599659966 -0.07171754485449 -1.07502601860186
 6 -11.55847943794379  0.95226154915492 -0.86292583158316
 6  11.27049777677768 -0.21730088818882  2.50875131613161
 6  10.63029247024702 -2.33634411551155  1.42879099909991
 6 -11.69326152015202 -1.01111293929393  2.18200678067807
 6 -12.58897959996000 -2.38559400240024  0.31213311731173
 6  9.71202602860286  0.46169720662066  0.14824150415042
 6 -10.05305667266727 -0.99363344834483 -0.49475815681568
 6  11.23875664066407  0.59321378627863 -2.35507971497150
 6 -10.80296273527353  1.70015039903990 -1.83226253325333
 6  9.36679664666467  1.70644408230823 -0.15475084908491
 6 -8.79927041204120 -0.54701825882588 -0.30312135813581
 6  8.00516650265026  2.32599233913391 -0.00180451145115
 6 -7.64864000600060 -1.31424575767577 -0.49321465346535
 6  8.01839232023202  3.78103630853085  0.24762612861286
 6 -7.58762986898690 -2.73545329342934 -0.89152932793279
 6  6.89644505150515  1.50521051495150 -0.08395840184018
 6 -6.47440924392439 -0.55691116621662 -0.40962396839684
 6  5.55235578757876  1.97958566546655  0.17911282728273
 6 -5.09265038703870 -1.10114999109911 -0.45117729172917
 6  4.45729966096610  1.21110652455246 -0.01271690069007
 6 -4.01114653465346 -0.37459366546655 -0.39528685868587
 6  3.11273387838784  1.58273887178718  0.08401006600660
 6 -2.57017078107811 -0.82885721582158 -0.35930359035904
 6  2.76037631863186  2.96581603050305  0.50082279127913
 6 -2.30908640264026 -2.38331563366337 -0.66259729972997
 6  2.14292386738674  0.64584174807481 -0.14273339833983
 6 -1.57260858385839  0.01096080198020 -0.23225505250525
 6  0.72214938393839  0.78245301320132  0.03818969896990
 6 -0.21384025302530 -0.08535064016402 -0.18627626762676
 1  13.51384065606561 -0.36964039913991  1.31233607160716
 1  13.22849808580858 -2.08831941304130  1.87073720572057
 1 -14.14104688168817 -0.51341149814982  1.70674788078808
 1 -14.38140950795080 -0.57309423242324 -0.01109272927293
 1  12.73845904790479 -2.96079082218222 -0.51098916391639
 1 -12.87952341334133  1.60953547154715  1.61693116611661
 1  13.75141607360736 -0.13077579767977 -1.36374225822582
 1  12.82307380038004 -1.43935616271627 -2.18261893789379
 1 -13.59441498549855  1.60099142014201 -1.12168010101010
 1 -12.43613222022202  2.84794685868587 -0.32949983298330
 1  11.46626524652465 -0.80548127422742  3.52854751575158
 1  10.27021288628863  0.15216570647065  2.52900178117812
 1  11.95383465346535  0.66138587148715  2.61528066306631
 1  10.66688569156916 -3.09552013211321  0.58624401040104
 1  10.80985190219022 -2.91172608970897  2.36042596659666
 1  9.55136113711371 -2.15417641074107  1.42480742374237
 1 -11.46978387838784  0.06506207720772  2.63984787778778
 1 -10.67826233523352 -1.69946710171017  2.02695869986999
 1 -12.41475263426343 -1.43434433943394  2.73764636063606
 1 -13.40869065006501 -2.91505275727573  0.90987549654965
 1 -11.69312236023602 -2.99004103210321  0.31474653065307
 1 -12.92656301430143 -2.34682499049905 -0.71760023402340
 1  8.83258508250825 -0.02272059215922  0.40169435343534
 1 -10.30557028902890 -2.05545926992699 -0.74936456945695
 1  10.23198561756176  1.16513661156116 -2.13317802080208
 1  11.60907934293430  1.31836612751275 -2.66967668166817
 1  11.13030726572657 -0.08065855295530 -3.05464259425943
 1 -11.33049405640564  1.99056228522852 -2.61877337033703
 1 -9.91753729272927  0.99371000800080 -2.28681328732873
 1 -10.23330508550855  2.48741735473547 -1.38248184418442
 1  15.03452000500050 -3.11957086218622  0.20742263526353
 1 -15.30669010401040  1.85175008900890  1.57461566656666
 1  10.03982946494649  2.46687999189919 -0.52886220122012
 1 -8.69036573357336  0.53746584458446 -0.05915072807281
 1  8.46715957795780  4.21638149104910 -0.75014131713171
 1  7.02827621662166  4.11437684658466  0.56643247624763
 1  8.94930964096410  4.07939082598260  1.08737175517552
 1 -7.86975400540054 -3.35774270337034 -0.10638647764776
 1 -8.16989274527453 -2.69639865396540 -1.85464179417942
 1 -6.60176902590259 -3.23084673677368 -1.08863565556556
 1  6.95643730673067  0.41574531743174 -0.49499289128913
 1 -6.56977723972397  0.45870571047105  0.01614923792379
 1  5.41014039803980  2.95570071797180  0.53430568556856
 1 -4.92635645564557 -2.18587989508951 -0.69734713471347
 1  4.71968506750675  0.16971521742174 -0.23165157615762
 1 -4.03610911491149  0.73005812271227 -0.14961216521652
 1  3.28038582358236  3.37592163406341  1.45045124612461
 1  1.65547220022002  3.38705737663766  0.53157556555656
 1  3.12427644964496  3.85280311421142 -0.33009350535054
 1 -2.80359249624963 -2.98964611171117 -0.11943498749875
 1 -2.65324483248325 -2.70235135523552 -1.84803877087709
 1 -1.22381918091809 -2.81851202630263 -0.56263929992999
 1  2.47877503550355 -0.31080973207321 -0.42549045304530
 1 -1.87786718771877  1.03380329822982  0.05447883488349
 1  0.25390113711371  1.67845055095510  0.22492828782878
 1  0.41047381738174 -1.09668961906191 -0.39446703070307

