%nproc=4
%Mem=2GB
# td=(NStates=1) CAM-B3LYP/6-31G(d,p) 

TD

0 1
 8  14.58809702870287 -2.23403087418742 -0.60576942994299
 8 -14.73225982298230  2.13946580258026  0.57528662266227
 6  11.44661795579558 -1.23450408450845  1.14102746374637
 6 -12.36001363336334 -0.92505506550655  0.69641516351635
 6  12.86277500950095 -1.51696473457346  0.96806437843784
 6 -13.70122273127313 -0.14595075507551  0.57776667266727
 6  13.25465745974597 -1.98586411351135 -0.49438432743274
 6 -13.51526386638664  1.33271606960696  0.53521530553055
 6  10.87296582258226 -0.29738395449545  0.08343409740974
 6 -11.26846394739474 -0.38774980398040 -0.25719647364736
 6  12.89855407440744 -0.87432818991899 -1.41091196419642
 6 -12.67123788378838  1.63884186118612 -0.72922996499650
 6  11.55672041904191 -0.17944831793179 -1.19174769076908
 6 -11.39489307930793  0.78485480848085 -0.83059259825983
 6  11.05170589758976 -0.62615177327733  2.44781522252225
 6  10.55645508650865 -2.50068054915492  1.21637975797580
 6 -11.74795698969897 -0.81623345134513  2.07246582658266
 6 -12.65383608560856 -2.41719716271627  0.37195909990999
 6  9.56294112011201  0.43715475237524  0.15345202520252
 6 -9.92857422442244 -1.14952903790379 -0.39386806780678
 6  11.17605037003700  0.68981344624462 -2.26413062006201
 6 -10.61043348234824  1.33053343734373 -1.99158846584658
 6  9.38727869486949  1.69236267416742 -0.13720909490949
 6 -8.78717920292029 -0.60040359735974 -0.17154820082008
 6  7.94151013701370  2.29556929682968  0.01708737773777
 6 -7.49551469346935 -1.34161849494950 -0.38854418641864
 6  8.04175465646565  3.82026023092309  0.26611797779778
 6 -7.63685479147915 -2.73990373847385 -0.78067824282428
 6  6.80272567956796  1.61091108500850 -0.00877088308831
 6 -6.37267907090709 -0.69416489158916 -0.25281828782878
 6  5.54787533953395  2.20563827072707  0.11380629662966
 6 -4.99523064506451 -1.18399827592759 -0.39973214721472
 6  4.48939287028703  1.41408682258226  0.10171454245425
 6 -3.92451787178718 -0.40601680778078 -0.06544387438744
 6  3.07063966896690  1.78015861376138  0.21801346634663
 6 -2.54461822582258 -0.86014034413441 -0.11210887088709
 6  2.84968524952495  3.17500694959496  0.46904961396140
 6 -2.37236273027303 -2.13476077817782 -0.71155219521952
 6  2.13628320332033  0.79800696459646  0.06033690869087
 6 -1.55700702370237  0.01577128302830  0.12018019101910
 6  0.72036920592059  0.96975174307431  0.18515439543954
 6 -0.15327419641964 -0.07714982008201  0.07237959795980
 1  13.52859213121312 -0.62913634873487  1.20847568556856
 1  13.06191142714271 -2.41074165526553  1.62931306330633
 1 -14.18081085808581 -0.29297945494549  1.57987519351935
 1 -14.39311067806781 -0.48394531753175 -0.18818043804380
 1  12.88270347234723 -2.97973271637164 -0.79383744874487
 1 -12.82091755275527  1.54526904490449  1.51913138613861
 1  13.71246217821782 -0.25382810291029 -1.52131801580158
 1  12.86457795079508 -1.45052727982798 -2.40618129412941
 1 -13.45130067406741  1.67222854385439 -1.57695562856286
 1 -12.50483909090909  2.82521458545855 -0.63994087708771
 1  11.63038165816582 -0.97055778187819  3.36769143014301
 1  10.04381024602460 -0.25640515061506  2.69045792679268
 1  11.45435470547055  0.33976370927093  2.66460559555956
 1  10.72557156015601 -3.14361494159416  0.33298868486849
 1  11.06091700870087 -3.07304222132213  2.02472239623962
 1  9.55691169216922 -2.40641163426343  1.37153209620962
 1 -11.54190109010901  0.09105467646765  2.49810370337034
 1 -10.84850935993599 -1.44525168016802  2.32002800680068
 1 -12.33788494749475 -1.32808371337134  2.73791638763876
 1 -13.37787756875687 -2.98665991799180  0.97988249724972
 1 -11.74563761176118 -2.86552858085809  0.25119017501750
 1 -13.09870022802280 -2.47470777877788 -0.57858633263326
 1  8.91477330133013 -0.28669698979898  0.66359054305431
 1 -9.93234296629663 -2.27175089908991 -0.59549918291829
 1  10.08139055805580  0.76022612051205 -2.30597530053005
 1  11.61075951095110  1.79697398829883 -2.09952966696670
 1  11.66437067206721  0.23299281218122 -3.26396352635264
 1 -11.26274728172817  1.80654388338834 -2.70134162716272
 1 -9.90478601760176  0.68945958295830 -2.50743534953495
 1 -10.22443419841984  2.21964057705771 -1.62601619761976
 1  14.85886243924392 -2.68147705280528  0.18070996399640
 1 -14.98095753075307  2.29693460746075  1.51913011801180
 1  9.91636711871187  2.43225652955296 -0.69699901490149
 1 -8.88417511451145  0.58172027002700  0.06294148114811
 1  8.99943280528053  4.18289814271427 -0.46665296829683
 1  7.09931332033203  4.28816422532253 -0.12145631263126
 1  8.32094680468047  4.01380426732673  1.34399741774177
 1 -8.38719574957496 -3.28863579267927 -0.13385922492249
 1 -8.11451720772077 -2.83735274937494 -1.71723805380538
 1 -6.80508935793579 -3.23388704080408 -0.76545333733373
 1  6.92237390039004  0.54596833973397 -0.20334372637264
 1 -6.41374163616362  0.34874471437144 -0.09907228422842
 1  5.35407479147915  3.25104025192519  0.22537479247925
 1 -4.81413523352335 -2.12931423852385 -0.89654705470547
 1  4.71334443344334  0.32940118601860 -0.15437384838484
 1 -3.90851635563556  0.41519663656366  0.71343413941394
 1  3.22269005400540  3.48627266916692  1.47580378137814
 1  1.79289594259426  3.58197686858686  0.44280668866887
 1  3.23949797179718  3.82387022092209 -0.27951844784478
 1 -2.80150228722872 -2.88145529262926 -0.07466051005100
 1 -2.70472998099810 -2.35526664676468 -1.66903087008701
 1 -1.23209000800080 -2.43630380548055 -0.61366440244024
 1  2.46839399739974 -0.20047869896990 -0.22878078207821
 1 -1.72852225322532  0.83251316921692  0.52289567656766
 1  0.38834458145814  1.86490919681968  0.53675947094709
 1  0.47541031103110 -1.07339728982898 -0.04927251125113

