%nproc=4
%Mem=2GB
# td=(NStates=1) CAM-B3LYP/6-31G(d,p) 

TD

0 1
 8  14.69829804880488 -2.18354582568257 -0.48515736873687
 8 -14.74839143614361  2.04321617761776  0.60471956595660
 6  11.50823411741174 -0.98338897299730  1.13070643164316
 6 -12.24299193119312 -0.90550311031103  0.80156567856786
 6  13.07183591559156 -1.26337937603760  1.06162373437344
 6 -13.68218082708271 -0.31388754875488  0.65895479147915
 6  13.34282627662766 -1.92632815991599 -0.33218810781078
 6 -13.56830917091709  1.24841763976398  0.63479526352635
 6  10.87925645164517 -0.34587880398040 -0.04812905890589
 6 -11.38177527852785 -0.25487651665167 -0.15134588858886
 6  12.88609282828283 -1.02149290639064 -1.41868274127413
 6 -12.88465922592259  1.71608958595860 -0.58730577257726
 6  11.52171691869187 -0.33548392149215 -1.23604212021202
 6 -11.56429001900190  0.86045236823682 -0.86324586358636
 6  11.36339706670667 -0.20238939703970  2.49111955295530
 6  10.87428686968697 -2.43228370947095  1.34304242424242
 6 -11.73498569256926 -0.76086791479148  2.33391197119712
 6 -12.51529223122312 -2.44996043904390  0.62520442444244
 6  9.51252607860786  0.25036607350735  0.21830851085109
 6 -10.13056442344234 -1.02336642164216 -0.22380106110611
 6  11.00429319431943  0.40055452035204 -2.50259446644664
 6 -10.66958939793980  1.53694407840784 -1.94052335933593
 6  9.25979594659466  1.51676511441144 -0.13802917691769
 6 -8.77083756875688 -0.59840339733973 -0.32403344934493
 6  8.01490747674767  2.23462320222022  0.26209187818782
 6 -7.53866900890089 -1.34291862496250 -0.54766009800980
 6  8.20797127812781  3.72963116801680  0.54000536653665
 6 -7.56942804880488 -2.77275702380238 -0.97455763076308
 6  6.86565197219722  1.57134712861286  0.07940793479348
 6 -6.41975377837784 -0.61223669876988 -0.48590159615962
 6  5.49204975697570  2.02640034693469  0.09205412141214
 6 -5.06366748874887 -1.10443031913191 -0.64354652865286
 6  4.44137806880688  1.21179659355936  0.20313468446845
 6 -3.89984540454045 -0.38913511961196 -0.29861719171917
 6  3.02117472247225  1.70005060296030  0.31963362836284
 6 -2.56824058805881 -0.81333566366637 -0.39809746974697
 6  2.72569285028503  3.18846829572957  0.63000570957096
 6 -2.28247374137414 -2.19138644074407 -0.95966700670067
 6  2.05277485248525  0.86005316921692 -0.02357148214821
 6 -1.65153647664767  0.14738444434443 -0.16368819581958
 6  0.62780994999500  0.92227699559956  0.09196507650765
 6 -0.21822069106911 -0.07075918101810 -0.22235987598760
 1  13.56711598359836 -0.25213864896490  1.01880671867187
 1  13.36757199319932 -1.85869645074507  2.11476160816082
 1 -14.23721649864986 -0.45761591859186  1.57332453845385
 1 -14.18731009800980 -0.65097202020202 -0.29106072607261
 1  12.83759896189619 -3.04551929502950 -0.22070013501350
 1 -13.21657711871187  1.70837535553555  1.68126759975998
 1  13.69224015601560 -0.21004372447245 -1.53243912791279
 1  12.83222471547155 -1.58631085818582 -2.35464614061406
 1 -13.72721826582658  1.71147246824682 -1.39663759675968
 1 -12.51201980898090  2.76311837583758 -0.57458434143414
 1  11.85153377337734 -0.55199592569257  3.28166282728273
 1  10.25940180518052 -0.14325383548355  2.87453633463346
 1  11.79960923092309  0.87934766766677  2.34384351935194
 1  10.95947495049505 -3.07668824892489  0.45471085708571
 1  11.09564048104811 -2.94994991209121  2.23551347534753
 1  9.79184518551855 -2.24636562966297  1.79202414541454
 1 -11.60767766776678  0.37582315331533  2.50349424242424
 1 -10.78754326332633 -1.01051820682068  2.36965296929693
 1 -12.27931909090909 -1.32057296229623  2.94915751175117
 1 -13.15800558155816 -2.85634688668867  1.39765427442744
 1 -11.56602965096510 -2.95360738873887  0.89037409340934
 1 -12.74986534453445 -2.86307661566157 -0.46709518351835
 1  8.84042586658666 -0.19703802390239  0.83077726172617
 1 -10.32348208020802 -2.12289601360136 -0.31835146814681
 1  10.03502592159216  0.62925302320232 -2.36627133013301
 1  11.55020345534554  1.47671196209621 -2.74942465646565
 1  10.96995123012301 -0.32564305140514 -3.39997712771277
 1 -11.45128613561356  1.96365959495950 -2.63281477447745
 1 -9.93430896989699  0.73311394839484 -2.29852445844584
 1 -10.18575033003300  2.61478009100910 -1.70974457045705
 1  14.94414096709671 -2.68854775987599  0.23004489748975
 1 -15.31611104610461  1.75141005500550  1.45325353035303
 1  10.29614509650965  2.07765106900690 -0.47551686668667
 1 -8.63175987298730  0.38741083908391 -0.17592240524052
 1  8.87860072207221  4.09181903480348 -0.26882318531853
 1  7.23856724572457  4.20917632653265  0.69155498849885
 1  8.88479318931893  3.82055494239424  1.46306932493249
 1 -7.88013504350435 -3.47708463756376 -0.05813165216522
 1 -8.29717547354736 -2.85626464056406 -1.75318164816482
 1 -6.58596744574457 -3.11676532863286 -1.30685747774778
 1  6.91806346934693  0.46830057295730 -0.11345473747375
 1 -6.38428869086909  0.46555639553955 -0.20761313831383
 1  5.44603398739874  3.06197134503450  0.33003525852585
 1 -4.88192201220122 -2.00995230233023 -0.94468186818682
 1  4.47108020702070  0.14710295619562 -0.13601201220122
 1 -4.02959846384639  0.47526264316432  0.13386618261826
 1  3.48406619161916  3.56330037193719  1.38722492349235
 1  1.68752540554055  3.57217588848885  1.09205161316132
 1  3.02719674167417  3.67300513441344 -0.28665916191619
 1 -2.65088722572257 -2.87034418151815 -0.34356740074007
 1 -2.65761526952695 -2.60102122222222 -1.81957592459246
 1 -1.18607540654065 -2.45885606070607 -0.79841287728773
 1  2.11925908390839 -0.16009466056606 -0.45592349634964
 1 -1.88771817281728  1.14501441934193  0.07547093409341
 1  0.30131587858786  1.97635034093409  0.32283807880788
 1  0.16258902890289 -1.16430638073807 -0.75844342834283

