%nproc=4
%Mem=2GB
# td=(NStates=1) CAM-B3LYP/6-31G(d,p) 

TD

0 1
 8  14.76727494649465 -1.99958742984298 -0.36333518651865
 8 -14.84869146614662  2.01693354935494  0.60526962096210
 6  11.46546984098410 -1.05678631273127  1.09705306630663
 6 -12.27562519451945 -0.94488704870487  0.77731325332533
 6  12.93180191219122 -1.44588762686269  0.98315588758876
 6 -13.63443605260526 -0.10798695869587  0.57392628862886
 6  13.36764875887589 -1.85437096419642 -0.37550243924392
 6 -13.57210955095510  1.30771356935694  0.63694547854785
 6  11.01594012001200 -0.30624484058406 -0.05918016401640
 6 -11.36558365936594 -0.32620364936494 -0.32968372237224
 6  13.09967418641864 -0.79709046614661 -1.32296316931693
 6 -12.72979373937394  1.72792076907691 -0.55508255025503
 6  11.73425817281728 -0.15503587668767 -1.17290580658066
 6 -11.60432402240224  0.91354767776778 -0.77004654365437
 6  11.19183991099110 -0.37588674677468  2.40340078107811
 6  10.62117155815582 -2.48080856195620  1.19702782278228
 6 -11.76649884388439 -0.74002583058306  2.13042162216222
 6 -12.48661936393639 -2.39734517751775  0.37494939893989
 6  9.62349717571757  0.30820185708571  0.07720440044004
 6 -10.09504087108711 -1.04956904190419 -0.49015769676968
 6  11.20163292829283  0.73225769066907 -2.33723793079308
 6 -10.64720715971597  1.59598998299830 -1.81079038603860
 6  9.32713268026803  1.66395983388339 -0.05169054305431
 6 -8.88340882588259 -0.57364092109211 -0.12223326932693
 6  8.03371935793579  2.25733547344734  0.07648331733173
 6 -7.61023616561656 -1.25725005810581 -0.41527685968597
 6  8.11054153515352  3.67910611551155  0.59078044404440
 6 -7.69518062406241 -2.73472322042204 -0.82683285828583
 6  6.91460686768677  1.46292628652865 -0.01806181218122
 6 -6.46050785378538 -0.60041551665167 -0.19829283528353
 6  5.53846439843984  1.90066777367737  0.02021693769377
 6 -5.07287840984098 -1.18221809790979 -0.38579075307531
 6  4.47612154315432  1.19879529342934  0.01215558655866
 6 -3.99705512551255 -0.42599880598060 -0.14684201420142
 6  3.06485909090909  1.48315891379138  0.05124678967897
 6 -2.68248201220122 -0.77914224432443 -0.28611627162716
 6  2.81534181518152  3.02795224412441  0.28990169916992
 6 -2.37299279327933 -2.27751505360536 -0.43576461646165
 6  2.07301687668767  0.61104826872687 -0.08163728872887
 6 -1.67839916291629  0.11700140604060 -0.03870569756976
 6  0.71197836683668  0.87889265716572 -0.02938705870587
 6 -0.25468433743374 -0.18337044214421 -0.08735637563756
 1  13.47677694969497 -0.63129656475648  1.43820865886589
 1  13.07629286528653 -2.33509409050905  1.61218135013501
 1 -14.50481325832583 -0.53185334233423  1.37925513151315
 1 -14.01520288728873 -0.53336025902590 -0.24217583758376
 1  12.98552375437544 -2.82302704580458 -0.59418748374837
 1 -12.98558401940194  1.53646816481648  1.49174864786479
 1  14.03694462646265  0.10963824372437 -1.08909479347935
 1  13.11913340634063 -1.21001322842284 -2.18535921192119
 1 -13.40154569856986  1.69663098409841 -1.57743567656766
 1 -12.46530513751375  2.82579464346435 -0.33981086408641
 1  11.65074369436944 -1.01519224532453  3.36808146914692
 1  10.17851371637164 -0.33813332343234  2.62481136213621
 1  11.55046431643164  0.54494422732273  2.50207934293429
 1  10.85908491149115 -3.06343692379238  0.23178856485649
 1  11.05357627462746 -3.18838375547555  2.00706063006301
 1  9.66821282228223 -2.36037703080308  1.25043998699870
 1 -11.61639853985399  0.26875244624462  2.28751264426443
 1 -10.73973848284828 -1.28242539753975  2.21724772877288
 1 -12.79777093609361 -0.92018292329233  2.68146074207421
 1 -13.27924770577058 -2.66920817281728  1.07361187018702
 1 -11.63835688368837 -3.30972300030003  0.45380043604360
 1 -12.89461981998200 -2.60058036603660 -0.69647812181218
 1  8.91219304330433 -0.43268158825883  0.48855303930393
 1 -10.19306903890389 -2.08796252025203 -0.77858749174917
 1  10.06079849884988  0.94196429432943 -2.48692339533953
 1  11.70119855485549  1.88947323822382 -2.33714342834283
 1  11.63379761476148  0.27390690359036 -3.30571770177018
 1 -11.10955196219622  1.98284151315132 -2.73109460246025
 1 -9.90765630463046  0.82828346534653 -2.02624723072307
 1 -10.18245000000000  2.54628324132413 -1.42230582658266
 1  14.85032158515852 -2.92416132123212  0.36789868286829
 1 -15.42924235923592  2.13603851785179  1.48216642164216
 1  10.00712619461946  2.36120942484248 -0.41167048204821
 1 -8.95647234423442  0.48233033103310 -0.04077889088909
 1  9.00598346034603  4.01715156805681 -0.08255455845585
 1  7.15957934693469  4.22162757165717  0.48307414041404
 1  8.43812852285228  3.69328221512151  1.68486150415042
 1 -8.16902393239324 -3.45515244434443 -0.42002784178418
 1 -8.10145590159016 -2.85535454955496 -1.92990932093209
 1 -6.58334718371837 -3.12061571367137 -0.86913370537054
 1  7.00716237923792  0.29496323922392 -0.68975236723672
 1 -6.53491375337534  0.31371121102110  0.10181780478048
 1  5.49467885188519  2.97147229512951  0.26592884788479
 1 -4.86701052105211 -2.31795310241024 -0.72631003100310
 1  4.57715081408141  0.05688393429343 -0.03648205920592
 1 -4.37479298329833  0.70073519041904  0.31433422942294
 1  3.28882666766677  3.31190523242324  1.25971217221722
 1  1.64811146414641  3.26211488238824  0.41486389438944
 1  3.34745876787679  3.73310114401440 -0.39858035403540
 1 -2.63674581158116 -2.89381652875288  0.60364732073207
 1 -3.10153966196620 -2.85286640674067 -1.13862782978298
 1 -1.18129492849285 -2.59868004310431 -0.46273930993099
 1  2.32804996299630 -0.40625927702770 -0.17578548254825
 1 -1.87849725072507  1.17366728462846  0.23544693169317
 1  0.49920566756676  1.95473817971797  0.03345914091409
 1  0.23701647164716 -1.12704265436544 -0.01696928092809

