%nproc=4
%Mem=2GB
# td=(NStates=1) CAM-B3LYP/6-31G(d,p) 

TD

0 1
 8  14.61447966696670 -2.22716018711871 -0.27633648664866
 8 -14.76376297329733  1.96881873787379  0.86047514151415
 6  11.34471776577658 -1.20762139623962  1.22276563756376
 6 -12.34267189918992 -1.00275283528353  0.74726024802480
 6  12.82463119511951 -1.48868190629063  1.16055362736274
 6 -13.67920052905290 -0.25697185718572  0.74729362536254
 6  13.20885287928793 -2.06624215131513 -0.18869375837584
 6 -13.62000434043404  1.20767356535654  0.82620440444044
 6  10.91835036103610 -0.27396161226123  0.01861761576158
 6 -11.31467856885689 -0.26051708070807 -0.12671342534253
 6  13.00364458345834 -0.91519227632763 -1.14482535553555
 6 -12.70819157915792  1.74774275127513 -0.40190723272327
 6  11.72286703370337 -0.24861523462346 -1.07420593659366
 6 -11.53204679467947  0.91819814281428 -0.69708924792479
 6  11.11869259625963 -0.33214237233723  2.56854729572957
 6  10.45885532653265 -2.45176565766577  1.24208232823282
 6 -11.85095728972897 -1.00434226222622  2.13389196919692
 6 -12.57359806180618 -2.46044148714872  0.32060396439644
 6  9.68436326232623  0.48080911781178  0.22729940994099
 6 -10.08042940994099 -1.05041912691269 -0.41763044404440
 6  11.23621638663866  0.55777024192419 -2.23878808580858
 6 -10.66334877387739  1.56104648864886 -1.69625893289329
 6  9.35401536853685  1.67495093299330 -0.11343671767177
 6 -8.82219270427043 -0.60761431843184 -0.23495454145415
 6  8.03620960696069  2.34735447534753  0.10386605560556
 6 -7.53060820282028 -1.35105943904390 -0.44982031403140
 6  8.07799828082808  3.82338054295430  0.28359972597260
 6 -7.55208631463146 -2.70536028412841 -0.86090626562656
 6  6.93473888088809  1.59412940684068 -0.15393539953995
 6 -6.33238504150415 -0.63156863196320 -0.24533753975398
 6  5.54427497949795  2.08336604350435 -0.03772885688569
 6 -5.00855197719772 -1.05748562466247 -0.43756593059306
 6  4.58281221222122  1.19601501540154 -0.18632426142614
 6 -3.97419283928393 -0.32421862796280 -0.29976730673067
 6  3.12408501350135  1.57856845474547 -0.08999733473347
 6 -2.52515627962796 -0.67191152125213 -0.57597525752575
 6  2.82111239223922  3.03526297519752  0.32937564656466
 6 -2.24342983698370 -2.10184748684868 -0.83940498049805
 6  2.09315889088909  0.65283244714471 -0.36114523952395
 6 -1.61894321732173  0.21392109800980 -0.18162998999900
 6  0.72955012401240  0.95507027492749 -0.18548266826683
 6 -0.14144301330133  0.04302219711971 -0.21870951095110
 1  13.28972824482448 -0.69276271137114  1.43401823982398
 1  13.12026726272627 -2.34768534963496  1.97968810081008
 1 -14.55509828682868 -0.64803496049605  1.40112731873187
 1 -14.32056342334234 -0.48073499649965  0.06544492449245
 1  12.43736893889389 -2.92135687878788 -0.59890795579558
 1 -13.03199866086609  1.34351886988699  1.72424189718972
 1  13.84453538553855 -0.24511723182318 -0.81738762276228
 1  13.15026651965197 -1.02736496359636 -2.34335501150115
 1 -13.38284382838284  1.71593291429143 -1.30763869686969
 1 -12.55752435943594  2.98986105010501 -0.33713059605961
 1  11.36348496849685 -0.78070879697970  3.59328398939894
 1  9.94882074707471 -0.01808131823182  2.69208808980898
 1  11.73617288728873  0.61082081498150  2.67404653965397
 1  10.48003700670067 -3.01125170527053  0.36066145214521
 1  10.53423434043404 -3.19733465056506  2.20098002200220
 1  9.38867486848685 -2.18355934903490  1.20508545154515
 1 -11.96888378837884 -0.12350677967797  2.34561845484548
 1 -10.66383089208921 -1.55152230723072  2.22714871887189
 1 -12.58979013801380 -1.66928783378338  2.86069866586659
 1 -13.29996977797780 -3.02652390439044  0.99915442444244
 1 -11.66800984898490 -3.00943297129713  0.38117317331733
 1 -13.01953231123112 -2.53034334233423 -0.67380585458546
 1  8.82157398139814 -0.26261458155816  0.43657784178418
 1 -10.32070180218022 -2.12448617261726 -0.69967960096010
 1  10.15441786078608  0.92936303420342 -2.02577728072807
 1  11.88836727172717  1.39697398829883 -2.32100181418142
 1  11.41536577157716  0.00869038193819 -3.12839996999700
 1 -11.42398340534053  1.80958418741874 -2.46918841184118
 1 -9.65388092709271  0.92955359235924 -2.09423402940294
 1 -10.35548730373037  2.55308392139214 -1.43156675267527
 1  15.06954350735074 -2.85611451655166  0.30187208020802
 1 -15.19870930593059  1.69656457045705  1.71457966296630
 1  10.19981546354635  2.35407871177118 -0.52538185318532
 1 -8.78464516151615  0.49161125912591  0.38112329932993
 1  8.56242910491049  4.29872972587259 -0.58557486048605
 1  6.98976236523652  4.28271368026803  0.45105093809381
 1  8.78400311031103  4.02601548844885  1.04002702070207
 1 -8.14291132113211 -3.24969189828983 -0.12969880888089
 1 -8.37619337533753 -2.72289130323032 -1.84235056505651
 1 -6.54176302530253 -3.00617426952695 -1.18162495449545
 1  6.96056771977198  0.28843258615862 -0.37341073307331
 1 -6.43525378737874  0.39835967586759  0.30230785378538
 1  5.51364074807481  3.29784493239324  0.08208046304630
 1 -4.90127394739474 -2.04211551865186 -1.08097549754976
 1  4.70044314331433  0.17793603950395 -0.45454386538654
 1 -4.08554405840584  0.57912302920292  0.59299209520952
 1  3.43120090509051  3.23207724962496  1.09594579557956
 1  1.74173082608261  3.00384905580558  0.70599300730073
 1  3.15775979797980  3.90158799269927 -0.48890938693869
 1 -2.75077721472147 -2.84972211931193 -0.06914995899590
 1 -2.73886339433943 -2.28872999309931 -1.84545851285129
 1 -1.03860065906591 -2.39806998209821 -1.05689872587259
 1  2.32882004000400 -0.26700535163516 -0.60541844584458
 1 -1.96659606060606  1.17723764166417  0.01397478447845
 1  0.39157490449045  1.84552725862586  0.26219201420142
 1  0.28030080008001 -0.86062601270127 -0.65341292529253

