%nproc=4
%Mem=2GB
# td=(NStates=1) CAM-B3LYP/6-31G(d,p) 

TD

0 1
 8  14.60174839383938 -2.21262873397340 -0.14738359135914
 8 -14.82666926392639  1.86906876287629  0.88162725672567
 6  11.31734502850285 -1.13742437653765  1.21029439043904
 6 -12.37985561756176 -0.96405896589659  0.78310383238324
 6  12.74780351235124 -1.37600063816382  1.10891846384638
 6 -13.73717632663266 -0.25581174117412  0.67824672067207
 6  13.20024201820182 -2.03260878797880 -0.21943683268327
 6 -13.60307264726473  1.22597539553955  0.82745452945295
 6  10.94899342534253 -0.30381459755976 -0.08470271627163
 6 -11.29758685968597 -0.27075810481048 -0.18027878187819
 6  13.00593481248125 -0.98122887998800 -1.27709858285829
 6 -12.85814657465747  1.80955893289329 -0.42017905990599
 6  11.71339608660866 -0.35269564266427 -1.10908942494249
 6 -11.50708429842984  0.96445276827683 -0.76002554155416
 6  11.15999672667267 -0.39983914201420  2.54006444744474
 6  10.57034647564756 -2.42233271437144  1.27234535453545
 6 -11.81403359735974 -0.98154998299830  2.19168774877488
 6 -12.48063876587659 -2.44178962196220  0.29094099809981
 6  9.60595542154215  0.44060509740974  0.08699537953795
 6 -9.99923129012901 -1.05789987498750 -0.40511919291929
 6  11.45127789278928  0.52646711161116 -2.40943515051505
 6 -10.67957039603960  1.51737212121212 -1.81360066706671
 6  9.40313028002800  1.71673511141114 -0.24893026702670
 6 -8.74119460446045 -0.51446500350035 -0.26529757575758
 6  8.01935792179218  2.32804254415442 -0.04968929992999
 6 -7.57181232323232 -1.27291162426243 -0.42492782478248
 6  8.11059154015402  3.85157336223622  0.22956432243224
 6 -7.69298040404040 -2.73642339043904 -0.86142631763176
 6  6.90020542754275  1.55026502040204 -0.04205421142114
 6 -6.43332513551355 -0.59286476157616 -0.32376538253825
 6  5.62108266026603  2.09136684358436  0.09303421942194
 6 -5.06435755775578 -1.22231210731073 -0.52598477247725
 6  4.51724565556556  1.27239265316532 -0.15309093809381
 6 -4.00932635263526 -0.34320052615262 -0.31603893389339
 6  3.11862446744674  1.68410900880088  0.03854551955196
 6 -2.54462822682268 -0.72459678977898 -0.39515717571757
 6  2.87750803180318  3.07103655255526  0.63095580458046
 6 -2.32558805280528 -2.16630393249325 -0.81688272827283
 6  2.14086366136614  0.81241840574057 -0.21338046304630
 6 -1.56563788678868  0.17930763666367 -0.06939876687669
 6  0.69782695169517  0.93556832473247  0.04545042504250
 6 -0.23677254625463 -0.06876898199820 -0.26705434543454
 1  13.39629890189019 -0.46110954605461  1.54322916091609
 1  12.83082831883188 -2.13820440154015  1.98311844384438
 1 -14.28902167916792 -0.65622577957796  1.63409061506151
 1 -14.31769313631363 -0.26807373037304 -0.23249486948695
 1  12.66690189218922 -3.01197594069407 -0.63108117311731
 1 -12.96274173517352  1.32776729472947  1.61590106310631
 1  13.75529646164616 -0.25639835993599 -1.18241412541254
 1  13.14342583558356 -1.23331555865587 -2.18542921892189
 1 -13.41787733173317  1.89675099609961 -1.42892082508251
 1 -12.39041764876488  2.82681474547455 -0.52989987298730
 1  11.14175279527953 -1.03433415951595  3.44866952795280
 1  10.07426329132913  0.08877936783678  2.55697457845785
 1  11.96582585258526  0.44560429332933  2.79204833983398
 1  10.88376737973797 -3.06599717981798  0.46087147314731
 1  10.80710162716272 -3.01949686678668  2.18080800480048
 1  9.41385738673868 -2.18261925502550  1.29213415641564
 1 -11.82550945094509  0.00935650665067  2.46502039503950
 1 -10.74720922992299 -1.32660981598160  2.25681168516852
 1 -12.60631179017902 -1.51512241724172  2.73398599459946
 1 -13.17302708370837 -3.12176342834283  0.79116362536254
 1 -11.48625167316732 -2.83740576857686  0.22425748174817
 1 -12.71552191019102 -2.53165347334733 -0.68913738773877
 1  8.97545936993699 -0.41912023212321  0.63314749874987
 1 -10.06743647564757 -2.09481320532053 -0.51959159215922
 1  10.38392081108111  0.70384048194819 -2.54578928192819
 1  12.10989942494250  1.48766305720572 -2.46153586758676
 1  11.80661489648965  0.10642015491549 -3.40854798479848
 1 -11.35799680668067  1.59860308930893 -2.69155064806481
 1 -9.71463700270027  0.97867850485048 -2.20736534253425
 1 -10.39394114911491  2.55516412941294 -1.40799439543954
 1  14.60216676967697 -2.98696760186019  0.48483037603760
 1 -15.37911734673467  1.57497241124112  1.60743894889489
 1  10.19956543854385  2.21702500640064 -0.70533984898490
 1 -8.62440913791379  0.56915901390139 -0.13149796279628
 1  8.82893575557556  4.49447930083008 -0.40948725172517
 1  7.08892228122812  4.11194660356036  0.18392422542254
 1  8.46988169816982  4.17387027392739  1.16178919691969
 1 -8.14204123412341 -3.53709063816382 -0.14081992099210
 1 -8.27521327732773 -2.84041305540554 -1.85052138213821
 1 -6.62058090709071 -3.16362001410141 -0.95713250525052
 1  7.23139480248025  0.43747749064906 -0.23264665666567
 1 -6.16530679267927  0.50670050995100 -0.29144152115212
 1  5.20650003400340  3.09560470837084  0.43892614761476
 1 -4.88417223722372 -2.41684299139914 -0.62178957895790
 1  4.77516061506151  0.14834308020802 -0.43156156715672
 1 -4.29763526752675  0.62849796669667  0.15536833283328
 1  3.26391417641764  2.97671171307131  1.59444564556456
 1  1.79001565456546  3.01523019391939  0.63880628862886
 1  3.33076709870987  3.82958079197920  0.08235773977398
 1 -2.77799993699370 -3.03898104520452 -0.20025306930693
 1 -2.98532804080408 -2.13408452855285 -1.72209617661766
 1 -1.31068786778678 -2.35281545664566 -1.06783981998200
 1  2.48359551755176 -0.14745339643964 -0.51316922092209
 1 -1.66327572857286  1.29658957685769  0.21961534853485
 1  0.41685743274327  2.00518322422242  0.42516831183118
 1  0.21012378237824 -1.15074502460246 -0.71272885688569

