%nproc=4
%Mem=2GB
# td=(NStates=1) CAM-B3LYP/6-31G(d,p) 

TD

0 1
 8  14.75273349234923 -2.35656312741274 -0.27291614461446
 8 -14.80384698169817  1.83183503950395  0.84458355235524
 6  11.43582687668767 -1.06888752285229  1.21418477947795
 6 -12.30033766576658 -0.89076163616362  0.81151667366737
 6  12.91834056605661 -1.53120615871587  1.11972954495450
 6 -13.69273188218822 -0.21638779877988  0.79552844884488
 6  13.32791478547855 -2.03791931903190 -0.24987987698770
 6 -13.47363970397040  1.31622442044204  0.75610739473947
 6  11.00188871487149 -0.25167938403840 -0.06238048404840
 6 -11.29836693769377 -0.31602263126313 -0.19687044104410
 6  13.12963718271827 -0.89748050515052 -1.26691756475648
 6 -12.76407716771677  1.68240621762176 -0.50072711471147
 6  11.75495024202420 -0.28934930803080 -1.14288280428043
 6 -11.62349593959396  0.78979530253025 -0.85203474247425
 6  11.16730745774577 -0.17498665676568  2.38231867286729
 6  10.43954339533953 -2.29040952205220  1.41493961396140
 6 -11.66778897289729 -0.83415524352435  2.21755033503350
 6 -12.61728243024302 -2.38877432043204  0.58534043804380
 6  9.64750957695770  0.31441247814781  0.02695937593759
 6 -10.07236860386039 -1.13845793079308 -0.47699638063806
 6  11.32627539253925  0.39016348124812 -2.45237944494449
 6 -10.66400883988399  1.39631001500150 -1.89110841784178
 6  9.33503347034703  1.61298473637364 -0.20178555255526
 6 -8.83877436243624 -0.61818537553755 -0.36130717671767
 6  7.97823380938094  2.25489522942294 -0.00361469246925
 6 -7.57052219421942 -1.30388472157216 -0.58057338933893
 6  8.13804428542854  3.69099730463046  0.48835020102010
 6 -7.72020312631263 -2.73437318541854 -0.94471464646465
 6  6.82411781878188  1.59401939583958 -0.10960096609661
 6 -6.47432923592359 -0.65353082818282 -0.20091309730973
 6  5.57330788278828  2.07962566946695  0.29090400640064
 6 -5.11482260426043 -1.11403127922792 -0.50761293529353
 6  4.36827075807581  1.38435384928493 -0.09594522352235
 6 -3.99825524552455 -0.37606381248125 -0.38251558155816
 6  3.08234083908391  1.75889648754875  0.15358702370237
 6 -2.62000576457646 -0.72214654475448 -0.50647830783078
 6  2.77162744374437  3.13705315421542  0.82783549254926
 6 -2.30724621862186 -2.09546684878488 -0.88228926892689
 6  2.06664623962396  0.86526369026903 -0.09529865486549
 6 -1.55792711571157  0.20401010691069 -0.30079190619062
 6  0.72223939293929  0.96993176107611 -0.07048116811681
 6 -0.15751462046205  0.03422131703170 -0.33260090009001
 1  13.51997126912691 -0.61288472357236  1.31368620662066
 1  12.92832806880688 -2.46161674277428  1.87917804980498
 1 -14.44962773977398 -0.38885904290429  1.60891809780978
 1 -14.13560492749275 -0.50710763376338 -0.10945256525653
 1  12.67251245324533 -2.89212395549555 -0.64898296329633
 1 -12.93423888488849  1.60176469446945  1.67488696169617
 1  14.00907183918392 -0.08486120622062 -1.21344722872287
 1  13.04476596959696 -1.35479770687069 -2.24110478647865
 1 -13.69242478647865  1.83236455745575 -1.23636156915692
 1 -12.30345895289529  2.69370143414341 -0.40811769476948
 1  11.61755037503750 -0.76507723382338  3.16054071507151
 1  10.05798166316632  0.04170466036604  2.78021690269027
 1  11.62387165716572  0.80877060996100  2.41682081708171
 1  10.64412341534153 -3.15554613471347  0.77051243724372
 1  10.47457837483748 -2.78627354445445  2.46572649664967
 1  9.35650165116512 -2.19634062716272  1.24889983298330
 1 -11.04624152415241  0.26192176317632  2.34473836683668
 1 -10.81919642864287 -1.57664481948195  2.35350135413541
 1 -12.40163132213221 -1.28078898389839  2.91141373737374
 1 -13.32451223222322 -2.92784403640364  1.32461697069707
 1 -11.84561760976097 -2.96226825482548  0.47862291829183
 1 -13.07266762476248 -2.53467377537754 -0.41429990399040
 1  8.90715253925393 -0.40646896699670  0.65757994199420
 1 -10.17433716571657 -2.10606433043304 -0.40926055905591
 1  10.12915533453345  0.55376547444744 -2.55607031003100
 1  11.85158359335934  1.25961025192519 -2.59638935293529
 1  11.52232646764677 -0.23570405750575 -3.20438756875688
 1 -11.19223023002300  1.51687491649165 -2.94119561256126
 1 -9.58354389338934  0.75329596659666 -2.08517312331233
 1 -10.44502625762576  2.48108672167217 -1.52258585458546
 1  15.01627818081808 -3.01443034813481  0.33992588558856
 1 -15.16425586058606  1.79499441344134  1.68011621662166
 1  10.28205368736874  2.09388269216922 -0.68131744674467
 1 -8.74131082808281  0.41049314731473  0.15210039703970
 1  8.76510937293729  4.20718057095710 -0.22602890589059
 1  7.17525091409141  4.31544695359536  0.59331516451645
 1  8.59181389138914  3.96792967986799  1.33401641964196
 1 -8.45532256225622 -3.27799472857286 -0.39428526752675
 1 -8.03526928292829 -2.66590560466047 -2.24754108410841
 1 -6.80060890989099 -3.31725537763776 -0.91366815881588
 1  6.77340900390039  0.51085482838284 -0.51112450445045
 1 -6.69766002800280  0.39162900280028 -0.01759413641364
 1  5.58880826482648  2.84167931583158  0.87721997699770
 1 -4.87820164016402 -1.94140544764476 -0.80702810281028
 1  4.66734983398340  0.49810805670567 -0.83878228922892
 1 -4.02230773477348  0.62820793769377 -0.11190839483948
 1  3.19118690369037  3.03991803370337  1.86551275227523
 1  1.57942459545955  3.22754142504250  0.80285269326933
 1  3.42771679367937  3.92366019991999  0.47792729672967
 1 -2.77718985598560 -2.76107325442544 -0.11205424942494
 1 -3.12952246024602 -2.40646176627663 -1.66821078807881
 1 -1.14622142114211 -2.47614778987899 -0.97034007000700
 1  2.58209536753675  0.08990033893389 -0.73083098709871
 1 -1.94195359635964  1.13938385628563 -0.16662327532753
 1  0.44972071907191  1.94404711061106  0.35181097609761
 1  0.10923369336934 -0.92551250135014 -0.79629721372137

