%nproc=4
%Mem=2GB
# td=(NStates=1) CAM-B3LYP/6-31G(d,p) 

TD

0 1
 8  14.75532375137514 -2.20728819991999 -0.40389924292429
 8 -14.72705930293029  2.06481833783378  0.70957005100510
 6  11.56030932493249 -1.01964259835984  1.26410977197720
 6 -12.44993262526253 -0.98579113911391  0.67411293329333
 6  13.03366209820982 -1.34195723382338  1.10200777277728
 6 -13.67057966696670 -0.04927108710871  0.65736463246325
 6  13.36052804680468 -1.88101362846285 -0.29985487448745
 6 -13.46806914691469  1.41234403240324  0.79419120312031
 6  10.91520004600460 -0.33394761086109 -0.03393763976398
 6 -11.35247234823482 -0.38026905590559 -0.20773152715272
 6  13.06970118911891 -0.89417017411741 -1.28889976297630
 6 -12.61227198719872  1.84055203220322 -0.35671271327133
 6  11.58324307130713 -0.25134550765077 -1.06825534153415
 6 -11.59052264226423  0.84496081908191 -0.69725926492649
 6  11.21918264526453 -0.23810296839684  2.48940938193819
 6  10.85375481648165 -2.39266974807481  1.37215533553355
 6 -11.92949514351435 -1.20955278327833  2.14497307730773
 6 -12.83107380938094 -2.39533497649765  0.04261616561656
 6  9.72395722172217  0.36733777067707  0.16967364736474
 6 -10.06650801780178 -1.14951903690369 -0.31708038903890
 6  11.17694045904590  0.33766823172317 -2.53447765476548
 6 -10.58958139713971  1.60348073207321 -1.63823313031303
 6  9.42631259825983  1.64438787668767 -0.03150852485248
 6 -8.88966945194520 -0.57165072207221 -0.18359940594059
 6  8.03486947294729  2.30293003290329  0.08792446144614
 6 -7.65942108410841 -1.33169750285029 -0.55640097209721
 6  8.13943442444245  3.65733393829383  0.33594496049605
 6 -7.66550765676568 -2.71711145924592 -0.84580475547555
 6  6.89230463746375  1.59964995889589 -0.07597760376038
 6 -6.50693249624962 -0.69485496059606 -0.30214322032203
 6  5.55095564756476  1.99940764766477  0.12293720972097
 6 -5.09986110811081 -1.15406528262826 -0.44745691969197
 6  4.53445737673767  1.28281369526953 -0.09746537553755
 6 -4.08613403340334 -0.35547175327533 -0.32457978797880
 6  2.99407201220122  1.64112471037104  0.02168383338334
 6 -2.60361412541254 -0.70658498859886 -0.35297295729573
 6  2.77623790479048  3.06545599449945  0.46966967596760
 6 -2.40823631763176 -2.28610591269127 -0.56241728172817
 6  2.13540311531153  0.70518768266827 -0.08947807280728
 6 -1.71121244424442  0.23359306520652 -0.27340916791679
 6  0.72876004500450  0.89503427132713 -0.03104722472247
 6 -0.21253012201220 -0.04378648374837 -0.19377701770177
 1  13.43903317531753 -0.15548898399840  1.33914875287529
 1  13.40025526152615 -2.20718129922992  1.83642377437744
 1 -14.33436621362136 -0.68173833083308  1.45693289928993
 1 -14.38651001800180 -0.16426334933493 -0.40783240324032
 1  12.89194439643964 -2.74342908600860 -0.64846291129113
 1 -12.81394685568557  1.54682920092009  1.75432490549055
 1  13.95269620162016 -0.08415113521352 -1.46030191419142
 1  13.30855234823482 -1.28564079117912 -2.29649032503250
 1 -13.30548609260926  1.62179350035003 -1.30953888688869
 1 -12.21783039003900  2.88435049904991 -0.38944582758276
 1  11.38799741974197 -0.90278100420042  3.26560122112211
 1  10.11159702470247  0.08500899079908  2.62650153115312
 1  12.02986225622562  0.72451218411841  2.53556269126913
 1  11.10086908990899 -2.94250483058306  0.48776416241624
 1  10.96891780878088 -2.83347826492649  2.22568249224923
 1  9.69154515551555 -2.36641763486349  1.44558950195019
 1 -11.59597649764977 -0.11677610661066  2.70787468046805
 1 -10.92729723872387 -1.94776193119312  1.93806981098110
 1 -12.64112527152715 -1.67999890489049  2.78234083008301
 1 -13.67338711971197 -2.95646689868987  0.64072858185819
 1 -11.93419646764676 -3.06624865286529  0.17738279427943
 1 -12.89805016301630 -2.17340764876488 -1.15953442744274
 1  8.83562538653865 -0.23139145924592  0.53766795079508
 1 -10.25367509950995 -2.13205692969297 -0.27580721372137
 1  10.15371779077908  0.83908400630063 -2.53146784978498
 1  11.80563899889989  1.08987327822782 -2.70227994199420
 1  11.06250048504851 -0.54042452955295 -3.24674180418042
 1 -11.26400740774077  2.43348657765777 -2.20125161816182
 1 -10.13497903690369  0.92968360536054 -2.54920952695270
 1 -9.80938269326933  2.09365797879788 -0.98408200420042
 1  15.11215776877688 -2.72472137723772  0.44040593359336
 1 -15.43367280228023  1.71495640964096  1.41221942694269
 1  9.97146262826283  2.26964026792679 -0.64463377837784
 1 -8.62496919391939  0.46095819381938  0.06211139813981
 1  8.83798666066607  4.39537939083908 -0.32926922992299
 1  7.27348073707371  4.40659606850685  0.47749358235824
 1  8.61470618061806  3.93028591549155  1.34760777877788
 1 -8.00555758575858 -3.58207513661366  0.07550171117112
 1 -8.59188494449445 -2.89165817991799 -1.54282061206121
 1 -6.90765961496150 -3.14911856395639 -1.13673046504651
 1  7.13153481648165  0.60327407030703 -0.30340373237324
 1 -6.40405066706671  0.26817665756576  0.11988961196120
 1  5.35727511151115  3.03688883678368  0.49734198919892
 1 -4.79002282228223 -2.37936924402440 -0.55364276427643
 1  4.58685178417842  0.24915316121612 -0.46017442844284
 1 -4.41785728972897  0.71238635553555 -0.10771797579758
 1  3.31281906690669  3.21849589148915  1.28617481848185
 1  1.69961661466147  3.34576324722472  0.48470087808781
 1  3.08544256625663  3.76389422332233 -0.41828232423242
 1 -3.21727386438644 -2.79200634773477  0.17889484548455
 1 -2.71576108410841 -2.51045216531653 -1.56511047804780
 1 -1.33173997299730 -2.50974114921492 -0.66583961996200
 1  2.64855201320132 -0.13945259635964 -0.31866977097710
 1 -2.23969337033703  1.27237715561556 -0.27500411341134
 1  0.28915466246625  2.00230293619362  0.11114690969097
 1  0.04867763776378 -1.11891184128413 -0.52239982398240

