%nproc=4
%Mem=2GB
# td=(NStates=1) CAM-B3LYP/6-31G(d,p) 

TD

0 1
 8  14.68132635163516 -2.30125759685969 -0.58906775977598
 8 -14.81206780378038  1.98012986898690  0.65738483248325
 6  11.43833712771277 -0.89376001010101  1.21112447344734
 6 -12.33828146014601 -0.84999755975598  0.78532405440544
 6  13.00662939493949 -1.26289932803280  1.05269284128413
 6 -13.67810041904190 -0.15599175917592  0.86415531153115
 6  13.25281727572757 -1.94724025112511 -0.43061795079508
 6 -13.48302064206421  1.35826862486249  0.59078086208621
 6  10.91732025802580 -0.19827404350435 -0.04970921692169
 6 -11.29975707670767 -0.31339236823682 -0.24395514951495
 6  12.94514873387339 -0.89769052615262 -1.35156602960296
 6 -12.79623038303830  1.66843482048205 -0.69318636063606
 6  11.60142488948895 -0.24890526362636 -1.24900341634163
 6 -11.55941953195319  0.85341166416642 -0.88044758375838
 6  11.30446117311731 -0.10126928502850  2.45054549554955
 6  10.67819726072607 -2.34967544864486  1.40924904490449
 6 -11.70789298329833 -0.82837466546655  2.20154873487349
 6 -12.72787348934894 -2.34406984998500  0.41825372937294
 6  9.56846167216722  0.31921295819582  0.17823450345035
 6 -10.03861522852285 -1.02270635563556 -0.42456113711371
 6  11.05043780878088  0.43891835673567 -2.48252245924592
 6 -10.72311475047505  1.49760014401440 -1.95738504550455
 6  9.29709967696770  1.51593503140314 -0.08231360536054
 6 -8.86354683968397 -0.47503106010601 -0.29086013201320
 6  8.08098408440844  2.19805954585459  0.10968663766377
 6 -7.60875601760176 -1.26855118821882 -0.50271560356036
 6  8.00165064606461  3.68409661456146  0.56467783378338
 6 -7.65694680068007 -2.62468221632163 -1.05650582558256
 6  6.87323273027303  1.53527352125213 -0.07357736373637
 6 -6.37926972997300 -0.72521799689969 -0.23159616561656
 6  5.52087263926393  1.99383709060906  0.23065798179818
 6 -4.93441456345635 -1.21157103320332 -0.42043421742174
 6  4.52265619661966  1.25220063396340 -0.01743737273727
 6 -3.83708912891289 -0.57417362346235 -0.00002733273327
 6  3.14783738873887  1.62842344024402  0.22587425242524
 6 -2.52702646664666 -0.89751408150815 -0.28710637063706
 6  2.78016829782978  3.03493294219422  0.71117382638264
 6 -2.14469996399640 -2.28356565866587 -0.70226126612661
 6  2.16090566556656  0.70851801570157 -0.06206533153315
 6 -1.65943726672667  0.09331903780378 -0.09222104910491
 6  0.66584375337534  1.00223499139914 -0.02525664566457
 6 -0.19970883988399 -0.03891599669967 -0.18224586458646
 1  13.62124139613961 -0.23112654775478  0.97806264426443
 1  13.35047028302830 -1.88145872697270  1.91520165216522
 1 -14.28517129412941 -0.39950010701070  1.66998420442044
 1 -14.28761012801280 -0.38773569656966 -0.20020164016402
 1  12.65621082308231 -2.82002674577458 -0.63330139513951
 1 -12.77392285328533  1.84418893689369  1.21226069906991
 1  13.73542447444744 -0.13455617571757 -1.29448533253325
 1  12.86387788078808 -1.20361258835884 -2.44089476547655
 1 -13.62057760176018  1.42622394339434 -1.34355228822882
 1 -12.45244385138514  2.70836290029003 -0.91984886788679
 1  11.62376099609961 -0.66642736883688  3.25786044704470
 1  10.05262112711271  0.04825531543154  2.42230111111111
 1  11.79102837283728  0.69154888778878  2.35845498049805
 1  10.72487149014901 -3.00860144024402  0.44113949994999
 1  11.15684660166017 -2.86103102020202  2.28100802480248
 1  9.71969797079708 -2.39856084918492  1.89982492549255
 1 -11.56906380638064  0.35561113211321  2.49311320432043
 1 -10.68478298729873 -1.39024617961796  2.42512851685168
 1 -12.39772093109311 -1.20436134113411  2.98839143514351
 1 -13.43095287628763 -2.71336258825883  0.95140964996500
 1 -11.81890493849385 -2.90934296229623  0.58054311031103
 1 -13.16816717471747 -2.28166847484748 -0.66088456245625
 1  8.93006483048305 -0.35045336543654  0.52527671167117
 1 -9.97771750375038 -2.14891861586159 -0.64374400740074
 1  9.87200961996200  0.55650574847485 -2.65782048504851
 1  11.34239267426743  1.56555084598460 -2.42772248624863
 1  11.54312854785479 -0.05045553265327 -3.40813794379438
 1 -11.31393240024002  1.80953418241824 -2.71773326632663
 1 -9.88459399839984  0.93883452045205 -2.44805941194119
 1 -10.28560031503150  2.31980059305931 -1.33625722172217
 1  14.68539509250925 -3.11825073017302  0.02765465846585
 1 -15.03945338033803  1.90514542854285  1.51568977397740
 1  10.06349183118312  2.13133643754375 -0.42818213321332
 1 -8.81205790279028  0.53253535153515  0.10508569556956
 1  8.66474933693369  4.35789564246425 -0.18454475747575
 1  7.04629801880188  4.18939434833483  0.60709654265427
 1  8.67093180318032  3.58872175907591  1.59283230123012
 1 -8.32091912191219 -3.48782571167117 -0.41902774177418
 1 -8.16509226522652 -2.57858687278728 -2.08955528552855
 1 -6.83844269326933 -3.15433908600860 -1.23618041004100
 1  6.85950761376138  0.48395213811381 -0.22863625562556
 1 -6.50034029602960  0.26367620752075  0.14922254525452
 1  5.46142552655266  2.97960310821082  0.53143539853985
 1 -4.82476629662966 -2.34258556565657 -0.79927732773277
 1  4.53830692969297  0.07406565246525 -0.26278468946895
 1 -4.22562806680668  0.32952806970697  0.25729852585259
 1  3.34026181118112  3.22335637753775  1.68296449744975
 1  1.52689934293429  3.08692736363636  0.86493890189019
 1  2.91344536653665  3.75539337323732 -0.12201269726973
 1 -2.61499363636364 -2.95715286238624 -0.13932697669767
 1 -2.70774028202820 -2.64455557565757 -1.58195216221622
 1 -1.05972277127713 -2.40980115521552 -0.87569060506051
 1  2.37571472947295 -0.42348099919992 -0.51538944294429
 1 -1.92392179317932  1.06382630053005  0.16247963496350
 1  0.17400314731473  1.89197190309031  0.28661445644564
 1  0.34276704670467 -0.98967891799180 -0.56901448544854

