%nproc=4
%Mem=2GB
# td=(NStates=1) CAM-B3LYP/6-31G(d,p) 

TD

0 1
 8  14.74171239023902 -2.08490596169617 -0.21247010001000
 8 -14.83407000400040  1.93690554655466  0.84567366136614
 6  11.37569086308631 -1.04997563166317  1.15545890689069
 6 -12.27336496849685 -0.85097765776578  0.99224474647465
 6  12.92400113211321 -1.41036407450745  1.13137070907091
 6 -13.69786239523952 -0.14811097109711  0.96851574757476
 6  13.38326032003200 -1.80105563266327 -0.21750663966397
 6 -13.52400474047405  1.36707950595060  0.82140392439244
 6  10.95320384638464 -0.33080729682968 -0.11945619161916
 6 -11.33726082708271 -0.32942397139714 -0.18471922592259
 6  13.12348656765677 -0.76175693279328 -1.25356622962296
 6 -12.91974273427343  1.66149412641264 -0.52022906490649
 6  11.73029777677768 -0.23636400950095 -1.18132664866487
 6 -11.75066865686569  0.79568589158916 -0.89947948694869
 6  11.18693942094209 -0.33636279437944  2.45241568256826
 6  10.66609605060506 -2.47761824292429  1.25895401540154
 6 -11.53823601760176 -0.63446527452745  2.29962854285429
 6 -12.52093279527953 -2.30540598359836  0.70906281028103
 6  9.63020784678468  0.33570460736074  0.08482516251625
 6 -10.07907927492749 -1.04977906290629 -0.44969365036504
 6  11.26010877587759  0.42834729962996 -2.48049225622562
 6 -10.83100553955396  1.41957234123412 -2.11840114711471
 6  9.35812577957796  1.65430886878688  0.02725735173517
 6 -8.88872935793579 -0.51235479247925 -0.49130017601760
 6  8.03580956695670  2.32016175607561  0.23765943494349
 6 -7.67979312131213 -1.33166749984999 -0.61694702670267
 6  8.12687316831683  3.68996720162016  0.51911327732773
 6 -7.71528263426343 -2.67885763386339 -0.98667884288429
 6  6.93953936093609  1.56958695259526 -0.04500450645065
 6 -6.44560636363636 -0.64043951905191 -0.46150915691569
 6  5.58269882188219  1.95867357425743  0.27996291229123
 6 -5.10411153315331 -1.14007388348835 -0.70081225522552
 6  4.45906983798380  1.11532694659466 -0.06142177117712
 6 -3.99766518651865 -0.44928113421342 -0.33521085108511
 6  3.05327793279328  1.59516011391139  0.16605827082708
 6 -2.56413017701770 -0.85310964106411 -0.46961462146215
 6  2.66901718271827  2.98962841174117  0.53014572357236
 6 -2.38186368036804 -2.15582288438844 -0.94049508950895
 6  2.13685326032603  0.74913207710771 -0.21287041204120
 6 -1.60639196219622  0.06898660456046 -0.16997882488249
 6  0.78368553755376  0.91891665956596  0.01693757375738
 6 -0.09437830683068 -0.14709681478148 -0.30059769976998
 1  13.51487075907591 -0.56363979907991  1.44731956995700
 1  13.01963719971997 -2.20716129722972  2.01940207220722
 1 -14.22077485448545 -0.43160331733173  1.88499570557056
 1 -14.36967833483348 -0.35855277827783  0.01157953795380
 1  12.66771197319732 -2.75238998209821 -0.39716778177818
 1 -12.96017147814781  1.86022054005401  1.56923639663966
 1  13.85001593359336 -0.02283500360036 -1.39657554155416
 1  13.11977347034703 -1.06308853595360 -2.27032770877088
 1 -13.46318186218622  1.44609593059306 -1.30119805280528
 1 -12.60223883088309  2.61143320732073 -0.51089797279728
 1  11.71019963996400 -0.72001272737274  3.36343100410041
 1  10.07525339033903 -0.22259176927693  2.86660554155416
 1  11.47821709170917  0.77358709160916  2.24338347334733
 1  10.97036603960396 -2.95958653875388  0.32462784878488
 1  10.85118603560356 -2.87599251635164  2.29350927492749
 1  9.64921092209221 -2.24526551965197  1.09483442644264
 1 -10.99947684768477  0.48700427142714  2.51898579157916
 1 -10.68195270427043 -1.28817597259726  2.13074907890789
 1 -12.40253141214122 -0.83758466346635  3.26428902490249
 1 -13.27425720672067 -2.51817306930693  1.37415192419242
 1 -11.36005905390539 -2.64422645064507  0.61851690769077
 1 -12.97595795379538 -2.21556186418642 -0.26433490749075
 1  8.94159598359836 -0.35864418451845  0.27677186118612
 1 -10.22164189618962 -2.19131285528553 -0.56287592059206
 1  10.19745216421642  0.60571066896690 -2.46243094609461
 1  11.72830126512651  1.39619391029103 -2.53878359235924
 1  11.57389162416242 -0.14613510061006 -3.41047817781778
 1 -11.48581958895890  2.11711494049405 -2.86437793079308
 1 -10.13457899689969  0.59035967296730 -2.44687929392939
 1 -10.15227698269827  2.08780739373937 -1.51701529752975
 1  15.02368892189219 -2.78762766786679  0.44270616361636
 1 -15.44140357535754  1.27647256125613  1.46341454645465
 1  10.18123360536054  2.42999630353035 -0.15946526152615
 1 -8.67967466446645  0.58191028902890 -0.21755656865687
 1  8.89383224522452  4.19256910981098 -0.11054735773577
 1  7.20980436943694  4.33906931583158  0.39405523852385
 1  8.68097280728073  3.99535242214221  1.46193921192119
 1 -7.80637766776678 -3.53168009710971 -0.06068190719072
 1 -8.50247600360036 -2.80049906400640 -1.72953928392839
 1 -6.81376022502250 -3.15233888598860 -1.40728752075208
 1  7.09091075407541  0.44449819271927 -0.32635602760276
 1 -6.57690795279528  0.25693553345335 -0.21106348334834
 1  5.50633001700170  2.97568271617162  0.44873712871287
 1 -5.06819063906391 -2.15368667576758 -1.09991739173917
 1  4.75195829482948  0.09138738463846 -0.49374778577858
 1 -4.13395889988999  0.52639775667567  0.13098589458946
 1  3.10412819781978  3.31058510041004  1.52844904590459
 1  1.62927958095810  3.27406607750775  0.60348275627563
 1  2.86175019701970  3.61115894979498 -0.16484698069807
 1 -2.85608774577458 -2.94313146024602 -0.35722876687669
 1 -2.81338084608461 -2.20837195729573 -2.05561952895290
 1 -1.37968476747675 -2.40238041314131 -0.85984902090209
 1  2.53473063106311 -0.12652130323032 -0.55843374737474
 1 -1.85871527252725  1.06226614451445  0.20004339133913
 1  0.42123787078708  1.67825053095309  0.39590538553855
 1  0.23102587258726 -1.11938188828883 -0.53366095009501

