%nproc=4
%Mem=2GB
# td=(NStates=1) CAM-B3LYP/6-31G(d,p) 

TD

0 1
 8  14.72497071607161 -2.16366383748375 -0.55677453045305
 8 -14.79406600360036  2.04449630563056  0.47850694469447
 6  11.42783607760776 -1.07822845694569  1.21361472247225
 6 -12.33488112011201 -0.89501206120612  0.78568409040904
 6  12.91008974097410 -1.39135217331733  0.95476304830483
 6 -13.68486109510951 -0.20395655565557  0.64726362236224
 6  13.27080907490749 -1.93142866996700 -0.41430631963196
 6 -13.57933027302730  1.31244404240424  0.53190497449745
 6  10.93963248924893 -0.28343255935594 -0.00812505850585
 6 -11.20062716371637 -0.26730775977598 -0.20158091209121
 6  12.90995521452145 -0.91760251735174 -1.54787566056606
 6 -12.77356811681168  1.78656663366337 -0.69302634463446
 6  11.53752849984999 -0.28382875597560 -1.24955347134713
 6 -11.53562715271527  0.86309263226323 -0.85723526252625
 6  11.21046177317732 -0.30772993109311  2.55138557955796
 6  10.76807624862486 -2.41685216631663  1.29046716671667
 6 -11.87057925192519 -0.81489331733173  2.23871245124512
 6 -12.59682038403840 -2.37639308230823  0.41791369536954
 6  9.65673049904990  0.36535757265727  0.22307898789879
 6 -10.03542490949095 -0.99793387838784 -0.44174285528553
 6  11.22378514351435  0.50331479637964 -2.50741494849485
 6 -10.54314675367537  1.47310769476948 -1.83004231123112
 6  9.36524649164916  1.63753719161916  0.03159778577858
 6 -8.77840832583258 -0.51736529352935 -0.20284133013301
 6  8.02522850885089  2.26255599549955  0.08173384238424
 6 -7.52855799779978 -1.31538587168717 -0.47367269926993
 6  8.01361184218422  3.72009021392139  0.50952231823182
 6 -7.57460856685669 -2.79562931103110 -0.81842201720172
 6  6.84693010001000  1.57260725462546 -0.12713271927193
 6 -6.38567037003700 -0.63789926502650 -0.21691469746975
 6  5.53317386938694  2.07539524642464  0.08684360036004
 6 -4.93716483848385 -1.16558643474347 -0.37092926692669
 6  4.39639357035704  1.19788520242024  0.07464183518352
 6 -3.92658807880788 -0.39467567366737 -0.08503583358336
 6  3.05061766676668  1.64923552145215  0.15735740074007
 6 -2.56498026202620 -0.84639896999700 -0.26555421542154
 6  2.73600388138814  3.09850929982998  0.60699340834083
 6 -2.31974746874687 -2.25045234733473 -0.69841088108811
 6  2.01572114711471  0.72540970487049  0.00194106910691
 6 -1.65093641664166  0.13310301620162  0.02052022502250
 6  0.69568673767377  0.91059582748275  0.02983886388639
 6 -0.18464733373337 -0.16175828092809 -0.13609124912491
 1  13.52505177717772 -0.36088952405241  0.95213005100510
 1  13.35482071807181 -1.98687926902690  1.85244537653765
 1 -14.32017479447945 -0.64066422342234  1.62414962096210
 1 -14.20454182118212 -0.37088401140114 -0.38604022402240
 1  12.72700790279028 -2.84217896099610 -0.69891795679568
 1 -13.09909537053705  1.85207972597260  1.49434890789079
 1  13.51330226222622  0.11740902080208 -1.58428431243124
 1  13.12492398539854 -1.43312553965396 -2.57562823882388
 1 -13.54983052705271  1.57107842884289 -1.49473740674067
 1 -12.63837244424442  2.81256332033203 -0.57222410541054
 1  11.72787140714071 -0.75910663676368  3.47134179517952
 1  10.10866673167317 -0.39516902700270  2.75397427842784
 1  11.55397466746675  0.71409114201420  2.75630476547655
 1  11.01381038403840 -3.18538911901190  0.41236662266227
 1  10.78160907790779 -2.87129204630463  2.32729265326533
 1  9.66739274027403 -2.07717871097110  1.12929787278728
 1 -11.99503640364036  0.32122769376938  2.47676156915692
 1 -10.74825933493349 -1.06625378037804  2.20212621662166
 1 -12.36547770677068 -1.58516942194219  3.02056465246525
 1 -13.25474525552555 -2.69923117511751  1.19240374937494
 1 -11.72461550955095 -3.21240326832683  0.42705776177618
 1 -13.20181053905391 -2.44921522952295 -0.47787626162616
 1  8.80118194219422 -0.22005032513251  0.72583676767677
 1 -10.14089382138214 -2.10277400140014 -0.89470910391039
 1  10.15422784178418  0.95736583448345 -2.40632533553355
 1  11.86182461746175  1.02724701560156 -2.62702241624162
 1  11.17132136713671 -0.21860234733473 -3.35548267826783
 1 -11.09908091509151  1.66807003600360 -2.75778727172717
 1 -9.53175871487149  0.91244188118812 -1.94210881688169
 1 -9.98360011501150  2.43313192619262 -1.68650224622462
 1  14.95597215021502 -2.80534944004400  0.05256714971497
 1 -15.42120155515551  1.55771068506851  1.09301750675067
 1  10.25253073507351  2.20759406330633 -0.42623193819382
 1 -8.65520221722172  0.45985808380838 -0.06979179217922
 1  8.65590845284528  4.34184403730373 -0.16204250725073
 1  7.10814420342034  4.15836124502450  0.70194602760276
 1  8.47308201820182  3.64763765066507  1.64450746874687
 1 -8.33852088208821 -3.47872480158016 -0.34436027502750
 1 -7.73150890689069 -2.90857987208721 -1.90887721772177
 1 -6.58402725172517 -3.32181583368337 -0.63172996499650
 1  6.98278994199420  0.65275901880188 -0.28300169216922
 1 -6.24919518151815  0.34612445234523  0.21103872687269
 1  5.17646703070307  3.15015016291629  0.58759101410141
 1 -4.83712753275328 -2.21731303840384 -0.52843024302430
 1  4.53270636963696  0.11472971887189 -0.14476288728873
 1 -4.05722122612261  0.68701381828183  0.09812260826083
 1  2.89676746174617  3.09903394529453  1.80937713871387
 1  1.68335498849885  3.35644431533153  0.69517192519252
 1  3.25052907490749  3.68174600850085  0.11937144114411
 1 -2.73794593159316 -3.21286843394339 -0.23285632963296
 1 -2.72267177517752 -2.46660778087809 -1.57739170617062
 1 -1.19800659965997 -2.40814098919892 -0.79484252025203
 1  2.46755391339134 -0.29126777787779 -0.15529343334333
 1 -2.18045744674467  1.00542045994599  0.62070545754575
 1  0.13845959295930  1.90155286118612  0.42221801680168
 1  0.06995976597660 -1.22480243034303 -0.39583716771677

