%nproc=4
%Mem=2GB
# td=(NStates=1) CAM-B3LYP/6-31G(d,p) 

TD

0 1
 8  14.78058627762776 -2.10634810591059 -0.40495934893489
 8 -14.77552414941494  2.11502335833583  0.51441053505351
 6  11.47936123012301 -1.08397903200320  1.21473483448345
 6 -12.39363699569957 -0.90799335933593  0.70425594759476
 6  13.02658139013901 -1.38274131223122  0.98735630763076
 6 -13.70768337733773 -0.08036419641964  0.48094699069907
 6  13.38725071907191 -1.85666119321932 -0.38589347834783
 6 -13.48685102510251  1.41326412441244  0.67199898389839
 6  11.02700122612261 -0.26871108720872 -0.09642388838884
 6 -11.33386048704870 -0.31653268226823 -0.21689244324432
 6  13.12526674567457 -0.73413417051705 -1.24586545954595
 6 -12.62826358635864  1.91222919991999 -0.49099614161416
 6  11.75936068306831 -0.17424779787979 -1.21625014101410
 6 -11.52546613661366  0.95969229222922 -0.77774731373137
 6  11.38579930693069 -0.21032019011901  2.45624606560656
 6  10.69448888988899 -2.35676615771577  1.34138225822582
 6 -11.98260045404540 -0.97402923092309  2.18918749874988
 6 -12.72986368836884 -2.40398584158416  0.20474237823782
 6  9.65941076707671  0.41034207110711  0.09426610661066
 6 -10.12468383538354 -1.03352743774377 -0.36960564156416
 6  11.24046681168117  0.62862732763276 -2.51782598959896
 6 -10.40529296829683  1.60376076007601 -1.55946525352535
 6  9.35285525252525  1.58847228512851 -0.18096347034703
 6 -8.84225471047105 -0.61420497749775 -0.24550559655966
 6  8.00031601760176  2.25362510241024  0.06849251825183
 6 -7.58401354335434 -1.36802113521352 -0.36390172217222
 6  7.94502498349835  3.69671787668767  0.29949131513151
 6 -7.53496460246025 -2.79213896199620 -0.90993116811681
 6  6.85234064106411  1.48474846874687 -0.03845385138514
 6 -6.48993079607961 -0.63826930203020 -0.36295930193019
 6  5.49115966796680  1.88406611351135  0.07567248324832
 6 -5.14391551355136 -1.09858973507351 -0.33573574757476
 6  4.38533246424642  1.02896831073107  0.07213158415842
 6 -4.03297871787179 -0.40175638173817 -0.13655098509851
 6  3.02805541054105  1.54481507940794  0.12428409340934
 6 -2.65918968296830 -0.80509483958396 -0.24498215821582
 6  2.68505878687869  2.92373182208221  0.41035374437444
 6 -2.37294278827883 -2.27053435553555 -0.66296733673367
 6  2.05809538453845  0.58598576247625 -0.05789491449145
 6 -1.62170349334933 -0.02988328242824  0.08201637463746
 6  0.69758692769277  0.76081084898490  0.20405628562856
 6 -0.25730459945995 -0.23838594369437 -0.07644528452845
 1  13.53917318931893 -0.67492092719272  1.22094693269327
 1  13.22991822782278 -2.07287786888689  1.75062519451945
 1 -14.40693347034703 -0.34080423742374  1.38582578857886
 1 -14.24124549154916 -0.35393231623162 -0.47399901990199
 1  12.72431763376338 -2.71469621272127 -0.78137620262026
 1 -12.92551801280128  1.76971148914892  1.67578705170517
 1  13.98782971497150 -0.11872459255926 -1.12144802880288
 1  13.40831232423242 -1.09907213431343 -2.34707538353835
 1 -13.20523606760676  1.94731605260526 -1.43451138413841
 1 -12.31131973897390  2.86839890389039 -0.31548843184318
 1  11.84805342534253 -0.59276000210021  3.17374203520352
 1  10.29248511351135 -0.15389489958996  2.74718359935994
 1  11.92386165616562  0.77962769566957  2.40909004400440
 1  10.81083008600860 -2.86167674777478  0.49832521852185
 1  11.16820773777378 -2.61489640674067  2.43901382538254
 1  9.46221222222222 -2.20885187828783  1.31664660766077
 1 -11.77256415641564 -0.05448987798780  2.50263415641564
 1 -11.02055656465647 -1.61049820482048  2.33975997999800
 1 -12.86447760676068 -1.51636254125412  2.70919351535154
 1 -13.75673545454545 -2.83956520852085  0.54273878287829
 1 -11.99731277927793 -2.93386541454145  0.77728278427843
 1 -12.53434379237924 -2.34931523952395 -0.94430290429043
 1  9.19493131713171 -0.27712603270327  1.02653683768377
 1 -10.48158789078908 -2.17012073607361 -0.46086571957196
 1  10.30000241924192  0.50588068596860 -2.24825952895289
 1  11.67338577357736  1.76462075297530 -2.55512522652265
 1  11.51749598459846 -0.05089557665767 -3.40187731773177
 1 -10.84200520752075  2.44641787078708 -2.37906939993999
 1 -9.65336087508751  0.85455609260926 -2.22755736173617
 1 -9.78325008000800  2.32511112411241 -0.85472906890689
 1  14.85788234123412 -2.75416432153215  0.27600949394939
 1 -15.39232866786679  1.96128104210421  1.29691789678968
 1  10.17954343634363  2.11857516141614 -0.70146946194619
 1 -8.78743544054405  0.35999809780978  0.11695688268827
 1  8.51191405340534  4.31465131803180 -0.44925122812281
 1  6.86150953995400  4.10812622152215  0.13622945594560
 1  8.31040575057506  3.98977186408641  1.30185320332033
 1 -8.33029005900590 -3.48058498759876 -0.36677251625163
 1 -7.84550030603060 -2.71092010611061 -1.94366069606961
 1 -6.54142299129913 -3.26470012211221 -0.76369316131613
 1  7.03714537753775  0.55532927582758 -0.39076246824682
 1 -6.72010227222722  0.40883072297230  0.14195181818182
 1  5.33065244924493  2.90768591649165  0.14077633263326
 1 -5.24462828282828 -2.13324463156316 -0.73736113611361
 1  4.51513461246125  0.09021726762676 -0.17642605360536
 1 -4.26481198519852  0.67600271717172  0.36808960496050
 1  2.74620240524052  3.17094113601360  1.52319852085209
 1  1.65189184218422  3.27633630453045  0.36675908390839
 1  3.38669269126913  3.55443327722772 -0.28197869386939
 1 -2.65178731573157 -3.19035618271827 -0.13043608760876
 1 -2.90710021802180 -2.43438455855586 -1.67470143714371
 1 -1.35764256325633 -2.52867304240424 -0.98356139213921
 1  2.51432859085909 -0.35813446454645 -0.14917282128213
 1 -1.79436883788379  1.06233615151515  0.50442382938294
 1  0.07045279227923  1.84060676657666  0.53008880388039
 1  0.18468123812381 -1.27259720982098 -0.35250283428343

