%nproc=4
%Mem=2GB
# td=(NStates=1) CAM-B3LYP/6-31G(d,p) 

TD

0 1
 8  14.68905712471247 -2.04084155525553 -0.46957581058106
 8 -14.77392398939894  2.01605346134613  0.66252534653465
 6  11.47022031603160 -1.01566220032003  1.30287364836484
 6 -12.31719935193519 -0.81250381038104  0.77704322632263
 6  12.99120785278528 -1.35400843894389  1.00821839383938
 6 -13.67006961596160 -0.13985014501450  0.73195209120912
 6  13.32420441444144 -1.83082860996100 -0.38855374437444
 6 -13.51612395239524  1.32445524352435  0.76583836783678
 6  10.91829035503550 -0.21372558865887  0.00957671167117
 6 -11.31312841384138 -0.25754678367837 -0.23715446944694
 6  12.88387260626063 -0.75057581468147 -1.34736560956096
 6 -12.72440320032003  1.73711168816882 -0.55678272027203
 6  11.48831357835784 -0.19192956605661 -1.19341785778578
 6 -11.57773136313631  0.86849317231723 -0.88499803880388
 6  11.27125785278528 -0.39019817791779  2.58275871687169
 6  10.71419086008601 -2.36722720382038  1.28836695669567
 6 -11.65462765676568 -0.65159698769877  2.19420800080008
 6 -12.50679138113811 -2.34840028302830  0.55477738173817
 6  9.59136396239624  0.39486052295230  0.24427110711071
 6 -10.13313468046805 -1.02641672667267 -0.42978165916592
 6  11.01900466546655  0.42451691659166 -2.43945815281528
 6 -10.70514295329533  1.53940432443244 -1.91165047204720
 6  9.38601856885689  1.66662009990999 -0.08191356535654
 6 -8.86815730073007 -0.56232978997900 -0.46870791679168
 6  8.07940392639264  2.30601034093409  0.20305597459746
 6 -7.61111625362536 -1.32154648774878 -0.60109544154415
 6  8.10540102110211  3.69046725162516  0.55958732473247
 6 -7.68808991499150 -2.78296804490449 -0.70509068406841
 6  7.00473588058806  1.48797879177918 -0.04226423242324
 6 -6.43232503550355 -0.71901737683768 -0.32174518051805
 6  5.57593814581458  1.86530423732373  0.08370328632863
 6 -5.02417353935394 -1.17298717481748 -0.43217539153915
 6  4.50846477747775  1.16691210511051 -0.15039066806681
 6 -3.95761118111811 -0.37750395649565 -0.23639096909691
 6  3.07036964196420  1.55375597349735  0.06607827282728
 6 -2.60875463946395 -0.83596792689269 -0.48868652865287
 6  2.75211549254926  2.85813526242624  0.75510821982198
 6 -2.36767226122612 -2.35341264336434 -0.63859489948995
 6  2.16162573757376  0.62900006390639 -0.28042716771677
 6 -1.66470779377938  0.07198690459046 -0.21785361236124
 6  0.71051822082208  0.82792756065607 -0.09107322732273
 6 -0.22759162816282 -0.13801590669067 -0.22608024802480
 1  13.48188746074607 -0.62082551765177  1.31966680468047
 1  13.40487572357236 -1.96219680078008  1.87018715071507
 1 -14.25646842384239 -0.79530968796880  1.53367057305731
 1 -14.05824719171917 -0.65383230623062 -0.27610923092309
 1  12.77306250825082 -2.73474821792179 -0.79543760876088
 1 -12.98694415541554  1.61723624162416  1.69938941194119
 1  13.39795072707271  0.13499077897790 -1.24248013201320
 1  12.90194168716872 -1.12433466056606 -2.35449612561256
 1 -13.21943748774878  1.87260858185819 -1.31212914591459
 1 -12.35115372237224  2.81613367736774 -0.32400928392839
 1  11.57792641264126 -1.12453317941794  3.32542720372037
 1  10.22688855385539 -0.20390990109011  2.78670755175518
 1  11.62169143914391  0.63151288418842  2.97293642864286
 1  11.04507351035103 -2.98190877097710  0.25528091409141
 1  10.83393431043104 -3.05280019711971  2.11411133513351
 1  9.65402140314031 -2.47031802490249  1.25710065306531
 1 -11.33634053405341  0.29353492449245  2.52551644464446
 1 -10.81136564556456 -1.27265442044204  2.24937094109411
 1 -12.33151431043104 -0.98839974497450  2.97946054205420
 1 -13.52698247924792 -2.65262651465147  0.98173268226823
 1 -11.62458550655065 -2.82950497849785  0.82527758375838
 1 -12.54899525752575 -2.48564887288729 -0.54406288028803
 1  8.72950477447745 -0.22511083118312  0.66566075007501
 1 -10.33002273427343 -1.95400912491249 -0.69537917091709
 1  10.03120553955396  0.90776087398740 -2.28398310131013
 1  11.56043447844785  1.37891218211821 -2.63521323532353
 1  10.88336257125713 -0.18331881898190 -3.24314144414441
 1 -11.31617262426243  1.82881611061106 -2.70238173117312
 1 -9.92496803580358  0.80457109410941 -2.10815542154215
 1 -10.02273402840284  2.28869748274828 -1.42467606360636
 1  15.03343989698970 -2.27366627172717  0.41368326132613
 1 -15.23469290429043  2.04514942894289  1.46295450045005
 1  10.11786726872687  2.52012531643164 -0.20985030003000
 1 -8.76967366436644  0.55009710771077 -0.11576638963896
 1  8.82016487848785  4.36279613251325 -0.15680198319832
 1  7.07863125212521  4.19562497139714  0.34489032203220
 1  8.48549325932593  3.90736362326233  1.78033105110511
 1 -8.31312834283428 -3.18822575167517  0.16509067006701
 1 -8.24041979797980 -3.10542955705571 -1.61381771177118
 1 -6.67827667666767 -3.13512716481648 -0.78289508150815
 1  7.17419908290829  0.41794553745374 -0.47435082708271
 1 -6.32694295629563  0.27388722862286 -0.10680305730573
 1  5.52423180718072  2.92448759665967  0.70338259325933
 1 -4.84477829782978 -2.21602290939094 -0.65197259725973
 1  4.74940803980398  0.21792003790379 -0.78755716671667
 1 -4.18517402140214  0.66915203210321  0.10246304230423
 1  3.01351913691369  2.77759180108011  1.80131633263326
 1  1.66505315831583  3.01911058195820  0.49296170417042
 1  3.31848587058706  3.77837567146715  0.22580208420842
 1 -2.89366150315032 -2.96974412151215  0.17416437243724
 1 -3.09523903190319 -2.74046516661666 -1.46979094609461
 1 -1.36679347834783 -2.59129930503050 -0.78347138313831
 1  2.50442760076008 -0.47302595369537 -0.52356026002600
 1 -1.85451485248525  1.11814173207321 -0.10084669766977
 1  0.20454620162016  1.65364807070707  0.31075687068707
 1 -0.02602983298330 -0.97035698579858 -0.73762134613461

