%nproc=4
%Mem=2GB
# td=(NStates=1) CAM-B3LYP/6-31G(d,p) 

TD

0 1
 8  14.54443266226623 -2.19698716981698 -0.60916976997700
 8 -14.76096269326933  2.00345220122012  0.70015910991099
 6  11.47706100010001 -0.98386902100210  1.19992335333533
 6 -12.26208384038404 -0.97540010001000  0.87526304830483
 6  12.95482421442144 -1.46838987708771  1.09109668166817
 6 -13.57932054105411 -0.22156831683168  0.80586948294829
 6  13.27416941094109 -2.07995352245225 -0.29316420542054
 6 -13.46089842984298  1.32868566656666  0.79419120312031
 6  10.89740826682668 -0.24393860996100 -0.00878512451245
 6 -11.27494459545954 -0.26335736473647 -0.24020477447745
 6  12.80752497149715 -1.09370012711271 -1.40132100510051
 6 -12.73420418041804  1.70477845484548 -0.48884592659266
 6  11.58333308030803 -0.41475184828483 -1.23433194919492
 6 -11.53833742374237  0.86929325232523 -0.77732727172717
 6  11.48129885688569 -0.17455661376138  2.56662710371037
 6  10.61143058405841 -2.28646912801280  1.58178629862986
 6 -11.67835002900290 -0.98917074507451  2.18667724772477
 6 -12.59968067006701 -2.45799124212421  0.46702860686069
 6  9.71576640264026  0.49747078397840  0.33901058105811
 6 -10.10177154415442 -1.08890297529753 -0.44171285228523
 6  10.88310107510751  0.23275774067407 -2.54890909790979
 6 -10.61496393539354  1.52394277827783 -1.87898720572057
 6  9.37455742274227  1.71730516841684 -0.17829320332033
 6 -8.88355884088409 -0.51774533153315 -0.43227427342734
 6  8.12232821882188  2.33292303220322  0.09827549654965
 6 -7.57701284328433 -1.32111644474447 -0.70675600760076
 6  8.23355383638364  3.81131933683368  0.46239760576058
 6 -7.73612471847185 -2.77713746184618 -1.11845202020202
 6  6.97586299329933  1.67250724462446  0.06298629262926
 6 -6.41744354735474 -0.64705018011801 -0.42393539953995
 6  5.58804935693569  2.14118182508251  0.24914983098310
 6 -5.09254037603760 -1.13547342344234 -0.55760793479348
 6  4.44540847184718  1.35561097499750  0.02073644464446
 6 -4.04272969296930 -0.37637384348435 -0.22882021202120
 6  3.09236184118412  1.68628922682268  0.13972563756376
 6 -2.58657242124212 -0.78423275337534 -0.43753141314131
 6  2.84142442344234  3.12868231713171  0.55402811181118
 6 -2.41734722872287 -2.15151245334533 -0.77575861586159
 6  2.14582415741574  0.77781494539454  0.02227310231023
 6 -1.59531085408541  0.06231593749375 -0.14448627562756
 6  0.70391756075608  0.86569133703370  0.10760664066407
 6 -0.23369223822382 -0.20261236633663 -0.19793743374337
 1  13.64881415341534 -0.68118155325533  1.15829066706671
 1  13.43632886888689 -2.16459704080408  1.83655378737874
 1 -14.46219899689969 -0.63105326232623  1.47402460846085
 1 -14.20021138813881 -0.44243116611661 -0.08822044204420
 1  12.49443464546455 -3.00134487758776 -0.41501956695670
 1 -12.85546100710071  1.64388890689069  1.72871234423442
 1  13.44333526552655 -0.42468518861886 -1.44482036603660
 1  12.82163365636564 -1.56797902500250 -2.28450912691269
 1 -13.62703824782478  1.59905122612261 -1.19422735573557
 1 -12.50846945394539  2.73926599059906 -0.39525640864086
 1  11.79386800680068 -0.98490921702170  3.22520718171817
 1  10.48621448644865  0.33784427432743  2.70445932693269
 1  12.31529079907991  0.72991272417242  2.74102323732373
 1  10.48626762976297 -2.97581816191619  0.67171255725573
 1  10.90954187118712 -2.73749866696670  2.58631855585559
 1  9.67545354635464 -1.84679567266727  2.03790873387339
 1 -11.36213311331133  0.06369194019402  2.42659655265527
 1 -10.79633414241424 -1.54272142714271  2.09362536653665
 1 -12.33837499649965 -1.47927883288329  2.96413900990099
 1 -13.20765054605461 -2.74393564556456  1.19417392639264
 1 -11.82124517251725 -3.16144817281728  0.48834389038904
 1 -12.94251460946095 -2.44227453545354 -0.59118759275928
 1  9.00648247224722  0.11832351225123  1.12223640764076
 1 -10.33954368636864 -2.13539726372637 -0.32613224622462
 1  9.83604602360236  0.69451954985499 -2.32557726072607
 1  11.62613104810481  0.98327261816182 -2.74745445944594
 1  10.64804903990399 -0.44828531563156 -3.33720085008501
 1 -11.12958396539654  2.01351458045805 -2.52823431643164
 1 -10.14182972197220  0.57525816281628 -2.27829243524352
 1 -9.86147790279028  2.30015862886289 -1.49553314931493
 1  14.84647120012001 -2.92568147324732 -0.01780988798880
 1 -15.30601003600360  1.79084399839984  1.47811601660166
 1  10.10871635363536  2.20740404430443 -0.95292460746075
 1 -8.81355805280528  0.52050414841484 -0.04049886288629
 1  8.82033489548955  4.31147100000000 -0.40036633963396
 1  7.19748313731373  4.49338474737474  0.44946077907791
 1  8.75526023602360  3.95435832273227  1.60673369136914
 1 -8.23566059605960 -3.27839476857686 -0.35541138013801
 1 -8.28972472847285 -2.82966198029803 -2.02126845684568
 1 -6.66647549654965 -3.12039569166917 -1.28428522052205
 1  6.93515517851785  0.59900364326433 -0.40410380238024
 1 -6.58448871087109  0.30724056395640  0.06328395139514
 1  5.37173655765576  3.14592974087409  0.50987324232423
 1 -4.89433325332533 -2.03386469356936 -1.12477987798780
 1  4.74254735373537  0.46478472437244 -0.42489090009001
 1 -4.38998450245025  0.59703482038204  0.04647744374437
 1  3.00957874287429  3.52410645254526  1.52001820282028
 1  1.84732138513851  3.43400207110711  0.56565897389739
 1  3.22227624962496  3.89228706260626 -0.22784328032803
 1 -2.96448858585859 -2.88623577067707  0.06092304830483
 1 -3.19283879187919 -2.33357447754775 -1.76039000600060
 1 -1.46758355735574 -2.52667284238424 -1.22334537053705
 1  2.43091024902490 -0.05738438953895 -0.22196010001000
 1 -1.99413881488149  1.01854177207721  0.25986937393739
 1  0.33811955895590  1.90436314221422  0.19779557455746
 1  0.06044881488149 -1.14662461256126 -0.39229681368137

