%nproc=4
%Mem=2GB
# td=(NStates=1) CAM-B3LYP/6-31G(d,p) 

TD

0 1
 8  14.64014223322332 -2.24234170527053 -0.46323517651765
 8 -14.66292288928893  2.07946980298030  0.96704579857986
 6  11.56075936993699 -1.05560619471947  1.26946030703070
 6 -12.30428806080608 -0.90765332533253  0.86033155515552
 6  12.95609434143414 -1.44300733883388  0.99258683068307
 6 -13.58923153215321 -0.14583074307431  0.88936783278328
 6  13.29234122812281 -1.97251277837784 -0.32706759575958
 6 -13.36885922592259  1.35621841984198  0.86559834383438
 6  10.98342686868687 -0.29880409650965  0.03650940494049
 6 -11.24510161116111 -0.34059508850885 -0.12365311931193
 6  12.98136235523552 -0.95203596069607 -1.37181805480548
 6 -12.76922768276828  1.61241921892189 -0.53445048704870
 6  11.58634338133813 -0.29340971407141 -1.15508402440244
 6 -11.62077566756676  0.73866018901890 -0.87889742874287
 6  11.42638336533653 -0.24655381348135  2.54894533553355
 6  10.65932537353735 -2.32431291239124  1.47263538353835
 6 -11.55970816481648 -0.93592542054205  2.30603918391839
 6 -12.63531423342334 -2.44539998299830  0.54810671467147
 6  9.68091291729173  0.36016705360536  0.27582426242624
 6 -10.09320068706871 -1.17789187418742 -0.31215989698970
 6  10.95562832783278  0.25502996789679 -2.41165537253725
 6 -10.78227066606661  1.22642302630263 -2.19341864886489
 6  9.27100706770677  1.62008544644464 -0.09918529252925
 6 -8.84807529252925 -0.58405196219622 -0.39519056505651
 6  7.94792077807781  2.26213595349535  0.13900956995700
 6 -7.54347948994899 -1.30358469156916 -0.59304463646365
 6  8.01484196519652  3.72356056095610  0.36946831283128
 6 -7.73993509950995 -2.77353710181018 -0.96629680468047
 6  6.88841424842484  1.51498149204920  0.10297029102910
 6 -6.38114991799180 -0.59929540464046 -0.59975298129813
 6  5.58441899389939  1.93753146004600  0.31846676267627
 6 -5.03777489948995 -1.10062993909391 -0.76810898489849
 6  4.38833276427643  1.27014242814281  0.12181655265527
 6 -3.94104952495250 -0.29008521462146 -0.58217554755476
 6  3.03847645264526  1.77886848474848  0.21386305130513
 6 -2.65292905690569 -0.70549487958796 -0.60663832383238
 6  2.78823910491049  3.21539098799880  0.71230393939394
 6 -2.32277777177718 -2.08236553865387 -0.92453349334934
 6  2.04493406840684  0.87416458035804 -0.07602672767277
 6 -1.64379570257026  0.23438314421442 -0.26193802080208
 6  0.60704787378738  1.03134790269027 -0.07688180818082
 6 -0.28840770977098  0.03865176007601 -0.28649628962896
 1  13.84818409040904 -0.86306974207421  1.24255909390939
 1  13.21229646564657 -2.23488406950695  1.71330146214621
 1 -14.19515229222922 -0.36000615761576  1.66484369036904
 1 -14.18404977197720 -0.50798772177218  0.01181956195620
 1  12.56854205620562 -2.96385112821282 -0.41502956795680
 1 -12.58800426142614  1.58552307030703  1.56040551355136
 1  13.87576850885089 -0.05534825492549 -1.09084496849685
 1  12.91034252725273 -1.37557978507851 -2.23836451245125
 1 -13.59735527952795  1.53949527052705 -1.28325625862586
 1 -12.29060766776678  2.64290635463546 -0.42471935493549
 1  11.82058067806781 -0.76573729982998  3.40779544054405
 1  10.43604946994700  0.03624411431143  3.02410129112911
 1  11.98330760076008  0.73779351225123  2.27891702670267
 1  10.57311631463146 -2.92494307440744  0.69020440644064
 1  10.83979489648965 -2.99422433953395  2.39311923592359
 1  9.66090209120912 -2.07630862396240  1.74441938493849
 1 -11.44458135813581  0.16365193619362  2.64637853085309
 1 -10.61363587258726 -1.31163831883188  2.24465046904690
 1 -12.14115527452745 -1.46583748874888  3.22520511651165
 1 -13.20890067106711 -2.94494574657466  1.36219072807281
 1 -11.64498754675467 -2.83584561256126  0.71205626162616
 1 -12.99021937993800 -2.68313862186219 -0.38619709370937
 1  8.81516334033403 -0.07134545464546  0.95925010901090
 1 -10.15631536353635 -2.34480820482048 -0.33805343834383
 1  9.94919733873387  0.74560465836584 -2.31472617561756
 1  11.86801523652365  0.99692398329833 -2.79765947994800
 1  11.05082931793179 -0.50529101620162 -3.20091722172217
 1 -11.54995600260026  1.38162139113911 -3.04006549954995
 1 -10.05646118511851  0.51702233923392 -2.50184479047905
 1 -10.25535729072907  2.15253386638664 -1.96664026002600
 1  15.00793734673467 -3.26401530663066 -0.08677678467847
 1 -15.03354278927893  2.17352226622662  2.00694889988999
 1  9.93479896189619  2.22771607550755 -0.52269158415842
 1 -8.84516121312131  0.65612771077108 -0.36980179317932
 1  8.55258812081208  4.16161601450145 -0.34003030603060
 1  7.26200958995900  4.34450985988599  0.80743657665767
 1  8.80270498049805  3.67465035193519  1.16272929092909
 1 -8.03186021602160 -3.26736366546655 -0.12953879287929
 1 -8.23110886688669 -2.81856087018702 -2.00682701270127
 1 -6.76751560056006 -3.30368402050205 -1.33397018901890
 1  7.12964462746275  0.43454719761976 -0.20420381238124
 1 -6.46398666066607  0.33306314621462 -0.34463684068407
 1  5.30540992499250  3.00187533543354  0.66136839183918
 1 -4.82083590359036 -2.15387669476948 -0.79467686768677
 1  4.33259635863586  0.11250949684968 -0.13952236323632
 1 -4.17053255725573  0.79526464336434 -0.22505970997100
 1  3.03983176817682  3.46849089098910  1.65424162516252
 1  1.87228388138814  3.78588725962596  0.31625403340334
 1  3.47539156115612  3.76350418431843  0.01963146714671
 1 -2.62027416441644 -2.75483263036304 -0.21896494049405
 1 -2.62326183418342 -2.55334645474547 -1.85740970797080
 1 -1.17873467246725 -2.22829300440044 -0.86277931393139
 1  2.35164232223222 -0.07238588968897 -0.47679558355836
 1 -2.02544194519452  1.21379129702970 -0.04011062406241
 1  0.07550329732973  1.91033373927393  0.03785958095810
 1  0.16770954095410 -0.90083003310331 -0.60291787578758

