%nproc=4
%Mem=2GB
# td=(NStates=1) CAM-B3LYP/6-31G(d,p) 

TD

0 1
 8  14.85293351235124 -1.95231270237024 -0.50276912991299
 8 -14.56420301730173  2.21356321232123  0.69248834283428
 6  11.53090638463846 -1.16112674677468  1.25525888688869
 6 -12.32561019301930 -0.75439799979998  0.99321484348435
 6  13.05181391339134 -1.24172721082108  1.07098467046705
 6 -13.60949355835583 -0.07511367136714  0.93544244024402
 6  13.41054304830483 -1.79163469056906 -0.37782267126713
 6 -13.34523686368637  1.44456725472547  0.78621040504050
 6  10.92661118711871 -0.19803401950195  0.04970072407241
 6 -11.32985008600860 -0.36184721372137 -0.08430918491849
 6  13.04495871487149 -0.76487724482448 -1.35823669666967
 6 -12.77591835183518  1.66753473047305 -0.66617365936594
 6  11.63848859585959 -0.06905727882788 -1.13859237523752
 6 -11.54693828382838  0.84452077507751 -0.81410094909491
 6  11.26685741274127 -0.42095125322532  2.70814125512551
 6  10.81114055505551 -2.56349683078308  1.22179029902990
 6 -11.67620981498150 -0.62588441644164  2.36757533753375
 6 -12.71397209920992 -2.26735217821782  0.68805070907091
 6  9.68600342634263  0.36932796969697  0.35980266026603
 6 -10.08483985098510 -1.08564264926493 -0.27981666266627
 6  11.11500426542654  0.62771723662366 -2.32221642864286
 6 -10.71856429542954  1.29470985498550 -2.11378068506851
 6  9.25705567256726  1.59154259215922  0.11822644864486
 6 -8.87226771177118 -0.66562011901190 -0.28280932693269
 6  7.98775476147615  2.25365510541054  0.19570523952395
 6 -7.64329947194719 -1.31684601770177 -0.49407473947395
 6  7.90268074907491  3.59154735963596  0.76645801180118
 6 -7.78063916991699 -2.75865561366137 -0.73528370337034
 6  6.81437684468447  1.48038803270327  0.06048604260426
 6 -6.39701150415041 -0.60239571467147 -0.42395540154015
 6  5.47041759375938  1.89901760866087  0.16103101910191
 6 -5.05102622462246 -1.18569844594459 -0.62872504650465
 6  4.35934986598660  1.10974638853885 -0.03716934593459
 6 -4.00932635263526 -0.38814502060206 -0.46484381438144
 6  2.92931553655366  1.49161975987599  0.08087975297530
 6 -2.61209497349735 -0.83093742384238 -0.66140380038004
 6  2.75539582058206  2.97818726762676  0.45768847784778
 6 -2.41904739873987 -2.32074937703770 -1.00108114811481
 6  2.10093966896690  0.59077624152415 -0.26927605260526
 6 -1.62045336833683  0.00811051695170 -0.54629645664566
 6  0.60463763276328  0.78788355625563 -0.14598871887189
 6 -0.18091696069607 -0.12285439053905 -0.58657629762976
 1  13.56544581658166 -0.14634806990699  1.35257009500950
 1  13.33464870087009 -1.93417399849985  1.93730386238624
 1 -14.32475525252525 -0.28205836283628  1.60359756575658
 1 -14.10149151615162 -0.20648757175718  0.01966034603460
 1  12.98657385938594 -2.78061280438044 -0.53153121812181
 1 -12.77786324732473  1.90229474747475  1.48996846984698
 1  13.69219015101510  0.09479675957596 -1.26855273927393
 1  12.97946943994399 -1.03507573467347 -2.46043671967197
 1 -13.61360690469047  1.52373369436944 -1.28234616761676
 1 -12.65647425442544  2.70028209220922 -0.84969185218522
 1  11.82723134313431 -1.09372009810981  3.29375403640364
 1  10.18790465546555 -0.52484199429943  2.94845372637264
 1  11.55538480848085  0.68734846774677  2.69216835183518
 1  11.00579958295829 -3.00763134323432  0.24049943594359
 1  10.94618553555356 -2.99862477957796  2.21362128612861
 1  9.64415041604160 -2.45630662376238  1.10000494349435
 1 -11.00005690569057  0.38298386938694  2.41594548754875
 1 -10.95753026202620 -1.44483163816382  2.57614361836184
 1 -12.34377553655366 -0.98070897589759  3.29510210621062
 1 -13.40936071707171 -2.77712896489649  1.52722723172317
 1 -11.67235028302830 -2.83625565356536  0.60801585758576
 1 -13.20258061606161 -2.44471477947795 -0.27003547754776
 1  8.87138896289629 -0.19885820592059  0.95562974697470
 1 -10.22490222222222 -2.21652537653765 -0.56288592159216
 1  10.22238465746575  1.01287138503850 -1.97044174717472
 1  11.62513094809481  1.48269256015602 -2.67121683568357
 1  11.11399563456346 -0.04758524562456 -3.09567669766977
 1 -11.44359536653665  1.61167439643964 -3.05808730173017
 1 -10.13452899189919  0.56468710571057 -2.30356496249625
 1 -10.10578233323332  2.32119073207321 -1.79926352235223
 1  15.14400095309531 -2.70414932003200  0.02452434543454
 1 -14.92122155715571  2.07661257525753  1.67193539853985
 1  10.15018050005000  2.32369567346735 -0.31847116211621
 1 -8.84677137413741  0.50563266126613 -0.27202201520152
 1  8.54970783278328  4.31648150105010  0.12704640164016
 1  6.96246963596360  3.96799220812081  0.74196002900290
 1  8.37544225422542  4.03282616951695  1.74104712271227
 1 -8.14592162216221 -3.13944087318732  0.10652481348135
 1 -8.19852560856086 -3.12262127622762 -1.58294462446245
 1 -6.91108995799580 -3.38107175927593 -0.75855264726473
 1  7.08355001800180  0.43830757365737 -0.25998939093909
 1 -6.46097635963596  0.42122196209621 -0.13296567356736
 1  5.13882326632663  2.93710885878588  0.50925318031803
 1 -4.91876569656966 -2.22308361546155 -0.73193059305931
 1  4.61518461746175  0.07721596749675 -0.20349876087609
 1 -4.14861036503650  0.57215233213321 -0.22805000900090
 1  3.44299208420842  3.40704474637464  1.45224142514251
 1  1.59837649064906  3.08034670557056  0.74874728272827
 1  3.11567558955896  3.40556839073907 -0.56560705670567
 1 -2.58683082008201 -2.94401154825483  0.00587754375438
 1 -3.17265677367737 -2.79988110821082 -1.77920188718872
 1 -1.31977877687769 -2.41440161526153 -1.17105014101410
 1  2.29764692269227 -0.43469212031203 -0.76323422742274
 1 -1.92427182818282  1.10736065396540 -0.37790440344034
 1  0.11896764376438  1.69264197009701  0.12188798379838
 1  0.01479424942494 -1.04280423052305 -0.96512409640964

