%nproc=4
%Mem=2GB
# td=(NStates=1) CAM-B3LYP/6-31G(d,p) 

TD

0 1
 8  14.84141236023602 -2.17493496459646 -0.37625647864786
 8 -14.57972456945694  2.14410626662666  0.90302939693969
 6  11.48470176417642 -0.93286392049205  1.25321868286829
 6 -12.37335496749675 -0.99056161616162  0.81145666766677
 6  13.01203993599360 -1.37525056315632  1.09165673767377
 6 -13.59569217821782 -0.10095625562556  0.69793868986899
 6  13.38335032903290 -1.97382290939094 -0.23682857185719
 6 -13.37404974497450  1.35326812481248  0.89218100210021
 6  11.03549207520752 -0.26679089518952  0.09115486948695
 6 -11.32768986998700 -0.30719174817482 -0.19157991199120
 6  13.03329754875487 -0.89724048114811 -1.26294716771677
 6 -12.66049680968097  1.88112608960896 -0.30183722572257
 6  11.68744349134914 -0.26618699179918 -1.05664418041804
 6 -11.50399398939894  0.92148847184718 -0.78761830083008
 6  11.32714344134413 -0.26929608770877  2.66269671067107
 6  10.66463590459046 -2.29387986908691  1.31380950095009
 6 -11.77894008800880 -1.13136496449645  2.16073465346535
 6 -12.79265996799680 -2.41774721772177  0.30359226322632
 6  9.63860868686869  0.26899793669367  0.26301298129813
 6 -10.21736310331033 -1.11499558455846 -0.48039672067207
 6  11.30690345534553  0.56460092499250 -2.21875608260826
 6 -10.52621506050605  1.55357574157416 -1.70210951795180
 6  9.32355232223222  1.51629506740674 -0.07302267626763
 6 -8.86073655865587 -0.66441999899990 -0.24067511351135
 6  7.98265425142514  2.23770351025103  0.07024269326933
 6 -7.74050919291929 -1.45137947104711 -0.43061839383938
 6  8.05893637463746  3.64718292319232  0.37523888988899
 6 -7.76538764476448 -2.89921967006701 -0.81201137613761
 6  6.86240164716472  1.47813780768077 -0.18348835483548
 6 -6.51146294929493 -0.70305578067807 -0.39895290129013
 6  5.51444199619962  2.00583829072907 -0.10865594959496
 6 -5.15674679667967 -1.19920979707971 -0.52915508950895
 6  4.44094802580258  1.19976539043904 -0.17935356435644
 6 -4.06328174817482 -0.42075828192819 -0.38440577057706
 6  3.06568917391739  1.70076067396740 -0.16137447244724
 6 -2.64278804280428 -0.68636296639664 -0.55006266626663
 6  2.82842312331233  3.05737518641864  0.50312302130213
 6 -2.40712620662066 -2.12501980408041 -0.84191523152315
 6  2.00572014701470  0.78890605450545 -0.23658278327833
 6 -1.64851617461746  0.25366507240724 -0.29934176117612
 6  0.60744791379138  0.94263903180318 -0.08584270427043
 6 -0.27167603660366 -0.05329743484348 -0.27740538053805
 1  13.57786705870587 -0.50510394549455  1.28872371037104
 1  13.19714495049505 -2.30555113621362  1.89535966796680
 1 -14.29165194219422 -0.59294945194519  1.63125033103310
 1 -13.89713108010801 -0.45387231023102 -0.43919553955396
 1  12.85586078807881 -2.84954969806981 -0.39271733673367
 1 -12.91262672367237  1.53233775177518  1.72655212821282
 1  13.73919485148515 -0.01810453055306 -1.23489937393739
 1  13.03444493749375 -1.25731795889589 -2.23295397139714
 1 -13.34250979497950  2.12364368536854 -1.12802073507351
 1 -12.26331493849385  2.88352041604160 -0.21275815881588
 1  11.99177779777978 -0.84995572167217  3.31684634563456
 1  10.23118898389839 -0.24574408450845  3.05593447444744
 1  11.74238350835084  0.59691942484248  2.49881901690169
 1  10.93255225822582 -3.05898647874787  0.37592297829783
 1  10.85656657365737 -2.79794471157116  2.31041096509651
 1  9.49382538353835 -2.26762775587559  1.56680162316232
 1 -11.48827572757276 -0.08769319831983  2.59089298229823
 1 -11.07916242524253 -2.07813496849685  2.34206021002100
 1 -12.83980513951395 -1.32688359335934  2.62493508950895
 1 -13.71038081908191 -2.72760401240124  0.98359286828683
 1 -12.01541458945895 -3.14251627962796  0.49101415741574
 1 -13.06005636363636 -2.51915222322232 -0.71199967396740
 1  9.17423924792479 -0.31126944704470  1.07260144414441
 1 -10.36641637363736 -2.11727545154515 -0.88716834983498
 1  10.17978039703970  0.78978907680768 -2.43150785378538
 1  11.81285972097210  1.59333362426243 -2.18705841984199
 1  11.47957219221922  0.00461997489749 -3.02125925592559
 1 -11.14289529652965  1.68865209420942 -2.61810330333033
 1 -9.81642718171817  0.85729636663666 -1.87516212221222
 1 -10.20893264826483  2.51426003900390 -1.30861445744574
 1  15.09433598659866 -2.80590949604961  0.39020091309131
 1 -14.89470890589059  2.15840075407541  1.80614881988199
 1  9.84032951495150  2.23903720762076 -0.49973928892889
 1 -8.90649734673467  0.42278437643764 -0.19502431543154
 1  8.73516637863786  4.06367622052205 -0.42395869886989
 1  7.12623601260126  4.31739714861486  0.37888372137214
 1  8.44218892889289  4.03262614951495  1.24570758875888
 1 -8.54283131313131 -3.60016694579458 -0.20391623062306
 1 -7.85545130113011 -3.05002401650165 -2.01355768576858
 1 -6.76333518251825 -3.49913356545655 -0.82272906490649
 1  6.96326798979898  0.59197294019402 -0.54396778877888
 1 -6.54368463046305  0.29032887278728  0.03246086908691
 1  5.34305368936894  3.05388053595360  0.11807406240624
 1 -4.94369818981898 -2.20104141124112 -0.95061246124612
 1  4.53337643664366  0.14876312221222 -0.42651106210621
 1 -4.23704920892089  0.65219033593359 -0.11284848884888
 1  3.39053683868387  3.18057209910991  1.52009821082108
 1  1.84328098109811  3.41687035793579  0.66525893389339
 1  3.26605062706271  3.78503633753375 -0.06049654565457
 1 -2.72011414841484 -2.59712685978598  0.16573352935294
 1 -3.10581008900890 -2.41248236833683 -1.64673864086409
 1 -1.33679047804780 -2.36756693179318 -1.15068810481048
 1  2.33195035303530 -0.19840849194920 -0.29128703270327
 1 -1.88444784578458  1.19784970287029 -0.09825643864386
 1  0.14997074407441  2.07037974387439 -0.15352955795579
 1 -0.08076530653065 -1.11375132523252 -0.44563214721472

