%nproc=4
%Mem=2GB
# td=(NStates=1) CAM-B3LYP/6-31G(d,p) 

TD

0 1
 8  14.62918113711371 -2.26167363846385 -0.42744159715972
 8 -14.98802539953995  1.90931278727873  0.52429152315232
 6  11.45060835483548 -1.17830846494649  1.16605996699670
 6 -12.37884551655165 -0.88929148914891  0.76022154415442
 6  12.93032176417642 -1.45114815291529  1.02088966096610
 6 -13.75807841684168 -0.22045820582058  0.71704060006001
 6  13.26728872287229 -1.91651717881788 -0.32150703970397
 6 -13.63793613361336  1.24522732073207  0.62490427442744
 6  10.97349587558756 -0.28347256335634  0.07582333633363
 6 -11.29164626562656 -0.23508453745375 -0.13737449144915
 6  13.07430164916492 -0.82980373747375 -1.29291016401640
 6 -12.83403416341634  1.69400737773777 -0.55258230023002
 6  11.68244299129913 -0.12282265536554 -1.10358887488749
 6 -11.59406299629963  0.90620694369437 -0.82634217321732
 6  11.18660938793879 -0.47724688278828  2.50382082308231
 6  10.54667410841084 -2.45758623972397  1.19031715171517
 6 -11.85103729772977 -0.77577940594059  2.15232381238124
 6 -12.55384608660866 -2.39135457845785  0.45789769376938
 6  9.71808663466347  0.42950398729873  0.28433511351135
 6 -10.08061942894289 -0.98258234323432 -0.34311299229923
 6  11.33696646164617  0.78732319721972 -2.20448465546555
 6 -10.64922736173618  1.50879126312631 -1.71236054305431
 6  9.42229219621962  1.73361679957996 -0.12679805380538
 6 -8.85905639063906 -0.59061261826183 -0.21347239323932
 6  8.08238422442244  2.28107784768477  0.05099076807681
 6 -7.57774291629163 -1.34469880298030 -0.31955728772877
 6  8.07603808480848  3.66613481838184  0.42261362736274
 6 -7.73460456645665 -2.77639738783878 -0.68249842484248
 6  6.95970137713771  1.57885787968797 -0.12255226122612
 6 -6.42961476447645 -0.58022349744974 -0.31157416341634
 6  5.56838739073907  1.95018272517252  0.17490240624062
 6 -5.08390951295130 -1.06645652175218 -0.43791596559656
 6  4.52755668666867  1.14649006290629 -0.11003663266327
 6 -4.00454587458746 -0.30517672377238 -0.19439676967697
 6  3.19509211421142  1.59041963986399 -0.00029836483648
 6 -2.60434419841984 -0.80334466456646 -0.35869352935294
 6  2.87581786278628  3.04260370927093  0.38667137613761
 6 -2.34310980498050 -2.13795109720972 -0.76300734073407
 6  2.22467204220422  0.67027419131913 -0.18870799579958
 6 -1.57301862486249  0.05564527042704 -0.19559138613861
 6  0.75485265426543  0.80668543644364 -0.09655377537754
 6 -0.10476934593459 -0.12994509960996 -0.20348798879888
 1  13.73575284728473 -0.65479891499150  1.24130896889689
 1  13.23777901390139 -2.22237281838184  1.60414054605461
 1 -14.31857463446345 -0.59403956095610  1.58967617361736
 1 -14.35295666266627 -0.55999292229223 -0.18496011601160
 1  12.62169737173717 -2.87565230833083 -0.73569163416342
 1 -13.23279874087409  1.68975349334933  1.68392786578658
 1  13.86000693269327  0.05807308720872 -1.11414729872987
 1  13.07367886088609 -1.29465169226923 -2.34129480548055
 1 -13.60197574157416  1.51046236723672 -1.50079801280128
 1 -12.89149775677568  2.79379144314431 -0.36189307230723
 1  11.51160978097810 -1.00351107720772  3.29912457345735
 1  10.09811567656766 -0.18252776287629  2.55621450245025
 1  12.04354362436244  0.25917565046505  2.54638377337734
 1  10.52522152515252 -3.02714329442944  0.32237762376238
 1  10.87569848684869 -3.02711762886289  2.06258618261826
 1  9.68525452645265 -2.17382837593759  1.43649859285929
 1 -11.49739663966397  0.09207477847785  2.69548344134413
 1 -10.98842335133513 -1.62963011801180  2.36870287428743
 1 -12.51059221822182 -1.36047695269527  2.77285988198820
 1 -13.31187096809681 -2.79285053705371  0.97130163916392
 1 -11.52729577757776 -2.92503453145315  0.33772882888289
 1 -12.91265162316232 -2.39942025002500 -0.64547302130213
 1  8.77635945994600 -0.01548986908691  0.88435261926193
 1 -10.19505923792379 -2.12975669966997 -0.50038967196720
 1  10.14487690669067  0.94685478337834 -2.26230093309331
 1  11.73265170017002  1.95710000090009 -2.00583029702970
 1  11.79602383738374  0.47308682158216 -3.16773390339034
 1 -11.15107611461146  2.03749697869787 -2.41097259025903
 1 -9.79596513551355  1.02384302130213 -2.22443704970497
 1 -9.99680143514352  2.44901351435144 -1.33038663466347
 1  14.76061261426143 -2.98706761186119  0.08793068606861
 1 -15.58017745274527  1.61996691069107  1.43309151415142
 1  10.11951743374337  2.30279358325833 -0.53946326132613
 1 -8.61214791179118  0.47616971497150 -0.04881969496950
 1  8.89706256825682  4.17491734463446 -0.28522482548255
 1  7.03908729772977  4.02852826172617 -0.01058522552255
 1  8.18025273527353  4.05201808870887  1.64820783878388
 1 -8.47207423742374 -3.24961189028903 -0.06680251925193
 1 -7.88378413441344 -2.84420343444344 -1.73086941694169
 1 -6.76773562256226 -3.19700335243524 -0.54121091309131
 1  6.98131979497950  0.50366410931093 -0.43845723772377
 1 -6.53311357335734  0.50723056295630 -0.31059343634364
 1  5.57841722572257  3.06381152905291  0.46506876187619
 1 -4.91977579757976 -1.99296060316032 -0.84870227022702
 1  4.58209130813081  0.11012925882588 -0.60563897489749
 1 -4.18801430543054  0.76910202710271  0.11733452945295
 1  3.23030081508151  3.53660770267027  1.18881508250825
 1  1.75896254925493  3.14401307220722  0.48753116111611
 1  3.29013303530353  3.92650048394840 -0.34002449844984
 1 -2.57889002600260 -3.02688983608361  0.16482343834383
 1 -3.17481698969897 -2.57697881798180 -1.56446041304130
 1 -1.29536633563356 -2.20967114221422 -1.07482051805180
 1  2.42679983798380 -0.42071072217222 -0.57222512651265
 1 -1.83924332533253  1.23107302520252 -0.07911452445244
 1  0.35692143914391  1.92139484538454  0.13844963996400
 1  0.10462323232323 -1.15606555665567 -0.44733231723172

