%nproc=4
%Mem=2GB
# td=(NStates=1) CAM-B3LYP/6-31G(d,p) 

TD

0 1
 8  14.79141736073607 -2.23331080218022 -0.49921877487749
 8 -14.96253285028503  1.81270312631263  0.35455454945495
 6  11.51692498649865 -1.16178681278128  1.12053541454145
 6 -12.34818245024502 -0.89836239623962  0.71041656365637
 6  12.90127885988599 -1.58762180028003  0.97475504750475
 6 -13.79861247024702 -0.25256141614161  0.64801369736974
 6  13.36130812481248 -1.97115264236424 -0.46929181818182
 6 -13.66640898089809  1.33254605260526  0.44535631963196
 6  10.92719124512451 -0.30411462756276 -0.09384363036304
 6 -11.39216631763176 -0.32663369236924 -0.24465521952195
 6  12.94120833983398 -0.89714047114711 -1.48158903190319
 6 -12.91260202020202  1.63084106110611 -0.82301934393439
 6  11.62642738973897 -0.18990936403640 -1.23001151715172
 6 -11.59564315431543  0.82847917091709 -0.92417195619562
 6  11.25189591659166 -0.42271142924292  2.43182362336234
 6  10.58143758475848 -2.50332081318132  1.16007412741274
 6 -11.82413460746075 -0.91200302830283  2.18219679967997
 6 -12.57530823282328 -2.45439088208821  0.33805570957096
 6  9.71006583258326  0.23397443434343  0.10219689968997
 6 -10.01656302330233 -1.02603668866887 -0.20859954095410
 6  11.18913167816782  0.51494595949595 -2.45457966496650
 6 -10.55116755575558  1.48500888488849 -1.86657596459646
 6  9.38312827982798  1.60444388228823 -0.08469384338434
 6 -8.86289677467747 -0.50982453945395 -0.09433047904790
 6  8.11900788678868  2.32372211211121  0.15742141114111
 6 -7.60630577257726 -1.26338067116712 -0.33294862686269
 6  8.15677615861586  3.68312651755176  0.59012037803780
 6 -7.69134024002400 -2.77783753185319 -0.55708588358836
 6  6.88965437243724  1.61938193209321  0.02287228122812
 6 -6.48089989298930 -0.59930540564056 -0.21541454745475
 6  5.60626117811781  2.10338804570457  0.16012092809281
 6 -5.04964608660866 -1.05846572267227 -0.41845401940194
 6  4.50473440444044  1.31266668056806  0.03463783478348
 6 -3.98181360136014 -0.43802000810081 -0.25796312631263
 6  3.16121872687269  1.73723432133213  0.23774543954395
 6 -2.50971473547355 -0.79297362746275 -0.27045470547055
 6  2.96724700570057  3.22767221612161  0.55645835483548
 6 -2.29990548454846 -2.13826112821282 -0.59096013601360
 6  2.16904647964796  0.86080324422442  0.11624249924992
 6 -1.66103742674267  0.24430413631363 -0.01536336333633
 6  0.76900406940694  1.02252702060206  0.13899977997800
 6 -0.20493936293629  0.07414530943094 -0.05391303130313
 1  13.56920619261926 -0.64603803890389  1.29615445344534
 1  13.31833706970697 -2.08431901300130  1.81998213021302
 1 -14.48433121012101 -0.47631778877888  1.54785199119912
 1 -14.60295166216622 -0.70141706470647 -0.10262188218822
 1  12.71616681868187 -2.75832057515752 -0.79357742274227
 1 -13.01639710071007  1.61324584258426  1.40913038603860
 1  13.71356228822882 -0.00490321042104 -1.41761764576458
 1  12.90848234123412 -1.33862608970897 -2.47216789278928
 1 -13.51259680368037  1.43915523652365 -1.79978791179118
 1 -12.51098970597060  2.67279934393439 -0.80636751975197
 1  11.79052767276728 -0.94839556565657  3.00529519051905
 1  10.22372823782378 -0.21230074017402  2.45323420442044
 1  11.76767603760376  0.48152788568857  2.27791692669267
 1  10.66893589658966 -3.15182576267627  0.56447183318332
 1  10.71175209220922 -2.86337125422542  2.23227315131513
 1  9.38950495149515 -2.45632662576258  1.16357130013001
 1 -11.71176807680768  0.18470404140414  2.42522641564156
 1 -10.84178868786879 -1.38326548154815  2.30860686468647
 1 -12.59448060706071 -1.45410631563156  2.94558715471547
 1 -13.32644242524252 -2.96198745074507  0.96985149414942
 1 -11.55644869286929 -3.06392842084208  0.43704876087609
 1 -12.78738909690969 -2.35358566656666 -0.63081155515552
 1  8.86176800080008 -0.54359267936794  0.54249843384339
 1 -10.02882261426143 -2.07307103110311 -0.56970660366037
 1  10.14415683468347  0.95781587948795 -2.34370907390739
 1  11.89100753575358  1.43613790469047 -2.78313802780278
 1  11.21347558255826 -0.16342682978298 -3.27552468246825
 1 -10.93454446144614  1.69887311631163 -2.83591508450845
 1 -9.91863740274028  0.68084872187219 -1.93701830783078
 1 -10.10727248224823  2.43518213121312 -1.54431802780278
 1  14.84077063006301 -3.03193209830983  0.05825771877188
 1 -15.36826626162616  1.71976689068907  1.17071527652765
 1  10.21527700970097  2.21768507240724 -0.38287760276028
 1 -8.71423812081208  0.52932503050305  0.15824101110111
 1  8.54972783478348  4.55243509640964 -0.44342064506451
 1  7.13382677167717  4.12062747164716  0.65744157715772
 1  8.91360607060706  3.75077796469647  1.36138915691569
 1 -8.24810184018402 -3.17498442754275  0.22599676067607
 1 -8.15882163816382 -2.88868788288829 -1.50248657865787
 1 -6.75313416241624 -3.23480713281328 -0.67174396639664
 1  6.92133379637964  0.69965370827083 -0.48503189518952
 1 -6.56613687568757  0.47779761966197  0.24231185418542
 1  5.26103548754876  3.10391553945395  0.40111236623662
 1 -5.10006382638264 -2.08925023212321 -0.77841524152415
 1  4.50252335133513  0.30079832573257 -0.21110952195219
 1 -4.34124962896290  0.61265638253825  0.18515131113111
 1  3.20235802080208  3.58426246814681  1.55103130413041
 1  1.92246889988999  3.43610228112811  0.57208961696170
 1  3.34992901490149  3.79398723262326 -0.18373886988699
 1 -2.76778891589159 -2.89006615371537  0.37508446444644
 1 -2.97929743774377 -2.33745486558656 -1.39174314131413
 1 -1.27515431443144 -2.44786496159616 -0.82148518451845
 1  2.37041419941994 -0.22659131023102  0.13413550955096
 1 -2.13370277127713  1.11222114001400  0.30152353935394
 1  0.34299004600460  2.05453815971597  0.20382617761776
 1  0.20004277427743 -1.02473242334233 -0.39263684768477

