%nproc=4
%Mem=2GB
# td=(NStates=1) CAM-B3LYP/6-31G(d,p) 

TD

0 1
 8  14.73915213421342 -2.23401087218722 -0.67655650865087
 8 -14.69939653665367  1.91089294529453  0.66560565456546
 6  11.59040233423342 -1.12847348144814  1.21157451845185
 6 -12.29716734873487 -0.78328088808881  0.80617613961396
 6  13.10647937993799 -1.46716975507551  0.88859643164316
 6 -13.56490909990999 -0.14399055905591  0.91228012401240
 6  13.33230522452245 -1.88797432453245 -0.53684857385739
 6 -13.51538387838784  1.34564736273627  0.65570735473547
 6  10.96744527052705 -0.37169138523852  0.05497125112511
 6 -11.33489059005901 -0.23103413241324 -0.23723447744774
 6  13.00544476347635 -0.72663342044204 -1.39115998899890
 6 -12.81884264426443  1.66953493049305 -0.71874891689169
 6  11.62440718771877 -0.17486785988599 -1.13497201320132
 6 -11.61530512051205  0.79404572757276 -0.95587512651265
 6  11.46327705470547 -0.23723288138814  2.47298773977398
 6  10.77310675167517 -2.43896437753775  1.52238035803580
 6 -11.59195138913891 -0.58891071907191  2.27283586358636
 6 -12.47038774077408 -2.29056449944994  0.63681558555856
 6  9.72406723272327  0.32897393429343  0.18967564756476
 6 -10.07123849084909 -1.06205029002900 -0.37563624462446
 6  11.14126689168917  0.60589505440544 -2.28249245624562
 6 -10.77729016801680  1.19743012701270 -2.13840314731473
 6  9.36274624162416  1.65366880478048  0.00311493749375
 6 -8.87644812981298 -0.55800935793579 -0.39642068806881
 6  8.03904989098910  2.19368910881088  0.21542721172117
 6 -7.68788393039304 -1.29032336543654 -0.56529186118612
 6  8.06913739473947  3.70602880778078  0.60382174817482
 6 -7.63440454645465 -2.82103185128513 -0.86148632363236
 6  6.89663507050705  1.54736473037304  0.04711470547055
 6 -6.56478828182818 -0.76641211631163 -0.29508251425143
 6  5.57857840984098  1.98293600050005  0.18127304330433
 6 -5.22901402340234 -1.14678455455546 -0.50756293029303
 6  4.43687761876188  1.20092550645064  0.00608497949795
 6 -4.11739715971597 -0.34452065816582 -0.39506683668367
 6  3.03384598959896  1.60488108600860  0.19796146114611
 6 -2.74447821182118 -0.71537586768677 -0.44861252125213
 6  2.79340962196220  3.07035648454845  0.57814052305231
 6 -2.42016751075108 -2.22223952605261 -0.87149818981898
 6  2.13010258525853  0.73156031993199 -0.04824394939494
 6 -1.78531985498550  0.14739444534453 -0.01986381338134
 6  0.59967713671367  0.88976374427443  0.02754863486349
 6 -0.30369923892389 -0.05657776287629 -0.20170781078108
 1  13.53455272727273 -0.59326276137614  1.07814265226523
 1  13.32598783478348 -2.31354193529353  1.61354148614861
 1 -14.03983676067607 -0.56902705970597  1.81327853385339
 1 -13.99871123812381 -0.64117104010401  0.02037041704170
 1  12.56599180118012 -2.66492123522352 -0.62402046704671
 1 -12.78065352635264  1.92591710971097  1.34416388938894
 1  13.65848678067807  0.14278155805581 -1.17326321032103
 1  13.07854934793479 -1.26405863296330 -2.46871754775478
 1 -13.59099464346435  1.74513583458346 -1.47597553055306
 1 -12.55682428942894  2.71380344434443 -0.90389727272727
 1  11.85499411941194 -0.71580230633063  3.24935959695970
 1  10.38363422842284 -0.22364187428743  2.58272715371537
 1  11.72614188418842  0.82942267516752  2.23996313131313
 1  10.90420942394239 -3.27792837293729  0.77785317131713
 1  11.10579149614962 -3.06817173427343  2.42249217321732
 1  9.82007800880088 -2.15764675777578  1.50854579757976
 1 -11.42896979697970  0.47983355435544  2.44117801080108
 1 -10.64585909490949 -1.14324147914792  2.42912891689169
 1 -12.19220037903790 -0.88874977997800  3.07722031803180
 1 -13.21998177917792 -2.66651790379038  1.47596210521052
 1 -11.50560360836083 -2.85243727172717  0.82345740174017
 1 -12.89753011101110 -2.76864717271727 -0.38174664866487
 1  8.81512333633363 -0.41530985108511  0.43992817681768
 1 -10.04368410041004 -1.99786351035104 -0.76736636963696
 1  10.00806322532253  0.52294239213921 -2.19724442744274
 1  11.32095053005301  1.75908019891989 -2.25017473147315
 1  11.57053128812881  0.15329484238424 -3.12053918391839
 1 -11.31364237123712  1.49219244824482 -2.93211470447045
 1 -9.71904744374438  0.66098673567357 -2.30081468746875
 1 -10.42338409340934  2.40712932593259 -1.82988658465847
 1  15.11833838683868 -2.71106001110111  0.15497739073907
 1 -15.21781121612161  1.82010692469247  1.45772397739774
 1  9.97698318031803  2.22078538243824 -0.36213552855286
 1 -8.74931162816282  0.38656075407541 -0.01181599459946
 1  8.90460332233223  4.15607546044605 -0.09524582758276
 1  7.10583397239724  4.12267767666767  0.37264309730973
 1  8.24785949594959  3.78671155805581  1.67984100210021
 1 -8.18485551555155 -3.41406833593359 -0.19184502350235
 1 -8.14994075007501 -3.29371838593859 -1.76068239823982
 1 -6.74994384338434 -3.11981563366337 -0.95780257225723
 1  6.90897256025603  0.45208895179518 -0.31051444344434
 1 -6.59579984198420  0.25769560946095 -0.08448082508251
 1  5.47508689268927  3.00580572847285  0.38509076407641
 1 -4.97104092409241 -2.12899420652065 -0.83958135813581
 1  4.66938003700370  0.17015526142614  0.07837942694269
 1 -4.29527503150315  0.52741785868587  0.20407320332033
 1  3.22704048904891  3.39734377627763  1.59630583158316
 1  1.78750540354035  3.61549021992199  0.81652406040604
 1  3.39022304430443  3.63520135403540 -0.12544304030403
 1 -2.90763290029003 -3.01299844694469 -0.23984702870287
 1 -2.57246675467547 -2.36161728182818 -1.95201916891689
 1 -1.45685248424842 -2.59699987508751 -0.59718275427543
 1  2.56419357735774 -0.32468111921192 -0.17215511951195
 1 -2.23233263426343  1.07555747364736  0.05440882788279
 1  0.21023677067707  2.09796250215021 -0.08646285128513
 1  0.01375414541454 -1.06547649774978 -0.32435001900190

