%nproc=4
%Mem=2GB
# td=(NStates=1) CAM-B3LYP/6-31G(d,p) 

TD

0 1
 8  14.66048426742674 -2.40116758785879 -0.43044189718972
 8 -14.78524512151215  1.79036089208921  0.57436653065307
 6  11.43261655565557 -1.07538817291729  1.13623698469847
 6 -12.23464109610961 -0.86200876087609  0.76030155215522
 6  12.93242197419742 -1.29729276737674  1.07408498049805
 6 -13.67384999399940 -0.34738089808981  0.83079197519752
 6  13.25846784078408 -2.10305583268327 -0.24998988798880
 6 -13.56301864186419  1.16253905190519  0.72790457445745
 6  10.92957148314832 -0.28587280338034  0.01348710271027
 6 -11.25476257725773 -0.23724475347535 -0.26906766076608
 6  12.98527274627463 -0.94869562666267 -1.31240211321132
 6 -12.86039679967997  1.64214219121912 -0.43315035703570
 6  11.53858860586059 -0.36662703580358 -1.22771128712871
 6 -11.57466105610561  0.92706902990299 -0.85237477647765
 6  11.25883661066107 -0.18719787788779  2.42663310431043
 6  10.54854429542954 -2.27155763686369  1.38317643764376
 6 -11.67121931593159 -0.79906173417342  2.16121470147015
 6 -12.40165086708671 -2.45906134913491  0.60875277927793
 6  9.71487631363136  0.40251128802880  0.13487016701670
 6 -10.01156252325232 -0.99742382738274 -0.51862054305431
 6  11.07166993199320  0.21529599449945 -2.50172437943794
 6 -10.69389182818282  1.63017340134013 -1.77540684768477
 6  9.38891885888589  1.71947538543854 -0.09755512951295
 6 -8.79051953695370 -0.51348490549055 -0.39255030103010
 6  8.06927291329133  2.29785952585259  0.00352602160216
 6 -7.57484262626263 -1.29653398649865 -0.60468580058006
 6  8.14918539953995  3.76666487138714  0.12102346834683
 6 -7.82205331133113 -2.68916866496650 -1.01993216821682
 6  6.85730113711371  1.63521351525153 -0.00811081708171
 6 -6.36634843784378 -0.63087856295630 -0.40995400140014
 6  5.54191474347435  2.12186989388939  0.30367528352835
 6 -5.05827694969497 -1.18162803890389 -0.65083725772577
 6  4.49569350035003  1.33207862176218  0.05552992399240
 6 -3.94674009400940 -0.40342654875488 -0.26295362536254
 6  3.08800140514051  1.70265086298630  0.34775644064406
 6 -2.58260202420242 -0.75637996809681 -0.32230989098910
 6  2.76895717671767  3.07474692359236  0.79901261026103
 6 -2.33046854085409 -2.13629093119312 -0.97505854585459
 6  2.12559213421342  0.82102926682668  0.00964183918392
 6 -1.65749707270727  0.10052975887589 -0.06962878987899
 6  0.67184435343534  0.96959172707271  0.19879575957596
 6 -0.15631450045004 -0.12583468856886 -0.10761840184018
 1  13.53266253825383 -0.42321575667567  0.95325016301630
 1  13.38468370437044 -1.92616319741974  1.92991312331233
 1 -14.11719449644965 -0.73202335933593  1.52405961196120
 1 -14.21965333233323 -0.66606352935294  0.01808018801880
 1  12.73915911791179 -2.88925366846685 -0.44852291729173
 1 -13.09938539953995  1.35636015401540  1.85861533453345
 1  13.83659459145915 -0.11370409050905 -1.30630651465146
 1  13.00978247124712 -1.24764699179918 -2.27770844684468
 1 -13.40723626762676  1.59095041604160 -1.40160809380938
 1 -12.59092769976998  2.75927799179918 -0.24493137613761
 1  11.85654427442744 -0.64878560466047  3.42957761876188
 1  10.17938380338034  0.03583407330733  2.84504338533853
 1  11.87351662166217  0.68515824872487  2.30307944294429
 1  10.46811581458146 -3.05878645874587  0.58122350835084
 1  10.86045696269627 -2.77394231133113  2.40650057405741
 1  9.43579958095810 -2.07366835993599  1.46912185518552
 1 -11.86082298229823  0.30919649064906  2.45092898589859
 1 -10.64219872887289 -1.02817997299730  2.39030503450345
 1 -12.42490364936494 -1.32346325132513  2.97314991099110
 1 -13.16724650565056 -2.58882013401340  1.42515702470247
 1 -11.35795884388439 -2.81255328332833  0.98033308930893
 1 -12.71401175917592 -2.48579888788879 -0.40965943994399
 1  8.92853467746775 -0.14900322042204  0.58716290029003
 1 -10.10128986098610 -2.09123284728473 -0.91098073107311
 1  10.00252267126713  0.32095219311931 -2.60060476347635
 1  11.49687812281228  1.20105439633963 -2.66616633063306
 1  11.14837907290729 -0.40958144524452 -3.44420155015502
 1 -11.47066807380738  2.03499672867287 -2.57261875487549
 1 -9.87601314031403  1.02874351135113 -2.27068167416742
 1 -10.29516127112711  2.64845345834583 -1.31568516451645
 1  14.75329188218822 -3.05111401650165  0.29246113911391
 1 -15.43382281728173  1.45538045204520  1.34203240824082
 1  10.19961544354435  2.32781608550855 -0.50250956595660
 1 -8.56799349634963  0.48644074207421 -0.03494830783078
 1  8.50211307330733  4.40059991289129 -0.57746404940494
 1  7.15380876987699  4.17847325622562  0.25020085308531
 1  8.62519722972297  4.09504239113911  1.13409642764276
 1 -8.88159518951895 -3.11413834293429 -0.51256709570957
 1 -8.02562831883188 -2.76858587268727 -2.28134446444644
 1 -6.89766861586159 -3.39663331543154 -0.87045383738374
 1  6.82028369136914  0.68669241214121 -0.38328172017202
 1 -6.33889415141514  0.32286212611261 -0.02756513351335
 1  5.52041142514251  3.23192834073407  0.48699095409541
 1 -4.71855567556756 -2.21481278837884 -0.96281368136814
 1  4.77047014601460  0.12585083098310 -0.02710112111211
 1 -4.20568607260726  0.61942705960596  0.31846464246425
 1  3.38404618961896  3.34162820472047  1.59774597559756
 1  1.78845549854985  3.09293796469647  1.13533594159416
 1  3.07362138413841  3.83525135903590 -0.09584008000800
 1 -2.76839897689769 -2.94473162026203 -0.18933197719772
 1 -2.59739924792479 -2.40032115221522 -2.08434240124012
 1 -1.19385618461846 -2.68839901500150 -0.88897193319332
 1  2.44233139113911 -0.27056570767077 -0.41586949094910
 1 -1.82874227522752  1.13681359925993  0.25852923992399
 1  0.27005275227523  2.08076078197820  0.25349114411441
 1  0.29740251025102 -0.93370332043204 -0.49409699369937

