%nproc=4
%Mem=2GB
# td=(NStates=1) CAM-B3LYP/6-31G(d,p) 

TD

0 1
 8  14.70380859985999 -2.23533100420042 -0.25036388938894
 8 -14.70569716671667  2.15018687468747  0.86916601060106
 6  11.54733802780278 -1.04690532463246  1.22600596159616
 6 -12.31631926392639 -0.90297285728573  0.89674519651965
 6  13.03606233823382 -1.30542358045805  1.11918949094909
 6 -13.56786939593959 -0.04096025602560  0.87076597259726
 6  13.35060705470547 -1.83986951405140 -0.28290317931793
 6 -13.45622796279628  1.45101789978998  0.91395317931793
 6  11.02018054405441 -0.24813903000300  0.13496925092509
 6 -11.35108220922092 -0.33842487148715 -0.09763051705171
 6  13.00660487948795 -0.72512326942694 -1.29530040304030
 6 -12.69997075707571  1.86889486648665 -0.24155119711971
 6  11.69885463246325 -0.16951732483248 -1.05379389538954
 6 -11.57777136713671  0.95497182018202 -0.70185972497250
 6  11.29999072607261 -0.27851700980098  2.55553599459946
 6  10.75610505150515 -2.40012049314932  1.35887400740074
 6 -11.82286448044804 -0.92574440244024  2.27332591259126
 6 -12.60743144514452 -2.29338478147815  0.52949485348535
 6  9.73443826982698  0.31206224312431  0.36616329632963
 6 -10.11116248324833 -1.11723580858086 -0.49643832483248
 6  11.14362712771277  0.63607807270727 -2.18102230923092
 6 -10.69902234123412  1.59126951095110 -1.90269957695770
 6  9.28632859985998  1.63773721162116  0.03263788978898
 6 -8.83031351635164 -0.67522107910791 -0.27915896189619
 6  8.03798978497850  2.22230197009701  0.15232090109011
 6 -7.66044118611861 -1.40641497459746 -0.58279361136114
 6  8.03552403340334  3.72085028992899  0.42164353035304
 6 -7.83623472947295 -2.90367011511151 -1.03119329432943
 6  6.84305971297130  1.53820381428143  0.02945293929393
 6 -6.49246104910491 -0.72698817391739 -0.32921592759276
 6  5.57121767376738  1.96044375127513  0.13872878887889
 6 -5.12163328532853 -1.22863273937394 -0.55823799779978
 6  4.47100103110311  1.17420283418342 -0.19779540854085
 6 -4.03535895589559 -0.40135634173417 -0.41727905790579
 6  3.09170177517752  1.53043364126413 -0.12813114811481
 6 -2.71394515851585 -0.82574690479048 -0.57141480148015
 6  2.65856613761376  2.92956240514051  0.30992370137014
 6 -2.32667816181618 -2.28511581368137 -0.89976101610161
 6  2.14253382838284  0.64369153305331 -0.43304242924292
 6 -1.62764408740874  0.07232693859386 -0.47892971997200
 6  0.76028319731973  0.86004077197720 -0.30928504850485
 6 -0.22925179417942 -0.16458856395640 -0.40878851885189
 1  13.40467973997400 -0.24398783388339  1.33066790479048
 1  13.39522475847585 -1.96401698279828  1.90586071807181
 1 -14.40043282028203 -0.49926008300830  1.61780898689869
 1 -13.95503687068707 -0.15394231723172 -0.15153677367737
 1  12.84530973297330 -2.67231197429743 -0.51466953195320
 1 -12.86328178917892  1.62202672067207  1.88454792779278
 1  13.75399633163316  0.08906618651865 -1.30539642364236
 1  12.88290978397840 -1.08191041814181 -2.37135781178118
 1 -13.57352289628963  1.91342266326633 -1.02338027102710
 1 -12.35397400440044  2.94670673467347 -0.28760564356436
 1  11.73540216021602 -0.76748747484748  3.52364702570257
 1  10.29014487948795 -0.21997150725073  3.02060094109411
 1  11.69671894189419  0.88693842674267  2.52982211721172
 1  10.89614861786179 -3.03252383248325  0.47998338433843
 1  11.03513443044304 -3.18687360446045  2.21028095209521
 1  9.70028602960296 -2.09296028912891  1.39012395539554
 1 -11.31212811281128  0.01185675667567  2.54998889188919
 1 -10.94225873487349 -1.72759991499150  2.41910791479148
 1 -12.58271943094309 -1.15428633363336  3.06080867686769
 1 -13.44700448144814 -2.66459771177118  1.04253876287629
 1 -11.67430047804780 -2.92692472047205  0.68715377137714
 1 -12.99543990199020 -2.51433174117412 -0.42453092709271
 1  8.98053987798780 -0.40443876397640  0.68412259625963
 1 -10.03945367736774 -2.10161388538854 -0.86702633563356
 1  10.17412983198320  1.31684178207821 -2.08362306530653
 1  11.96596503150315  1.52551684258426 -2.32064177817782
 1  11.03633786878688  0.08353786668667 -3.10706783678368
 1 -11.27408841584158  2.20456368536854 -2.68525001800180
 1 -10.11830736973697  0.97273791079108 -2.55411001700170
 1 -9.79764151915192  2.13708232123212 -1.45957955395540
 1  14.99784633763376 -2.90621952705271  0.52947484048405
 1 -15.13524295929593  1.83343825782578  1.81775998099810
 1  10.02297777977798  2.22074537843784 -0.38545786078608
 1 -8.67153385038504  0.18559065706571  0.31379656665667
 1  8.62235509750975  4.07614746764676 -0.51092739573957
 1  7.16264965396540  4.04982039093909  0.34029986298630
 1  8.46025073507351  3.99634252115212  1.45019803780378
 1 -8.58098512851285 -3.50396732583258 -0.35866170517052
 1 -8.34191994799480 -2.99848886298630 -2.07211354135414
 1 -7.00215906490649 -3.34846849894990 -1.00360715271527
 1  7.00740240324032  0.58251199409941 -0.11188458045805
 1 -6.64680494249425  0.39407924782478 -0.04582695969597
 1  5.45749513351335  3.06076122402240  0.35407766276628
 1 -5.02675649564956 -2.35552685978598 -0.85768316831683
 1  4.59528262726273  0.18451669756976 -0.50450886188619
 1 -4.12497800180018  0.59105422232223 -0.29564676867687
 1  3.15454323932393  2.88729277117712  1.58432463346335
 1  1.58033468646865  3.27142581348135  0.15689809780978
 1  3.19073309530953  3.66911474537454 -0.33596409240924
 1 -2.90861299829983 -3.07263441054105 -0.38166121012101
 1 -2.43141264926493 -2.38425954605461 -2.11810577757776
 1 -1.31881868086809 -2.72550272537254 -0.98243127912791
 1  2.38348550655065 -0.50427907900790 -0.48617652165217
 1 -2.02911231223122  1.12744266216622 -0.53930054305431
 1  0.36139188618862  2.03456616251625 -0.28319252425242
 1  0.02165493549355 -1.04261421152115 -0.59344692869287

