%nproc=4
%Mem=2GB
# td=(NStates=1) CAM-B3LYP/6-31G(d,p) 

TD

0 1
 8  14.75722394139414 -2.31999947104710 -0.54501335433543
 8 -14.78689528652865  1.95418727472747  0.89792888688869
 6  11.47350064406441 -1.12590322442244  1.22949631063106
 6 -12.29341697369737 -0.88613117311731  0.86513203520352
 6  12.95882461446145 -1.51495453355336  1.05378295029503
 6 -13.64502711171117 -0.22981914191419  1.01152004800480
 6  13.27881987598760 -1.96235176227623 -0.29124401340134
 6 -13.49331167116712  1.33834663266327  0.74956674067407
 6  10.96087461346135 -0.28858307440744  0.02865861986199
 6 -11.35222232323232 -0.36847787678768 -0.25856661066107
 6  12.97008122712271 -0.86405716281628 -1.28955982898290
 6 -13.02868362836284  1.59869784678468 -0.59981702370237
 6  11.67061180818082 -0.23447382048205 -1.15838435443544
 6 -11.75250884088409  0.83559988298830 -0.93971351035104
 6  11.32077280428043 -0.36564572267227  2.59378981998200
 6  10.62034147514751 -2.39768024912491  1.26375449544954
 6 -11.48026022002200 -0.91562339033903  2.28774735473547
 6 -12.52329303130313 -2.38325376837684  0.54384628862886
 6  9.64317914391439  0.38469950685068  0.30677735773577
 6 -10.10782214921492 -0.99372345734573 -0.48950763176318
 6  11.12034479947995  0.55602006690669 -2.34416862386239
 6 -11.09206164516452  1.27969835383538 -2.17893720072007
 6  9.38418838583858  1.72315575347535  0.04920954695470
 6 -8.91657214221422 -0.37007056405641 -0.36095714171417
 6  8.11048703470347  2.29992973287329  0.18614428342834
 6 -7.65551069306931 -1.17153148624862 -0.55675100710071
 6  8.17802828382838  3.82187039193919  0.48040940694069
 6 -7.75369647564756 -2.57959770787079 -0.77145732073207
 6  6.96563197019702  1.65703569746975  0.15370536453645
 6 -6.43052485548555 -0.55229070417042 -0.50926393239324
 6  5.59786033803380  2.07642534943494  0.14693960996100
 6 -5.05668679067907 -1.06288616471647 -0.53936611061106
 6  4.50754468546855  1.26713212711271 -0.03817944694469
 6 -3.95133055305531 -0.36004221032103 -0.37951528152815
 6  3.09492209720972  1.67239783768377 -0.01857019201920
 6 -2.48837260126013 -0.82448677877788 -0.31043870387039
 6  2.80750103110311  3.08121757065707  0.56583929292929
 6 -2.32838833283328 -2.24964226632663 -0.67744878487849
 6  2.14394396939694  0.66758392229223 -0.17147627262726
 6 -1.55628695169517  0.08967867376738 -0.32054388138814
 6  0.67373454245425  0.90945571347135 -0.08132225222522
 6 -0.15720458945895 -0.14059616471647 -0.36653429342934
 1  13.48101737373737 -0.77530096519652  1.35623046104611
 1  13.11244648064807 -2.24212479357936  1.76876700870087
 1 -14.16169894689469 -0.57378753575358  2.05924313031303
 1 -14.52596396339634 -0.48222514551455  0.25928430843084
 1  12.61949715171517 -2.75933067616762 -0.76857492249225
 1 -12.81019648064806  1.60498501650165  1.67113658665867
 1  13.83721465346535 -0.23124584468447 -1.22438832283228
 1  13.00585207820782 -1.22487471457146 -2.30815149114912
 1 -14.02048759275928  1.16482780378038 -1.21164909790979
 1 -12.83310191719172  2.77083914791479 -0.75449233223322
 1  11.82063068306831 -0.92908363446345  3.49112377337734
 1  10.38572443744374 -0.12213172327233  2.94244312531253
 1  11.75509477947795  0.50223995689569  2.52869200420042
 1  10.62791179417942 -2.97542812291229  0.41477686368637
 1  11.08697961496150 -2.93972888998900  2.13067299129913
 1  9.55901190219022 -2.43143413651365  1.48127307030703
 1 -11.58731563156316  0.24687025802580  2.42982687568757
 1 -10.52008651765177 -1.03845100010001  2.20299630363036
 1 -12.13781494049405 -1.40897180218022  2.97366996299630
 1 -13.33586336733673 -2.75591684368437  1.18138264726473
 1 -11.56417946594659 -3.13332536053605  0.78810386638664
 1 -12.85309566756676 -2.70177048504850 -0.43523199719972
 1  8.79032085608561 -0.20767908800880  0.51455563956396
 1 -10.11133086508651 -1.85285900990099 -0.92270190319032
 1  10.07178959795980  0.85550564846485 -2.40545524852485
 1  11.82093052805281  1.47079137003700 -2.41165087908791
 1  11.13711794679468 -0.14274476157616 -3.21171830183018
 1 -11.58894990199020  1.29058228722872 -3.24995648864887
 1 -10.10943648264826  0.37069770677068 -2.37097170317032
 1 -10.31131288628863  2.23254186718672 -2.12259585558556
 1  14.88601515451545 -2.82977188228823  0.44406629962996
 1 -15.21347078207821  1.68549346334634  1.78697690269027
 1  10.13108859085909  2.24961826572657 -0.37695701070107
 1 -8.78683538053805  0.50284238223822  0.01899708670867
 1  8.76077893989399  4.23417327022702 -0.53057936093609
 1  7.12367575657566  4.25753116201620  0.67592342534253
 1  8.89696440644064  4.07256014291429  1.24338735673567
 1 -8.33177020702070 -3.13368029712971 -0.01589742874287
 1 -8.53093884988499 -2.63170218431843 -1.63037936793679
 1 -6.73483233223322 -2.88368202030203 -1.09621641364136
 1  7.29194085708571  0.59578332123212 -0.25361875387539
 1 -6.38764902690269  0.56855669556956 -0.48419079607961
 1  5.36925630963096  3.17195234313431  0.50756301130113
 1 -5.01485530553055 -2.25415672277228 -0.88104550455045
 1  4.80346344534454  0.21532977887789 -0.32827123812381
 1 -4.09110461446145  0.71015613251325 -0.09615681968197
 1  3.54014179917992  3.27471151305131  1.41670787178718
 1  1.59722637563756  3.06494516541654  0.76401880988099
 1  3.12812683468347  3.60013784768477 -0.35489598559856
 1 -2.87100923792379 -2.92583973107311 -0.20008305230523
 1 -2.48403791179118 -2.26444756485649 -1.77111107810781
 1 -1.23953075207521 -2.61199137423742 -0.59215225122512
 1  2.57099425742574 -0.45705435653565 -0.40623852785278
 1 -1.76604600560056  1.21594151205121  0.04678806580658
 1  0.44785053205321  2.04802750865087 -0.02389659465947
 1  0.30508327832783 -1.03083303340334 -0.66253383738374

