%nproc=4
%Mem=2GB
# td=(NStates=1) CAM-B3LYP/6-31G(d,p) 

TD

0 1
 8  14.64597281628163 -2.37190466156616 -0.42564141714171
 8 -14.78649524652465  2.06499835583558  0.66045513951395
 6  11.34064735873587 -1.15716635073507  1.19228258925893
 6 -12.37680531253125 -0.93874643464346  0.73274879687969
 6  12.82872160416042 -1.52613565166517  1.06007357935794
 6 -13.70622323132313 -0.12276843684368  0.65509440544054
 6  13.31850384438444 -1.94066959405941 -0.42147703670367
 6 -13.49767210721072  1.36760955895590  0.58000978497850
 6  10.92466099209921 -0.21942615871587 -0.04637888388839
 6 -11.30212731373137 -0.28523955295530 -0.23204395839584
 6  12.99795401440144 -0.82017277437744 -1.31433230623062
 6 -12.63229398939894  1.76196417341734 -0.60674771677168
 6  11.67507225422542 -0.11306167926793 -1.10818933493349
 6 -11.43288687868787  0.91253757675768 -0.83982352135214
 6  11.13936466346635 -0.43099225732573  2.58266870787079
 6  10.61514095509551 -2.37465794689469  1.18587670767077
 6 -11.87110930493049 -0.81510333833383  2.22067064706471
 6 -12.43292399439944 -2.35936137913791  0.30691259525953
 6  9.53224805080508  0.34546558345835  0.16466314631463
 6 -10.11377274427443 -1.11159524452445 -0.40694937593759
 6  11.40048281328133  0.70843530843084 -2.34363857085709
 6 -10.52560499949995  1.50705108910891 -1.84419372637264
 6  9.28814878187819  1.65056849474948 -0.08486386038604
 6 -8.77721820682068 -0.71179473647365 -0.10891193719372
 6  8.05353133913391  2.37951769166917  0.01064673367337
 6 -7.55001014301430 -1.42408674177418 -0.35558089008901
 6  8.08328880988099  3.73891209610961  0.45393675967597
 6 -7.57367847384738 -2.84635438353835 -0.80029020402040
 6  6.84442984998500  1.70203019691969 -0.16249625562556
 6 -6.36480828382838 -0.65160063516352 -0.22999600560056
 6  5.47304785678568  2.05373308020802  0.07998291429143
 6 -5.02456357835784 -1.23833370947095 -0.36711888588859
 6  4.48058198919892  1.31866728062806 -0.14450007900790
 6 -3.97531295129513 -0.40152635873587 -0.14046137613761
 6  3.00722332733273  1.62364296219622  0.06435810081008
 6 -2.64599836383638 -0.84031836193619 -0.24405206520652
 6  2.78864914591459  2.99324877377738  0.51676438543854
 6 -2.32284777877788 -2.22597990009001 -0.70771181118112
 6  2.02814238923892  0.74489165306531 -0.09050817581758
 6 -1.66443776677668  0.13927363326333 -0.13557538453845
 6  0.64688185718572  0.80984575247525 -0.01162528252825
 6 -0.26414528352835 -0.09475158025803 -0.15834347434743
 1  13.39612888488849 -0.60562399749975  1.50544538253825
 1  13.01400663666367 -2.27953853495350  1.52949308130813
 1 -14.33370614761476 -0.31119127612761  1.45282248824882
 1 -14.54383575057506 -0.48463538653865  0.07116549654966
 1  12.91331653365337 -2.79342408550855 -0.68354641964196
 1 -12.89359482048205  1.82553707170717  1.50375984898490
 1  13.76334726672667  0.03141042094209 -1.50716660066007
 1  13.10401189418942 -1.22004423152315 -2.56024670067007
 1 -13.44664020802080  1.49546086708671 -1.40556848984899
 1 -12.40037864486449  2.87468953295330 -0.50141702470247
 1  11.50557917791779 -1.08320904700470  3.37442210321032
 1  10.06977284228423 -0.33554306440644  2.89459834083408
 1  11.71647091709171  0.61307104000400  2.50453958895890
 1  10.72068107110711 -2.92102268236824  0.21138652465247
 1  10.92572348934894 -3.00225514261426  1.95372529652965
 1  9.54841084208421 -2.10907190029003  1.39851479447945
 1 -11.34553145314531  0.21374694569457  2.42155604860486
 1 -10.94357886688669 -1.37590474547455  2.37302330633063
 1 -12.67653881288129 -1.17119802480248  2.97433002900290
 1 -13.39260904190419 -2.83518477047705  0.61212572157216
 1 -11.61755480348035 -2.83544557255726  0.70042509850985
 1 -12.52296265426543 -2.51677198519852 -0.80029850385039
 1  8.92449427342734 -0.30815913601360  0.43182736673667
 1 -10.18534826682668 -2.22217594159416 -0.83863349634964
 1  10.37969038803880  1.03779387728773 -2.28061276427643
 1  12.01395983098310  1.68134242514251 -2.42967268126813
 1  11.64704893989399  0.23978349124912 -3.32632976297630
 1 -11.03578458545855  1.75149837883788 -2.77828932193219
 1 -9.59770530953095  0.87770840784078 -1.91587619361936
 1 -9.96881863686369  2.40507912091209 -1.65167876387639
 1  14.88865541854185 -3.07775668076808  0.11926381938194
 1 -15.17996743174317  1.52746766076608  1.44395260026003
 1  10.26634211621162  2.22422572647265 -0.38805812081208
 1 -8.62122881988199  0.40814291229123  0.32466765376538
 1  8.88248111011101  4.39562941584158 -0.04934123712371
 1  7.08755214421442  4.32959836873687  0.23500933393339
 1  8.43443815381538  4.02628551545155  1.32889590759076
 1 -8.19696672667267 -3.24235116421642  0.06162032303230
 1 -7.98002375837584 -2.77666668076808 -1.79654598459846
 1 -6.66699554855486 -3.34289794189419 -0.83887067906791
 1  7.05973763676368  0.56054979787979 -0.45713910591059
 1 -6.41253151515151  0.39166900680068 -0.15060743774377
 1  5.35065444944494  3.01556670457046  0.51817407240724
 1 -4.81294511451145 -2.34210551765177 -0.72965036503650
 1  4.79142224122412  0.21612985888589 -0.12338074907491
 1 -4.18642414641464  0.57927304420442  0.34693748974897
 1  3.36936472147215  3.16082012391239  1.48618481948195
 1  1.65182183518352  3.19953862476248  0.92084449244925
 1  3.07203122512251  3.70712854675468 -0.38584908090809
 1 -2.73386552355236 -2.98365551265127 -0.15912895689569
 1 -2.71051055905591 -2.33187430753075 -1.63011697869787
 1 -1.22848964796480 -2.20530070517052 -0.84571760776078
 1  2.45845300330033 -0.29059771087109 -0.48389629362936
 1 -2.08792819381938  1.10106002390239  0.04153754075408
 1  0.08499424642464  1.82756546244624  0.12610840584058
 1  0.05609837983798 -1.11692164226423 -0.24445202920292

