%nproc=4
%Mem=2GB
# td=(NStates=1) CAM-B3LYP/6-31G(d,p) 

TD

0 1
 8  14.58839705870587 -2.29154662576258 -0.51317017001700
 8 -14.73125972297230  1.96108796479648  0.78276737073707
 6  11.53597689168917 -1.04247488158816  1.24496785778578
 6 -12.40124775677568 -1.00345290529053  0.63757927992799
 6  13.03082181418142 -1.30455349344934  0.97240481248125
 6 -13.67572018101810 -0.28558471847185  0.60060895689569
 6  13.20382237623762 -1.91100662776278 -0.30292518151815
 6 -13.47837017701770  1.33011580958096  0.73453523752375
 6  10.99346787278728 -0.32058627472747  0.03183893789379
 6 -11.34685178617862 -0.28423945294529 -0.29499025302530
 6  12.89290350935093 -0.94723548064806 -1.47705857885789
 6 -12.80318107810781  1.75543352035204 -0.59250629262926
 6  11.64864961196120 -0.20279065216522 -1.14816333233323
 6 -11.56447003700370  0.96331265426543 -0.83218275727573
 6  11.44698542554256 -0.29695885398540  2.47991843284328
 6  10.67790723172317 -2.34877535863586  1.47333545354535
 6 -11.75032722672267 -1.09937176517652  2.07770635063506
 6 -12.65672637463746 -2.42525796879688  0.11822372637264
 6  9.63704853085309  0.26350738763876  0.15661234123412
 6 -10.09285065206521 -0.97032111711171 -0.37624630563056
 6  11.11119388438844  0.40463492839284 -2.40404461146115
 6 -10.58961140014002  1.72908329232923 -1.70959026602660
 6  9.40262022902290  1.57459089698970 -0.04403977797780
 6 -8.79578006300630 -0.54244780178018 -0.25089613561356
 6  8.05837182318232  2.28637837773777  0.09612528152815
 6 -7.62396753875388 -1.31305563866387 -0.56808214021402
 6  8.12511299229923  3.80080828572857  0.28175954195420
 6 -7.62872397839784 -2.80896064416442 -0.84553472847285
 6  6.90065547254726  1.60520051395139 -0.13658366436644
 6 -6.47129893289329 -0.68316379147915 -0.19876288228823
 6  5.53833438543854  2.08010571747175  0.12894781078108
 6 -5.11071219321932 -1.17478735483548 -0.37175934993499
 6  4.48222215321532  1.28512392629263 -0.07651328032803
 6 -4.03730915091509 -0.37336354245425 -0.15472280228023
 6  3.07847045204520  1.65958655655566  0.12430409540954
 6 -2.66004976897690 -0.76049037913791 -0.28089574957496
 6  2.79413969496950  3.15432488138814  0.49602231123112
 6 -2.30058555255526 -2.27006430853085 -0.49770081008101
 6  2.07615719071907  0.75935309920992 -0.04673379837984
 6 -1.62014333733373  0.09465917181718 -0.13145497249725
 6  0.61091826082608  0.95881064896490  0.13531941194119
 6 -0.19884875387539 -0.03763586868687 -0.09472711271127
 1  13.58027729972997 -0.45712914801480  1.05145998399840
 1  13.38353358935894 -1.95366594769477  1.73746387838784
 1 -14.33476625362536 -0.64250440744074  1.44902210821082
 1 -14.17356872387239 -0.38705562856286 -0.30782240224022
 1  12.72620782278228 -2.85004974807481 -0.43230129512951
 1 -12.83711917291729  1.66298081608161  1.46287576057606
 1  13.65507643964397 -0.20668338843884 -1.41832771677168
 1  12.77094858785879 -1.54493672077208 -2.50668134413441
 1 -13.58486403040304  1.63551487248725 -1.43481141414141
 1 -12.58368697569757  2.96575863986399 -0.66661354435443
 1  11.85188380838084 -0.78249897599760  3.31451611261126
 1  10.49848571357136  0.09660014991499  2.77034591559156
 1  12.00575984598460  0.67793752665267  2.33761289628963
 1  11.15646464946495 -3.14400498059806  0.70455584158416
 1  11.04775569256926 -2.70708562566257  2.37173709770977
 1  9.49932593359336 -2.17021801490149  1.26629157215722
 1 -11.82010891089109  0.02846841784178  2.46923081608161
 1 -10.83424793379338 -1.63115027002700  1.89981598559856
 1 -12.39188034703470 -1.52898380338034  2.75344794079408
 1 -13.54913469446945 -2.72797404940494  0.77299180818082
 1 -11.96659970797080 -3.19299132713271  0.42876793279328
 1 -12.67528788678868 -2.65600590859086 -1.20514898889889
 1  8.84361618561856 -0.40944926502650  0.48586277027703
 1 -10.15293502550255 -1.91097482148215 -0.63675330833083
 1  10.11260367936794  0.51836193409341 -2.26888159115912
 1  11.53552198719872  1.32406669756976 -2.62469218321832
 1  11.33397763276328 -0.38314880198020 -3.21509863986399
 1 -11.25444645164517  2.20564379337934 -2.39180067306731
 1 -9.82822836183619  1.11990262726273 -2.41704631063106
 1 -9.82006376137614  2.27026563956396 -1.23073666966697
 1  14.85224177717772 -3.13404230933093 -0.14696280328033
 1 -14.98262769776978  1.67875278927893  1.57198540354035
 1  10.20431591359136  2.27279058295830 -0.38105742074207
 1 -8.66307300430043  0.47109920792079  0.09774496149615
 1  8.88532139413941  4.26217607050705 -0.40080638363836
 1  7.14943833283328  4.08394380328033  0.02743857685769
 1  8.51496620662066  4.06291917881788  1.24037705570557
 1 -8.16245327532753 -3.22041897099710 -0.10953679267927
 1 -8.08290404640464 -2.82340135423542 -1.76102243224322
 1 -6.50988983798380 -3.26559021112111 -0.76987377937794
 1  6.91445310831083  0.47986172907291 -0.17062045404540
 1 -6.56024628662866  0.35895573547355  0.05742336533653
 1  5.34023340734073  3.14942008990899  0.63712596759676
 1 -5.01927574757476 -2.15172647974797 -0.63179057905791
 1  4.62579567856786  0.14415266116612 -0.32124053505351
 1 -4.04621012501250  0.48925404230423  0.21209400540054
 1  3.49633741874187  3.74475851775177  1.31966816781678
 1  1.85337199019902  3.31211988288829  0.55568797679768
 1  3.15286930893089  3.76637447134713 -0.31746224222422
 1 -2.71379351635164 -2.84373152025203  0.15213216921692
 1 -2.70030953895390 -2.69265038513851 -1.46233020002000
 1 -1.18633543254325 -2.25381555665567 -0.36984002000200
 1  2.34022118011801 -0.32876152725273 -0.14096200020002
 1 -1.87066646764676  1.10728064596460  0.24007739473947
 1  0.37081282828283  1.99411211711171  0.39229502450245
 1  0.19107187718772 -1.11028097819782 -0.20662824682468

