%nproc=4
%Mem=2GB
# td=(NStates=1) CAM-B3LYP/6-31G(d,p) 

TD

0 1
 8  14.85274349334933 -2.21878935003500 -0.38812766576658
 8 -14.86457305430543  1.97734959095910  0.74536363036304
 6  11.60699399339934 -1.13948458255826  1.24263762476248
 6 -12.38807643964396 -1.00410297029703  0.72402792479248
 6  13.01326005800580 -1.40211324942494  1.14716228822882
 6 -13.75410801980198 -0.25081124112411  0.69039793579358
 6  13.40944293829383 -1.76349187628763 -0.30369525852585
 6 -13.58720106010601  1.24099689768977  0.76110789478948
 6  10.97927645364537 -0.39724394049405  0.04276003000300
 6 -11.31744884588459 -0.32531356035604 -0.18102885688569
 6  13.12908712771277 -0.74015477257726 -1.24837571057106
 6 -12.78275903590359  1.73136111311131 -0.52171921392139
 6  11.73454820182018 -0.21343171627163 -1.10634915091509
 6 -11.63103669366937  0.87181350435043 -0.69340887988799
 6  11.23148387538754 -0.36818597669767  2.55347578857886
 6  10.79086852785279 -2.43062354345435  1.37635575557556
 6 -11.83272546654665 -1.02941476947695  2.17736631663166
 6 -12.65431613361336 -2.47960340334033  0.39012091609161
 6  9.61320614661466  0.28059909680968  0.21685836583658
 6 -10.10381174817482 -1.07560164516452 -0.36039472047205
 6  11.22147491249125  0.31597606250625 -2.43922812981298
 6 -10.57096953595360  1.56358674267427 -1.70868017501750
 6  9.33786375337534  1.44243768166817 -0.10109548354836
 6 -8.87432791779178 -0.62179573657366 -0.30499154515452
 6  8.00271625762576  2.11468120802080  0.06222189118912
 6 -7.63210835283528 -1.25985031813181 -0.54845017701770
 6  8.18518899989999  3.62241044594459  0.19968133413341
 6 -7.60648175417542 -2.61024077217722 -1.02388256325633
 6  6.88857426442644  1.49544953885389 -0.04195420142014
 6 -6.44207601060106 -0.56013148824882 -0.10732373837384
 6  5.51101165316532  2.10446815371537  0.15702061806181
 6 -5.06825794779478 -1.08947882398240 -0.33789596359636
 6  4.49686361736174  1.37981339523952 -0.04477010601060
 6 -4.06834225422542 -0.27684389048905 -0.15523285328533
 6  3.08783138813881  1.77443804170417  0.05733739873987
 6 -2.64774853885389 -0.73086741684168 -0.42983064306431
 6  2.76195647664766  3.12919236813681  0.36481919091909
 6 -2.44140963496350 -2.13977127922792 -0.83997503750375
 6  2.12804237923792  0.79980714461446 -0.22498162316232
 6 -1.68242956595660  0.18103780968097 -0.10246207320732
 6  0.64062123112311  0.95577034493449 -0.06737085708571
 6 -0.24440330933093  0.03582147704770 -0.42069970997100
 1  13.85576484848485 -0.67219065416542  1.49480431843184
 1  13.32163739973998 -2.09439002010201  2.01726185818582
 1 -14.48952172917292 -0.51451160816082  1.45081228722872
 1 -14.38660002700270 -0.39613653665367 -0.38464008400840
 1  12.75656085808581 -2.56782152525253 -0.65523358835884
 1 -13.18512397339734  1.48584310231023  1.67281675467547
 1  13.63460439243924  0.26578385828583 -1.03641952595260
 1  13.33906539953995 -1.29280150725073 -2.21884256025603
 1 -13.40086563056306  1.83119444044405 -1.44690262326233
 1 -12.58471707870787  2.72682474647465 -0.23721060406041
 1  11.42917153715372 -0.73140386648665  3.58952361336134
 1  10.32715858085809 -0.12507201730173  2.64696357735774
 1  11.83616288628863  0.46290602350235  2.48343747874787
 1  10.93469247224722 -2.87632821292129  0.23273865986599
 1  11.11133205020502 -2.93169808690869  2.21801172517252
 1  9.72282828382838 -2.26875786888689  1.31045598859886
 1 -11.66087298729873 -0.05115954495450  2.62235612861286
 1 -10.90475498449845 -1.49154630963096  2.14514051805181
 1 -12.50586174517452 -1.52195310031003  2.95686828282828
 1 -13.57728750975097 -2.76742799479948  0.93552806180618
 1 -11.60515356335634 -2.98254028202820  0.40665572157216
 1 -13.14969532753275 -2.65209551755175 -0.57012548654865
 1  9.05109693369337 -0.44901322142214  0.78607279127913
 1 -10.18714844684468 -2.20837456145615 -0.59422905590559
 1  10.15655807480748  0.99799989788979 -2.21604630763076
 1  11.91692012701270  1.16366065696570 -2.98011772577258
 1  11.20913514851485 -0.63320380748075 -3.17913504350435
 1 -11.33172417941794  2.20613384238424 -2.30537203020302
 1 -9.84370990999100  0.82774341134113 -2.24346895289529
 1 -10.11613336833683  2.41926053905391 -1.12087568356836
 1  15.03861041404140 -3.02836174127413  0.14687658065807
 1 -15.20432986798680  1.55597051105110  1.55961416641664
 1  10.18440392239224  2.10414371827183 -0.62583189818982
 1 -8.83939063606361  0.48739083708371 -0.13880869386939
 1  8.69167202920292  4.21317117001700 -0.62162846584658
 1  7.19699308830883  4.24806021492149 -0.01039520652065
 1  8.46468117811781  3.86803969086909  1.42708572657266
 1 -7.89676670667067 -3.27804473357336 -0.24826066506651
 1 -8.11583733973397 -2.63015202930293 -1.99766609660966
 1 -6.55482433143314 -3.10071372347235 -1.41155794779478
 1  7.05938760176018  0.35184892779278  0.05050165816582
 1 -6.64302456445645  0.51973181308131  0.20914853785379
 1  5.32420180418042  3.14993014091409  0.31261351635163
 1 -4.92004582458246 -2.12589389648965 -0.84514191419142
 1  4.63720681968197  0.33725197109711 -0.23897230823082
 1 -4.15884138813881  0.82965808270827 -0.09457666166617
 1  3.41539932493249  3.54879892179218  1.17237343834383
 1  1.60474712771277  3.45801447234724  0.77807021502150
 1  2.88189221122112  3.80069790369037 -0.53984448044804
 1 -2.51617375437544 -2.78360550765077  0.21560851685169
 1 -3.34496400440044 -2.51828294839484 -1.58959292629263
 1 -1.49615641464146 -2.36487666276628 -1.03394643064306
 1  2.57207436543654 -0.24341299239924 -0.24898280228023
 1 -2.08153755475548  1.18309822772277  0.13618700570057
 1  0.24341008800880  1.95273797969797  0.42857865286529
 1  0.12109487948795 -0.82256220632063 -0.84786237023702

