%nproc=4
%Mem=2GB
# td=(NStates=1) CAM-B3LYP/6-31G(d,p) 

TD

0 1
 8  14.79666788578858 -2.14266173727373 -0.39471832483248
 8 -14.84259085608561  1.96836869286929  0.75147424142414
 6  11.45489878387839 -1.06740737483748  1.13048640964096
 6 -12.27108474047405 -0.90925348534854  0.84395991799180
 6  12.95554428642864 -1.40904394249425  0.99481705370537
 6 -13.55001761076108 -0.11104726472647  0.92856175217522
 6  13.39750174417442 -1.89776530363036 -0.31108599759976
 6 -13.49425176517652  1.38691148914891  0.67885966996700
 6  11.01966049204920 -0.35339955605561 -0.00579482548255
 6 -11.36561366236624 -0.25402643164316 -0.20171092509251
 6  13.15132935193519 -0.81252200930093 -1.27516838983898
 6 -12.88566932693269  1.69946792379238 -0.69791683368337
 6  11.74382912991299 -0.16857723082308 -1.17779629562956
 6 -11.66419000900090  0.80391671467147 -0.91574111311131
 6  11.28490921792179 -0.28646780488049  2.49061950295029
 6  10.60778021902190 -2.44957543864386  1.20958907890789
 6 -11.55280747474747 -0.79412124012401  2.23352193219322
 6 -12.58459916191619 -2.35401084408441  0.56970887488749
 6  9.61788661466147  0.26711774867487  0.13499017901790
 6 -10.10321168816882 -1.03954803980398 -0.34010269126913
 6  11.24271703670367  0.64448891379138 -2.34773898089809
 6 -10.89374181318132  1.34909529352935 -2.13483279027903
 6  9.35459542654265  1.57685112301230 -0.06067144114411
 6 -8.87308779377938 -0.57163072007201 -0.27535858185819
 6  8.05768175417542  2.16692643254325  0.18522419141914
 6 -7.61677681968197 -1.39068340144014 -0.42217754975498
 6  8.10059054005401  3.60249845474547  0.73342470847085
 6 -7.74218532453245 -2.83336308440844 -0.74639481448145
 6  6.88982438943894  1.50466045994599 -0.05023502950295
 6 -6.50692249524952 -0.57619309440944 -0.35936894289429
 6  5.56401695369537  1.89583729062906  0.18933384938494
 6 -5.11647276927693 -1.07126700280028 -0.51202337633763
 6  4.38943287428743  1.29329474337434 -0.09206483548355
 6 -4.06927234723472 -0.31467767386739 -0.34224155415542
 6  3.09172177717772  1.70860145804580  0.14125579057906
 6 -2.67118088208821 -0.75740007010701 -0.44404206420642
 6  2.87851813281328  3.15089453835384  0.55152786178618
 6 -2.37997349134913 -2.20931823392339 -0.77043808380838
 6  2.07347692269227  0.75284244814481 -0.12238136313631
 6 -1.61189251225123  0.05990569646965 -0.27147897489749
 6  0.60519768876888  0.95061982988299 -0.08465258525853
 6 -0.17503637263726 -0.15542764786479 -0.29294693469347
 1  13.56023529552955 -0.62941637673767  1.36596143414341
 1  13.12668790479048 -2.09325990709071  1.89229936193619
 1 -14.04548732573257 -0.32809296629663  1.96919412541254
 1 -14.36246761376138 -0.58024494749475  0.07435581558156
 1  12.79382458445845 -2.78428317141714 -0.63371143614361
 1 -12.88904436543654  1.79696421442144  1.40934040704070
 1  13.92193312531253 -0.08059077917792 -1.19166505050505
 1  13.06049754275428 -1.24201642874287 -2.29364004000400
 1 -13.59094463846385  1.55917723872387 -1.55747368036804
 1 -12.66473508050805  2.77157922192219 -0.91397828082808
 1  11.65092371237124 -0.94338506460646  3.47204186518652
 1  10.31236710171017  0.03156364626463  2.60152903390339
 1  11.99117838783878  0.55196492939294  2.25089422442244
 1  10.60139914291429 -2.68840942104210  0.09211459745975
 1  11.22382329932993 -3.19316423352335  1.71665158915892
 1  9.66031203220322 -2.30935192829283  1.75402034503450
 1 -11.61691859185919  0.31153672467247  2.43714760776078
 1 -10.56256076507651 -1.32361951695169  2.24916092009201
 1 -12.10315147414742 -1.55096600160016  2.84594719071907
 1 -13.44248402940294 -2.49080033203320  1.38919342834283
 1 -11.78620166816682 -2.96857888588859  0.65661071707171
 1 -12.90436079407941 -2.56165647364736 -0.62553102710271
 1  9.01175299929993 -0.37895621572157  0.67348153215322
 1 -10.26131586358636 -2.20200392439244 -0.32246187918792
 1  10.26320873987399  0.81520161806181 -2.27957266026603
 1  11.77446588158816  1.65398968986899 -2.10590030403040
 1  11.71370560556056  0.45331484438444 -3.42298942894289
 1 -11.64466547354736  1.58956218521852 -2.97919941294129
 1 -10.06562210121012  0.74827546454645 -2.51836644264426
 1 -10.39825158015802  2.39991860486049 -1.80544414041404
 1  14.92359891289129 -3.00033893899390 -0.02748085508551
 1 -15.62533196819682  1.65985089908991  1.40747895289529
 1  10.07844332633263  2.19911321522152 -0.27846716171617
 1 -8.67437413441344  0.58103020102010 -0.34481929492949
 1  8.89388225022502  4.13622347524752 -0.05244154715472
 1  7.21374476347635  4.04565997489749  0.55533136613661
 1  8.41057576757676  3.60153304020402  1.83830684868487
 1 -8.25438246824682 -3.22855978507851  0.16800096109611
 1 -8.36752250825083 -3.04327334143414 -1.57838416841684
 1 -6.60404925392539 -3.12395604770477 -0.79726651865187
 1  7.06111777477748  0.38509225212521 -0.57674106610661
 1 -6.73117337933793  0.40006984688469  0.02862048504850
 1  5.59802918691869  2.90889603750375  0.69556181118112
 1 -4.85212903290329 -2.09822112921292 -0.69489688968897
 1  4.65160825982598  0.26562480838084 -0.63034144514451
 1 -4.23802930693069  0.78899401630163  0.03180597659766
 1  3.45307309230923  3.42227626952695  1.45950215121512
 1  1.73842049504950  3.28410708160816  0.76330873887389
 1  3.37028105010501  3.64975280918092 -0.30460095609561
 1 -2.74406654365437 -2.70739788688869  0.02997995399540
 1 -3.07703721172117 -2.50722184228423 -1.67847181418142
 1 -1.35692249124913 -2.44371454655466 -1.02284532053205
 1  2.47984514251425 -0.34725337643764 -0.36323422742274
 1 -1.85623502450245  1.15994591249125 -0.21293790679068
 1  0.12273802080208  2.03752645854585 -0.13241744674467
 1  0.05407817781778 -1.28420837093709 -0.60589817381738

