%nproc=4
%Mem=2GB
# td=(NStates=1) CAM-B3LYP/6-31G(d,p) 

TD

0 1
 8  14.59957817681768 -2.32350982208221 -0.29975882888289
 8 -14.62214881188119  2.05575743174317  1.07887698169817
 6  11.40154344834484 -1.08471910601060  1.26085944694469
 6 -12.32667029902990 -0.85899845984598  0.90427594959496
 6  12.91231996399640 -1.41420445854585  1.24257182918292
 6 -13.60435304430443 -0.12028818881888  0.87081597759776
 6  13.22665465946595 -1.99974550165016 -0.16408129712971
 6 -13.39132147214722  1.34968776677668  0.86202798679868
 6  10.87265579157916 -0.31931614771477 -0.01963620962096
 6 -11.29748684968497 -0.33779480848085 -0.18255900990099
 6  13.01647586658666 -0.90238099519952 -1.26770764376438
 6 -12.67257801780178  1.72583056005601 -0.52323936593659
 6  11.69405415241524 -0.19673004610461 -1.10723923992399
 6 -11.50570416041604  0.83365968896890 -0.81283082208221
 6  11.05152587958796 -0.35435459355936  2.53237367836784
 6  10.60416985798580 -2.39764024512451  1.33955207520752
 6 -11.59578177217722 -0.81552338033803  2.31609018901890
 6 -12.61613231523152 -2.37638308130813  0.56127803180318
 6  9.63324815081508  0.43613465036504  0.16810349034904
 6 -10.12719408640864 -1.11205529052905 -0.33984266526653
 6  11.34489725472547  0.64142860776078 -2.31850605760576
 6 -10.71280371937194  1.46545692969297 -1.82103141014101
 6  9.38883885088509  1.75294873277328 -0.03593896789679
 6 -8.83761424642464 -0.57660121712171 -0.17064811081108
 6  8.06156214221422  2.38872861276128  0.12105777477748
 6 -7.58165330733073 -1.33634796789679 -0.60708604060406
 6  8.06103658465847  3.87431563646365  0.52726409240924
 6 -7.70611171717172 -2.81445119321932 -0.88787896289629
 6  6.86774218121812  1.66052604650465 -0.05960596659666
 6 -6.36658846184618 -0.66833230833083 -0.54449745574557
 6  5.52473302530253  2.06255396229623  0.18065298129813
 6 -5.09128025002500 -1.25875575167517 -0.68947112111211
 6  4.45338926992699  1.25538095199520 -0.02709833883388
 6 -4.09424484448445 -0.46444265036504 -0.59508683868387
 6  2.99497210221022  1.64560515841584  0.00621228622862
 6 -2.61153491749175 -0.84505883598360 -0.69908756875688
 6  2.66725700670067  3.10023947284728  0.35553826282628
 6 -2.33015850985099 -2.24981228332833 -1.12555359535954
 6  2.16403597859786  0.73019018291829 -0.12668179317932
 6 -1.68423974697470  0.01382108800880 -0.46527835483548
 6  0.71036820582058  0.88628339623962 -0.08519263926393
 6 -0.20350921992199 -0.11830393549355 -0.41831947194719
 1  13.68277754975498 -0.62673610871087  1.47063190119012
 1  12.97135237123712 -2.27412799389939  2.10313044504450
 1 -14.04193697069707 -0.61397155415542  1.76874408040804
 1 -14.09561092809281 -0.49253617661766  0.17107548754875
 1  12.69547474947495 -3.04911965506551 -0.36064412941294
 1 -12.55803126412641  1.65511002900290  1.64153362636264
 1  13.91414234623462 -0.28758147824782 -0.99727561156116
 1  13.04154564756476 -1.40093232033203 -2.17072774877488
 1 -13.33517906190619  1.78933025402540 -1.45307324032403
 1 -12.37633624062406  2.91607367136714 -0.53596047904791
 1  11.17495611561156 -0.99791051715172  3.48321298229823
 1  10.00787665266527  0.13907439733973  2.43094197519752
 1  11.79178844884488  0.48414814771477  2.37180631563156
 1  10.34229323232323 -2.78977955805581  0.30583596959696
 1  10.99737065406541 -3.20043496059606  2.16340626462646
 1  9.57366336733673 -2.05672666576658  1.49848479147915
 1 -11.32828972897290  0.36578214921492  2.39733362636264
 1 -10.80400490949095 -1.66930408540854  2.45107111111111
 1 -12.36502766176618 -0.96481738673867  3.03658625462546
 1 -13.59939972097210 -2.63022427442744  1.11839634863486
 1 -11.76098914691469 -2.96623865186519  1.12448750475047
 1 -12.83366372437244 -2.56251655965597 -0.60330880488049
 1  8.88932075607561 -0.25533385348535  0.60542472647265
 1 -10.22766249824983 -2.19406313031303 -0.56867650065007
 1  10.31877429642964  0.84872497039704 -2.36148085108511
 1  12.02526096109611  1.53226751765177 -2.66165587958796
 1  11.40882511751175 -0.08117860496050 -3.27496462646265
 1 -11.23337434443444  1.84690791979198 -2.63860535353535
 1 -10.10460599959996  0.83980461746175 -2.38970357635764
 1 -10.19742149714972  2.29343795679568 -1.38364196019602
 1  14.92537909090909 -2.91815072017202  0.50209210221022
 1 -14.90292972797280  1.58343325732573  1.79532773777378
 1  10.29968545054505  2.29764306820682 -0.49377869286929
 1 -8.58723542054205  0.50629272727273  0.30271545854586
 1  8.82180504250425  4.50303015591559 -0.12496879987999
 1  7.05062845184518  4.26987239613961  0.20190602360236
 1  8.31456616661666  3.90943383028303  1.59489250725072
 1 -8.40018704870487 -3.29579650875087 -0.07866370537054
 1 -8.24780053605360 -2.94390340444044 -1.90161649164917
 1 -6.71072992199220 -3.16248990109011 -1.06586337833783
 1  7.11301296429643  0.53920766366637 -0.52920631263126
 1 -6.22043230523052  0.43791363126313 -0.20000237723772
 1  5.25933531753175  3.11558670657066  0.68596085108511
 1 -4.91480530053005 -2.24465577267727 -0.87679507950795
 1  4.60303340234023  0.18013625952595 -0.51347975897590
 1 -4.42724822882288  0.62403752065207 -0.40325752975298
 1  3.33199098409841  3.35515955785579  1.13570977197720
 1  1.57054370737074  3.25961463236324  0.65119752775278
 1  3.00523454545454  3.86279411331133 -0.42561305730573
 1 -2.55458759575958 -2.86029317641764 -0.10941398539854
 1 -3.08455796379638 -2.79196031613161 -1.84234820182018
 1 -1.29245604460446 -2.48494866996700 -1.12876591259126
 1  2.58658581658166 -0.17185583668367 -0.59801770577058
 1 -2.03448284928493  0.93144306220622 -0.25530214321432
 1  0.31941768876888  2.00539324522452  0.09357515251525
 1  0.34585735573557 -1.11900185028503 -0.66384396839684

