%nproc=4
%Mem=2GB
# td=(NStates=1) CAM-B3LYP/6-31G(d,p) 

TD

0 1
 8  14.76943516251625 -2.17355482658266 -0.40059891289129
 8 -14.86374297129713  1.89683153915392  0.84166326032603
 6  11.50536383038304 -1.11413204730473  1.24819818081808
 6 -12.39959759175917 -0.95375793579358  0.81445696769677
 6  13.07139587158716 -1.47216025412541  1.06390396239624
 6 -13.71577418641864 -0.23073923392339  0.82457135313531
 6  13.38109010301030 -1.98310383748375 -0.30724561356136
 6 -13.64806714671467  1.34302710071007  0.76448823282328
 6  10.94812333833383 -0.26896111221122  0.05037079107911
 6 -11.32576967796780 -0.30867189618962 -0.16412716671667
 6  12.92475669466947 -0.92764352145215 -1.24504537753775
 6 -12.89956071607161  1.64897287428743 -0.45863290529053
 6  11.68406315331533 -0.21273164626463 -1.01584010001000
 6 -11.61154474447445  0.84589091209121 -0.78716825582558
 6  11.32405313231323 -0.38221737983798  2.63382382338234
 6  10.81094053505351 -2.51043152425243  1.39600772077208
 6 -11.75919811381138 -0.87331915991599  2.26731531153115
 6 -12.69803050505051 -2.40571601460146  0.51820372437244
 6  9.74084891089109  0.37469850675068  0.28995567556756
 6 -10.12521388838884 -1.08111219621962 -0.33353203420342
 6  11.08913167816782  0.50350481538154 -2.24222842984298
 6 -10.79943238223822  1.43684406840684 -1.86071537853785
 6  9.33244321132113  1.61407484538454 -0.14544991899190
 6 -8.90515100010001 -0.44202775977598 -0.33606465246525
 6  8.04861084708471  2.25866560646065  0.07669333833383
 6 -7.60339548154816 -1.21009534263426 -0.55515084708471
 6  8.03009349034904  3.71380958585859  0.35839720572057
 6 -7.73848495449545 -2.65642539063906 -0.83806398139814
 6  6.91897730473047  1.48631862576258  0.01036103010301
 6 -6.43860566356636 -0.54352982808281 -0.41812481848185
 6  5.55563611561156  2.01144885178518  0.20356527252725
 6 -5.15193631563156 -1.09830970707071 -0.60830300430043
 6  4.51865579657966  1.33105851975198 -0.17276290529053
 6 -3.96171159115912 -0.41579778587859 -0.31017834783478
 6  3.19035164016402  1.79804040194019  0.00958262326233
 6 -2.56680044404440 -0.80867519761976 -0.46964462446245
 6  2.85005528652865  3.13375282418242  0.36124883388339
 6 -2.23739923392339 -2.20015731783178 -1.02792383238324
 6  2.20481005600560  0.82332949684969 -0.31959108410841
 6 -1.60421174417442  0.08677838373837 -0.14985681268127
 6  0.76233340234023  0.98724349224922 -0.06053017301730
 6 -0.15207407640764 -0.01997410251025 -0.35316295629563
 1  13.67184645664567 -0.47026046114611  1.09009384738474
 1  13.36003123912391 -2.01971255235524  1.98424855685569
 1 -14.63280605760576 -0.66816697369737  1.51536874287429
 1 -14.29811117811781 -0.45415233823382 -0.00098171817182
 1  12.98881408340834 -2.85312005510551 -0.59405747074707
 1 -13.11315677667767  1.77199171717172  1.55355482848285
 1  13.91533246524653 -0.05646836693669 -1.31539742374238
 1  12.99353084608461 -1.42528475557556 -2.32810348634864
 1 -13.35292083608361  1.83539486048605 -1.30347828082808
 1 -12.83675228222822  2.58689075307531 -0.27472435543554
 1  11.72197081708171 -0.70375110121012  3.48605326632663
 1  10.31603746874688 -0.44470398049805  2.57825670667067
 1  11.69756902690269  0.72170190309031  2.60749988498850
 1  10.96597560056006 -3.16972755285529  0.47567295329533
 1  11.16379729672967 -3.41051596869687  2.21290121412141
 1  9.62999900090009 -2.47461845494550  1.70865580858086
 1 -11.86418331833183  0.12955852685269  2.53496738973897
 1 -10.59730423942394 -1.15621277627763  2.05196120012001
 1 -12.44582574157416 -1.66887779277928  2.94637723372337
 1 -13.29592937393739 -2.91262251425142  1.17553206220622
 1 -11.85347839583958 -3.02659468746875  0.94191924792479
 1 -12.83963432143215 -2.61041134913491 -0.36951542554255
 1  9.09081090509051 -0.33406172627263  1.08074225822582
 1 -10.18218795079508 -2.03838756275628 -0.67632726572657
 1  9.98055047404740  0.53680377827783 -2.07446214921492
 1  11.58356679167917  1.49713400430043 -2.46892660666067
 1  11.03777801280128 -0.06764725182518 -3.20459758975898
 1 -11.48303931093109  1.69209243824382 -2.57003849684969
 1 -10.01717725672567  0.62763340034003 -2.23985859185919
 1 -10.21105286028603  2.42900151315131 -1.60634423042304
 1  15.02728928192819 -2.72810171527153  0.37809970297030
 1 -15.19583901890189  1.58152306630663  1.66694489948995
 1  10.00604608660866  2.43547685158516 -0.43837315231523
 1 -8.79334603160316  0.58929102710271  0.04414960196020
 1  8.80571343334333  4.32068192109211 -0.00633693669367
 1  7.04189757875788  4.19781519041904  0.10231606460646
 1  8.18398310831083  3.84252713961396  1.46817983598360
 1 -8.14055108510851 -3.32068899799980 -0.07656349534953
 1 -8.25769152515251 -2.73468248234823 -1.89574590459046
 1 -6.79497834683468 -3.12485613771377 -1.12231902390239
 1  7.11916357935794  0.40975471837184 -0.20765415741574
 1 -6.60332059405941  0.56799663956396 -0.16272864986499
 1  5.34088347234723  3.00974612251225  0.51219347434744
 1 -4.83514733473347 -2.08302961006101 -1.09048644864487
 1  4.77522062106211  0.28985723162316 -0.36057446844685
 1 -4.02024752875288  0.47375249214922  0.05099789578958
 1  3.18222600760076  3.37773181508151  1.37812401340134
 1  1.87604425742574  3.45931460236024 -0.04204179617962
 1  3.42417643964396  3.77398523242324 -0.26112660866087
 1 -2.91262339933993 -2.81231837893789 -0.26462950695070
 1 -2.55511501950195 -2.17552867296730 -1.93756772377238
 1 -1.08637543654365 -2.66842701780178 -0.80701373737374
 1  2.28124528252825 -0.24890354145415 -0.67339524352435
 1 -1.96209561056106  1.07276719461946  0.26216960396040
 1  0.30708645564557  1.85980868676868  0.25868166316632
 1  0.08463123312331 -0.98187813791379 -1.08176576057606

