%nproc=4
%Mem=2GB
# td=(NStates=1) CAM-B3LYP/6-31G(d,p) 

TD

0 1
 8  14.74839305830583 -2.30800827192719 -0.39953880688069
 8 -14.84033063006301  1.95443729972997  0.67204629862986
 6  11.52203549754975 -1.12278291239124  1.23266662766277
 6 -12.36767439943994 -0.93927648764876  0.75862138413841
 6  13.03250198219822 -1.57026006410641  0.95903347534753
 6 -13.66783939293929 -0.17199335933593  0.67696659265927
 6  13.27900989498950 -2.02703823092309 -0.31873676267627
 6 -13.59925226522652  1.28906170417042  0.67613939793979
 6  11.07749627562756 -0.22021623772377 -0.01739598559856
 6 -11.36359346034603 -0.37158818781878 -0.22687344134413
 6  13.01204542354235 -0.92435319241924 -1.30815168816882
 6 -12.81917267726773  1.65360333733373 -0.62256929892989
 6  11.73782852985298 -0.21101147424742 -1.16194471047105
 6 -11.58190178017802  0.79913623662366 -0.82034157315732
 6  11.32499322632263 -0.33621277937794  2.55486592759276
 6  10.57612705370537 -2.43610409150915  1.23190131013101
 6 -11.86486868086809 -0.99149097709771  2.21245982598260
 6 -12.66722742474247 -2.35111055405541  0.29065096909691
 6  9.62771759775978  0.37991902880288  0.16349302930293
 6 -9.98923029002900 -1.06197028202820 -0.42396107710771
 6  11.29383214821482  0.62281674657466 -2.33196740374037
 6 -10.66933937293729  1.38941932593259 -1.87478678567857
 6  9.34516448344834  1.62844628252825 -0.13094846884688
 6 -8.81467195219522 -0.64586814381438 -0.25129617561756
 6  8.14098008400840  2.21083082298230  0.11152682168217
 6 -7.54969011101110 -1.30245457855786 -0.35308064006401
 6  8.13102358335834  3.72740094499450  0.48378974497450
 6 -7.73231433743374 -2.68640838893889 -0.67655783078308
 6  6.91992739973997  1.60263025692569 -0.12296230223022
 6 -6.40892269526953 -0.64525000010001 -0.15002800880088
 6  5.59212976497650  2.07320502740274 -0.07301238523852
 6 -5.06172729472947 -1.12992286838684 -0.32341451545155
 6  4.39319325032503  1.40499591349135 -0.22860848984898
 6 -4.08523394339434 -0.25495170127013 -0.25441277127713
 6  3.02109471447145  1.77919851775178  0.00379204420442
 6 -2.61936570057006 -0.68283261336134 -0.37819547954795
 6  2.75564584558456  3.04524397329733  0.68901161016102
 6 -2.33683917791779 -2.06892419451945 -0.69289032903290
 6  2.04830440544054  0.89459662356236 -0.15291441644164
 6 -1.63579490249025  0.28434814071407 -0.14886671367137
 6  0.59101627062706  0.96368113601360  0.03088896889689
 6 -0.21490035903590 -0.04188629372937 -0.27697533753375
 1  13.56318559055906 -0.73626706180618  1.50783562156216
 1  13.33333856985699 -2.34236481758176  1.59944007600760
 1 -14.47811058805881 -0.35987614461446  1.51964917091709
 1 -14.25331669866987 -0.39619654265427 -0.33818543854385
 1  12.65480068206821 -2.88893363646365 -0.67807587258726
 1 -12.95548100910091  1.71924644264426  1.46432590559056
 1  13.95960689268927 -0.33596631673167 -1.30454633863386
 1  13.02902439543954 -1.42372459955996 -2.14919559555956
 1 -13.53481902590259  1.52560388138814 -1.34208214121412
 1 -12.53696230323032  2.56862892689269 -0.51579846284628
 1  11.58899751975198 -1.18734946104610  3.45727038803880
 1  10.25722158715872  0.07672816271627  2.66128500950095
 1  12.15378464846485  0.37168690159016  2.64533366836684
 1  10.48910791379138 -3.03305388548855  0.24974036003600
 1  10.89710062706271 -3.22394731183118  1.98654857885789
 1  9.55133113411341 -2.09513050615061  1.86523146614661
 1 -12.04122102210221  0.01241681268127  2.96823071607161
 1 -10.85818032703270 -1.38296545154516  2.23938994299430
 1 -12.49556071507151 -1.82545345034503  2.64843743974397
 1 -13.38883866486649 -2.98408966096610  0.75149965896590
 1 -11.74411745974597 -3.05171719971997  0.48945400140014
 1 -12.52932329032903 -2.47591789978998 -0.86952542654265
 1  9.11182300630063 -0.29607792789279  0.65253943794379
 1 -9.88572830483048 -2.14229795379538 -0.61055068806881
 1  10.20956337533753  0.68881897979798 -2.28265296829683
 1  11.86294472947295  1.50087437833783 -2.48412812681268
 1  11.67858209320932 -0.15827631473147 -3.21229835983598
 1 -11.18117912491249  2.09807303630363 -2.58955044804481
 1 -9.96779231823182  0.58620925792579 -2.40452505850585
 1 -9.88406016101610  2.07831644464446 -1.56797039303930
 1  14.98607516051605 -3.18808771387139  0.15101699469947
 1 -15.28579801480148  1.42917783178318  1.40550875587559
 1  10.22461794379438  1.95298860276028 -0.31213052805281
 1 -8.88235493249325  0.26582868086809  0.16801198819882
 1  8.74714757675768  4.08470832373237 -0.28620492349235
 1  6.99341273027303  4.16060146904691  0.42177801080108
 1  8.69310402040204  3.86349923682368  1.52366538453845
 1 -7.98765579557956 -3.30404733383338  0.14762892389239
 1 -8.33510926692669 -2.74194320842084 -1.59984631463146
 1 -6.67901675067507 -3.01796544864486 -0.83560035203520
 1  7.07244890789079  0.59501324422442 -0.60893428542854
 1 -6.42684294629463  0.36804664456446  0.02860048304831
 1  5.82436182018202  3.17246239413941  0.28884113911391
 1 -4.93841766176618 -2.32889419651965 -0.25811321132113
 1  4.49269236823682  0.22720096599660 -0.24172258325833
 1 -4.19775527952795  0.71266638353835 -0.07808501250125
 1  3.17488527352735  3.10652469436944  1.61310751175118
 1  1.81318797179718  3.43794246514651  0.60065247324733
 1  3.48918294029403  3.87432526642664  0.28751825582558
 1 -2.98101023802380 -2.67539468656866 -0.10510355435544
 1 -2.82118162616262 -2.36111723182318 -1.54678864586459
 1 -1.22537933693369 -2.38965914101410 -0.76327936393639
 1  2.35596275427543 -0.26753540464046 -0.53102100610061
 1 -2.04696409740974  1.19531944984498 -0.00480709370937
 1  0.28080382738274  1.83470617651765  0.39750554555455
 1  0.13497626762676 -1.06719666976698 -0.30807839183918

