%nproc=4
%Mem=2GB
# td=(NStates=1) CAM-B3LYP/6-31G(d,p) 

TD

0 1
 8  14.77188540754075 -2.26978444954495 -0.60805965896590
 8 -14.78370496749675  2.03981583758376  0.43526262026203
 6  11.47307060106011 -1.14192482658266  1.14367772877288
 6 -12.28164579657966 -0.90909346934693  0.80997651965197
 6  12.92821155315532 -1.63540657875788  1.01027859985999
 6 -13.64050665966597 -0.17122328232823  0.80893978997900
 6  13.37412940694069 -1.98553408050805 -0.46902179117912
 6 -13.49852219221922  1.34216701470147  0.58304008800880
 6  11.03546207220722 -0.28672288838884  0.00824657865787
 6 -11.40383748474847 -0.34879590859086 -0.24626538053805
 6  12.99259347834783 -0.79276003310331 -1.40615148814881
 6 -12.86075683568357  1.58737671467147 -0.77285432743274
 6  11.65725047204721 -0.22322269536954 -1.17944646064606
 6 -11.66627021702170  0.78766508950895 -0.88889842884288
 6  11.18613934093409 -0.37492665076508  2.41784222522252
 6  10.61636107710771 -2.43145362646265  1.26490461046105
 6 -11.59940213421342 -0.45849767776778  2.31968054805481
 6 -12.38757945994599 -2.44106954995500  0.75273717771777
 6  9.68684351035104  0.33052408930893  0.13494017401740
 6 -10.05969733673367 -1.05719980498050 -0.52956163716372
 6  11.21221398639864  0.58709317421742 -2.38430263726373
 6 -10.76787922692269  1.29999038303830 -2.09020832783278
 6  9.43406337333733  1.66467990589059  0.01404603060306
 6 -8.90049053405341 -0.60509406640664 -0.18372941894189
 6  7.99421540754075  2.32754249414942  0.31946761576158
 6 -7.62289743174317 -1.36560089318932 -0.49186451845185
 6  8.20212069306931  3.74513271817182  0.66750811681168
 6 -7.63259436543654 -2.85267501560156 -0.72375255025503
 6  6.85374078107811  1.65745573947395 -0.02016202220222
 6 -6.46296809980998 -0.68458393349335 -0.24288729472947
 6  5.53109366136614  2.12145985288529  0.19352426842684
 6 -5.11323244524452 -1.16794667076708 -0.36769894389439
 6  4.41913584458446  1.34967038093809 -0.11465709470947
 6 -3.97539295929593 -0.40506671277128 -0.30448777877788
 6  3.08452105710571  1.71602220012001  0.20972263726373
 6 -2.65128889288929 -0.73288761886189 -0.47649530953095
 6  2.80281056205621  3.11724117301730  0.70462317131713
 6 -2.37492298629863 -2.22292959505951 -0.87526856685669
 6  2.05507508250825  0.80005716961696 -0.06763588858886
 6 -1.66003732673267  0.12569227512751 -0.11870369736974
 6  0.64924209320932  0.82702747064706  0.14749062906291
 6 -0.26996586558656 -0.06888899399940 -0.30624826482648
 1  13.54204347634763 -0.85448888398840  1.14165900390039
 1  13.32946818281828 -2.27075765686569  1.69204933693369
 1 -14.32399517651765 -0.42310246724672  1.71965917191719
 1 -14.26968833583358 -0.65563248624862 -0.00708232823282
 1  12.70962616461646 -2.79471421452145 -0.66305437043704
 1 -12.73167862886289  1.93755827382738  1.37912738573857
 1  13.76024695669567  0.05681296119612 -1.30398628262826
 1  13.19994148714872 -1.07216944404440 -2.35184586058606
 1 -13.58017356135614  1.57354867586759 -1.56277421042104
 1 -12.57353596059606  2.69346141014101 -0.79975685868587
 1  11.58425704570457 -0.76832755885589  3.36941160216022
 1  10.11230709570957 -0.51853136323632  2.70636951795180
 1  11.49194846484648  0.52087182008201  2.41894102910291
 1  10.74558356135613 -3.13735431553155  0.33648903490349
 1  10.95772668966897 -3.10831574867487  2.14730465446545
 1  9.51404740574057 -2.18663965706571  1.20205514851485
 1 -11.69717661766177  0.59399497049705  2.57538143114311
 1 -10.42759726872687 -0.79743689868987  2.51531753575358
 1 -12.02962412141214 -0.76775768076808  3.28742133813381
 1 -13.04593437443744 -2.88302955495550  1.63142765176518
 1 -11.55761880988099 -2.99505153315332  0.65700075607561
 1 -12.94458481648165 -2.44860516851685 -0.26760523452345
 1  8.76229805380538 -0.19662798289829  0.41741592559256
 1 -10.03488322032203 -2.02367609160916 -0.98950858385839
 1  10.09546196519652  1.12072217011701 -2.35888059105911
 1  12.07799623462346  1.40079437033703 -2.56741645564557
 1  11.25412964796480 -0.07636812391239 -3.23961109110911
 1 -11.46846785378538  1.38590181918192 -3.06916840984098
 1 -10.07166270527053  0.49441007800780 -2.19270387638764
 1 -10.31239299429943  2.34596320932093 -2.02332592859286
 1  14.97605415841584 -2.77517642274227  0.22670456345635
 1 -15.34676411141114  1.76250116411641  1.18268647364736
 1  10.15522100410041  2.37248055195520 -0.21164047904790
 1 -8.78998569556956  0.36692879087909  0.13186837383738
 1  8.48906176817682  4.55016486938694 -0.08984528752875
 1  7.29995338433843  4.25661107000700  1.04038987198720
 1  8.82271698169817  3.75636852375237  1.46645966396640
 1 -8.15227225722572 -3.29677660676068 -0.01172701170117
 1 -8.18945470147015 -3.06839585368537 -1.79727605760576
 1 -6.52244109310931 -3.33163681578158 -0.69340613261326
 1  7.02914457745775  0.53810755365537 -0.34001739373937
 1 -6.55146540854085  0.44231407130713 -0.00806318331833
 1  5.42899228322832  3.23982913081308  0.62977523252325
 1 -5.02444626462646 -2.22269357645765 -0.59831723172317
 1  4.40542364136414  0.22739098499850 -0.50514892589259
 1 -4.22994849884989  0.63560867776778  0.04852764876488
 1  3.45092287728773  3.40354439633963  1.60205640664066
 1  1.71475812881288  3.38308697959796  0.98776118411841
 1  3.01844586658666  3.86339417331733  0.09529903390339
 1 -2.68121025802580 -2.96299344644464 -0.24462750675068
 1 -2.90027953595359 -2.35850697079708 -1.72700666766677
 1 -1.29948674767477 -2.47998817391739 -1.07196023202320
 1  2.50444760276028 -0.10866951805181 -0.52633053705371
 1 -1.85682508350835  1.12406232413241  0.36121950895090
 1  0.16940268726873  1.81487419331933  0.76843263826383
 1  0.05151792179218 -1.10946089618962 -0.75384296829683

