%nproc=4
%Mem=2GB
# td=(NStates=1) CAM-B3LYP/6-31G(d,p) 

TD

0 1
 8  14.93342156115612 -1.93849132023202 -0.49097795079508
 8 -14.80157675467547  2.12753460946095  0.51177027102710
 6  11.68057135113511 -1.09558019211921  1.17300066106611
 6 -12.37506513851385 -0.92971553155316  0.66393191519152
 6  13.21716044804480 -1.25097813591359  1.02711028302830
 6 -13.70887349634963 -0.00293645364536  0.56811570757076
 6  13.61610360436044 -1.67576310341034 -0.38166305530553
 6 -13.52442478247825  1.44178697669767  0.62165394939494
 6  11.01732025802580 -0.33083729982998 -0.02685693169317
 6 -11.37189429042904 -0.27503853285329 -0.15483623762376
 6  13.09102332133213 -0.79560031713171 -1.43589446244624
 6 -12.74154491449145  1.88162613961396 -0.69083612561256
 6  11.70505525252525 -0.14179455255526 -1.10637915391539
 6 -11.56251984198420  0.94381070407041 -0.77323686268627
 6  11.40757148414841 -0.21508066616662  2.46789723072307
 6  11.06328576957696 -2.51456193729373  1.28771689168917
 6 -12.08239043304330 -0.81049287728773  2.21293987398740
 6 -12.74462516451645 -2.36266170917092  0.25715761976198
 6  9.63834866086609  0.29782081898190  0.08105478547855
 6 -10.09180054705470 -1.02149623462346 -0.34276295729573
 6  11.00782354735474  0.51565603050305 -2.31309551655166
 6 -10.51590402940294  1.46938732273227 -1.84188349534953
 6  9.36930689768977  1.59859329722972 -0.10681605560556
 6 -8.81657214221422 -0.55137869486949 -0.07782882888289
 6  7.92758874487449  2.15217495739574  0.09904557355736
 6 -7.59240438243824 -1.40801513461346 -0.34689002100210
 6  8.02845332633263  3.66360456535654  0.24619598559856
 6 -7.84551565756576 -2.82421216931693 -0.90262043704370
 6  6.86691209820982  1.40784077797780 -0.01894190019002
 6 -6.55509731273127 -0.65714118921892 -0.03651665766577
 6  5.49487003900390  1.96549425632563  0.18421333733373
 6 -5.18751987398740 -1.18350822692269 -0.35484765876588
 6  4.36246017701770  1.14230964486449  0.12913728472847
 6 -4.03391881188119 -0.35348155425543 -0.14576190619062
 6  3.01279388438844  1.47869846774677  0.35532719771977
 6 -2.69187295129513 -0.88031236133613 -0.35380304030403
 6  2.78405868686869  2.97705715461546  0.52851556055606
 6 -2.46983247724773 -2.29970727282728 -0.88429946994699
 6  2.08393796879688  0.59090625452545  0.08217909290929
 6 -1.69987131013101  0.01697140304030 -0.07063889088909
 6  0.66549371837184  0.68980374827483  0.07547342734273
 6 -0.29958882788279 -0.18786089118912 -0.22430007000700
 1  13.53891316331633 -0.28379181428143  1.20678551655166
 1  13.48597383338334 -2.07709829092909  1.83548368036804
 1 -14.25005778277828 -0.47297745474547  1.51358856485649
 1 -14.35361672867287 -0.18668559155916 -0.34834645464546
 1  13.04125932793279 -2.71291603470347 -0.42552061706171
 1 -12.90010547154716  1.87388190619062  1.59195866886689
 1  13.69496042804280 -0.00993371347135 -1.42666855085509
 1  13.20529202220222 -1.10384261136114 -2.50118079407941
 1 -13.32535807980798  1.83140446144614 -1.35789372237224
 1 -12.33576218321832  2.91083314731473 -0.79377626062606
 1  11.90449906990699 -0.90697142324232  3.34068872987299
 1  10.12060792579258 -0.08336784688469  2.46088496949695
 1  12.03343261326133  0.74963469636964  2.44803393839384
 1  11.08707771077108 -3.16471705180518  0.31749713571357
 1  11.32299321632163 -2.97992290939094  2.13958388238824
 1  10.07566356735674 -2.25435642874287  1.09441438443844
 1 -11.98969586958696  0.27993356435644  2.41808570157016
 1 -11.04877938693869 -1.37553470847085  2.22145814981498
 1 -12.80063122212221 -1.25227613261326  3.00762335833583
 1 -13.63642342334233 -2.74525577757776  0.79984449344935
 1 -12.07912096009601 -3.22086411441144  0.34250930693069
 1 -13.03655401340134 -2.38275858385839 -0.81708018201820
 1  8.88523034703470 -0.65097341744174  0.37724190819082
 1 -10.26115584758476 -2.20461418541854 -0.53114274727473
 1  10.03887630663066  0.56092619051905 -2.19806450945095
 1  11.37901633663366  1.95918020892089 -2.47220693469347
 1  11.39999423442344  0.12506201910191 -3.35613274327433
 1 -10.99054006100610  1.62945617461746 -2.72635412841284
 1 -9.67566310531053  0.62438307530753 -1.98032263826383
 1 -10.29186094109411  2.47666627962796 -1.28855245124512
 1  15.19073562656266 -2.61868077317732  0.01095298829883
 1 -15.27026646164616  1.62629754375438  1.26404460946095
 1  10.03779926192619  2.52144544844484 -0.60915023002300
 1 -8.50790748774877  0.48349044704470  0.34414960196020
 1  8.71993485548555  4.16437629052905 -0.51219752275227
 1  7.19319270827083  4.25790119901990  0.45786161916192
 1  8.63577828782878  3.79880276717672  1.19228224622462
 1 -8.76824385438544 -3.26956388548855 -0.41975781478148
 1 -8.14050980698070 -2.64235324942494 -1.96226255625563
 1 -6.90404925392539 -3.48165181728173 -0.84342113411341
 1  7.12928459145915  0.40848459135914 -0.21585497749775
 1 -6.69558982098210  0.26422626252625  0.16969459245925
 1  5.39717910191019  2.95415056295630  0.48556081108111
 1 -4.97965178517852 -2.12529383648365 -0.84218161816182
 1  4.32881598059806  0.19609785568557 -0.32112052305231
 1 -4.20318582258226  0.68754387128713  0.13967676367637
 1  3.18001578657866  3.41122516441644  1.53782998399840
 1  1.67140379337934  3.57335600650065  0.18974138213821
 1  3.59290331233123  3.50220805470547 -0.30749124512451
 1 -2.76591872887289 -3.04721186828683 -0.14574761876188
 1 -2.91059056705671 -2.62462358245825 -1.87019098609861
 1 -1.29737653665367 -2.50141031613161 -1.09947298329833
 1  2.43322048004800 -0.30800945204520 -0.22873077707771
 1 -1.80686008700870  0.93463338123812  0.19798318531853
 1  0.28214396139614  1.76895960186019  0.17699349434943
 1 -0.08465569556956 -1.17319726982698 -0.48303588758876

