%nproc=4
%Mem=2GB
# td=(NStates=1) CAM-B3LYP/6-31G(d,p) 

TD

0 1
 8  14.66762498149815 -2.28021549264926 -0.34218307130713
 8 -14.75578217521752  2.01141299729973  0.97809690369037
 6  11.41264455845585 -1.06977761186119  1.29041240224022
 6 -12.24563219521952 -0.92827538753875  0.84953047504750
 6  12.91725045704571 -1.49456249434943  1.13504107610761
 6 -13.63013562256226 -0.18673483348335  0.89274817081708
 6  13.24691668566857 -1.96482200930093 -0.19983487248725
 6 -13.47004934493449  1.32050484848485  0.85214699869987
 6  11.01138966496650 -0.27033124922492  0.00101585558556
 6 -11.31891899289929 -0.28684971397140 -0.14747550155015
 6  13.01201542054205 -0.85644640174017 -1.19339021202120
 6 -12.82279303930393  1.60477845484548 -0.45696273827383
 6  11.64258900590059 -0.22393276637664 -1.16290480648065
 6 -11.59707329732973  0.82546886988699 -0.80528006700670
 6  11.16038676567657 -0.16123528162816  2.60644108510851
 6  10.61882132313231 -2.26932741384138  1.39418753875388
 6 -11.52638483248325 -0.82636446444644  2.20513909390939
 6 -12.63667436943694 -2.33196863986399  0.42616452045205
 6  9.61413623962396  0.33173421032103  0.10257693769377
 6 -10.07296866386639 -1.10740482548255 -0.40125880688069
 6  11.19827259225923  0.48021248614862 -2.36946115311531
 6 -10.73155559455946  1.44057444144414 -1.99956926392639
 6  9.41027099409941  1.62608604650465 -0.05417079107911
 6 -8.83727421242124 -0.55376893389339 -0.34677572357236
 6  7.98846483248325  2.24491423132313  0.01035670467047
 6 -7.65667080908091 -1.21927626072607 -0.49238457045705
 6  8.13399388038804  3.75045325022502  0.50598196419642
 6 -7.67169827582758 -2.63756350445045 -1.04266444144414
 6  6.83785919291929  1.60301029492949 -0.07324733073307
 6 -6.44805660866087 -0.62459793489349 -0.31949495549555
 6  5.52927347934793  2.05625333223322  0.12413732973297
 6 -5.09080020202020 -1.12966284238424 -0.48089026302630
 6  4.42455638663866  1.26932234613461 -0.01345697469747
 6 -3.98566398639864 -0.36010221632163 -0.34160149014901
 6  3.05496810181018  1.67646824472447  0.03179484448445
 6 -2.57442120612061 -0.87857218731873 -0.51918957895790
 6  2.75127540854085  3.02496194509451  0.51623433243324
 6 -2.32694818881888 -2.25458276037604 -0.90308134813481
 6  2.13338291329133  0.71582874677468 -0.19009813481348
 6 -1.57132845584558  0.03461316721672 -0.36269809680968
 6  0.69277644664466  0.83363813171317 -0.13431755175518
 6 -0.12948181718172 -0.11006311141114 -0.44015165516552
 1  13.44985425742574 -0.63709714481448  1.42748758675868
 1  13.19927516351635 -2.10765134623462  1.80889102110211
 1 -14.29948272527253 -0.34583474047405  1.80278748474848
 1 -14.44274564156416 -0.38454537753775  0.09227760776078
 1  12.67504270627063 -2.87816255935594 -0.51067913291329
 1 -12.89195465646565  1.52346686468647  1.80972044504450
 1  13.79671060306031 -0.10865358545855 -1.17552343634363
 1  13.20781227422742 -1.36342856995700 -2.26828750475048
 1 -13.56623216721672  1.51508282928293 -1.02823075607561
 1 -12.48613722072207  2.66397846184619 -0.36270315331533
 1  11.90072869286929 -0.49467019311931  3.29943460446045
 1  10.10326619161916 -0.34838434853485  2.84585346634663
 1  11.42904217421742  0.94216394929493  2.41444057905791
 1  10.67608661166117 -3.06433701380138  0.47319270527053
 1  10.95437635463546 -2.86161107820782  2.24917484148415
 1  9.51447744874488 -2.22242323542354  1.59272421542154
 1 -11.45388228822882  0.26170174117412  2.42491638463846
 1 -10.51793630263026 -0.99942709770977  2.20427643164316
 1 -12.00675183418342 -1.44965587058706  2.96140873687369
 1 -13.53659344034403 -2.69881113311331  1.19568407740774
 1 -11.78602165016502 -3.04732676067607  0.49503455945595
 1 -12.86116647464747 -2.45062537053705 -0.61647012101210
 1  8.89324114811481 -0.23194151425143  0.46948113211321
 1 -10.18602833483348 -2.16006973097310 -0.78867850085008
 1  10.05254767376737  0.99841993989399 -2.15637034003400
 1  12.04885332033203  1.41152544344434 -2.78245795979598
 1  11.10545478047805  0.07229674257426 -3.30730786078608
 1 -11.45861686868687  1.79527275627563 -2.78344983798380
 1 -10.01633717271727  0.84385502250225 -2.36938154415442
 1 -10.38724047904790  2.35094370737074 -1.53646724272427
 1  14.86051260426043 -3.14048295339534  0.08059995299530
 1 -14.95782521752175  1.76354126812681  1.92306051105111
 1  10.28335381738174  2.23832713661366 -0.34344365936594
 1 -8.67914461146115  0.43049514751475  0.11649683668367
 1  8.84299716171617  4.18331818471847 -0.18626492949295
 1  7.26080946994699  4.33940934983498  0.81110694369437
 1  8.54298900890089  3.69237212411241  1.51509452745275
 1 -8.38777580758076 -3.22441937103710 -0.48198403740374
 1 -7.97485324132413 -2.55457447154715 -2.10773710371037
 1 -6.69764861386139 -3.00087373947395 -1.08599539153915
 1  7.06899856285629  0.57282102500250 -0.45266865886589
 1 -6.38097835983598  0.38781862176218 -0.05498787578758
 1  5.60049943394339  3.19709485738574  0.21946420142014
 1 -5.09277309730973 -2.02344365146515 -0.92806020602060
 1  4.61934503350335  0.16587483338334 -0.15766417741774
 1 -4.11604710871087  0.63664878177818 -0.07338454245425
 1  3.10886867186719  3.24804884678468  1.57105330633063
 1  1.69754640764076  3.09433810471047  0.46268867686769
 1  3.10067408940894  3.81413924782478 -0.14435493149315
 1 -2.54474661166117 -2.99463661076108 -0.19122216621662
 1 -2.92554206220622 -2.73336445654565 -1.88273224022402
 1 -1.36179297829783 -2.45066524162416 -1.13487652365237
 1  2.47268442644264 -0.30708936003600 -0.32621052505251
 1 -1.96784618561856  1.02073199109911 -0.00414702770277
 1  0.38353410041004  1.85653835973597  0.13006880188019
 1  0.42330510051005 -0.93765371547155 -0.89048663266327

