%nproc=4
%Mem=2GB
# td=(NStates=1) CAM-B3LYP/6-31G(d,p) 

TD

0 1
 8  14.65888410741074 -2.44302177327733 -0.37023587658766
 8 -14.88774537153715  1.81025288128813  0.63996309030903
 6  11.37776107010701 -1.17651828592859  1.14625798679868
 6 -12.23564119611961 -0.91410397039704  0.88771429342934
 6  12.91329006100610 -1.57237027512751  1.04279185118512
 6 -13.56909951895189 -0.11236739673967  0.87451634763476
 6  13.24630662466247 -2.08983451055105 -0.32704759375938
 6 -13.62124446444644  1.30547334533453  0.68975075907591
 6  10.94238276427643 -0.31522573867387 -0.07799204520452
 6 -11.31047814881488 -0.33691472047205 -0.21465221922192
 6  12.97468168716872 -0.88157891499150 -1.35049592259226
 6 -12.87600836083608  1.61997997499750 -0.65400244224422
 6  11.71118586558656 -0.21108148124812 -1.16314483048305
 6 -11.56882047204720  0.82264858785879 -0.93164270327033
 6  11.27808853585359 -0.38681783988399  2.49634007500750
 6  10.52774221522152 -2.39170965206521  1.24443256325633
 6 -11.54260645464546 -0.71228305630563  2.24303288328833
 6 -12.50805150715072 -2.34463990699070  0.63878578257826
 6  9.67169199519952  0.46434747164716  0.20706738673867
 6 -10.09175054205421 -1.10726481148115 -0.39011769276928
 6  11.41781454645464  0.65316978187819 -2.50184439143914
 6 -10.84100653965397  1.37715809980998 -1.98079738673867
 6  9.33345331233123  1.69362280018002  0.01068569456946
 6 -8.79774025902590 -0.57618117511751 -0.25228627462746
 6  8.11294728072807  2.36604634453445  0.22047771677168
 6 -7.57697283928393 -1.30169450255026 -0.41681701370137
 6  8.10503098409841  3.81462966786679  0.72500386638664
 6 -7.69110021602160 -2.81641138923892 -0.69911008600860
 6  6.94277968496850  1.62813280718072  0.08088808280828
 6 -6.38158996199620 -0.64455993109311 -0.48194120012001
 6  5.61170172217222  2.07577528442844  0.28267318331833
 6 -5.08223934593459 -1.11234111021102 -0.63693586758676
 6  4.46448037903790  1.29346476037604 -0.01901753075308
 6 -3.99532495249525 -0.33889009510951 -0.34092142214221
 6  3.11850445544554  1.69895049294929  0.04585625062506
 6 -2.58346211021102 -0.83236756685669 -0.43255091509151
 6  2.72429271027103  3.11025047394739  0.59849255825583
 6 -2.28693418741874 -2.21609891199120 -0.67337837783778
 6  2.01934150915092  0.88780594449445 -0.35274439943994
 6 -1.65632695569557  0.17426713261326 -0.25535736273627
 6  0.68836600560056  0.99198396629663 -0.08962308230823
 6 -0.28207707670767 -0.01170327542754 -0.36498413841384
 1  13.58060733273327 -0.70017345244524  1.17288212621262
 1  13.29786502250225 -2.49135971707171  1.67927805980598
 1 -14.09536231323132 -0.38338849584959  1.77732493849385
 1 -14.24660602760276 -0.70614753775377  0.09619799979998
 1  12.62986818881888 -2.95157990109011 -0.76331439643964
 1 -13.04196965796580  1.86462098009801  1.40586005900590
 1  13.64385531753175 -0.16884960506051 -1.25432131613161
 1  12.97954944794479 -1.18330055715572 -2.41192186818682
 1 -13.65720126412641  1.58161948294829 -1.48804673767377
 1 -12.78993760076008  2.70735279927993 -0.69589647264726
 1  11.60101872187219 -1.11487221332133  3.50673533453345
 1  10.25111097609761 -0.11602111221122  2.48760764176418
 1  11.93827309730973  0.60043977687769  2.50724985998600
 1  10.52812181518152 -3.10460104020402  0.34311969796980
 1  10.71312222922292 -2.98654357145715  2.06663658765877
 1  9.53223922492249 -2.02274326742674  1.43057800080008
 1 -11.55571247124712  0.35639121012101  2.78513240624062
 1 -10.59937444644464 -1.13869102410241  2.00701670567057
 1 -12.21156231523152 -1.37259816481648  3.08480107610761
 1 -13.20630041104110 -3.01786303830383  1.35640014901490
 1 -11.43372642064206 -3.03492552055206  0.80447550355035
 1 -12.84064442244225 -2.56652696069607 -0.32267074107411
 1  8.90656248024803 -0.16927524762476  0.57068125212521
 1 -10.18731846384638 -2.06773049704971 -0.74384401740174
 1  10.37657007600760  1.05656575447545 -2.42673737673767
 1  12.06180461546155  1.44350864176418 -2.50793050705071
 1  11.51358559355936  0.06506601950195 -3.48020515051505
 1 -11.41888289528953  1.70148337733773 -3.00627212021202
 1 -9.94140967996800  0.56823746074607 -2.27088169416942
 1 -10.41249300430043  2.42666127912791 -1.63667726372637
 1  14.87071362436244 -3.44972387748775  0.12653454645465
 1 -15.21503093809381  1.97493240724072  1.67772597759776
 1  10.07517299929993  2.19319262316232 -0.37773708870887
 1 -8.62877957495749  0.51319341734173  0.16355154215422
 1  8.92984584658466  4.19751960486049 -0.12582888588859
 1  7.10240362936294  4.48356376527653  0.51124695769577
 1  8.32742745274527  4.23958684558456  1.79472249024903
 1 -8.14623165316532 -3.42439936903690  0.12380654165417
 1 -8.26716247224723 -2.89798881298130 -1.70436676667667
 1 -6.61469031803180 -3.28832248434844 -0.75424221622162
 1  7.03154481748175  0.62975671857186 -0.65958935093509
 1 -6.36734699669967  0.51334117401740 -0.22657503450345
 1  5.46409579357936  3.00908605650565  0.52566482148215
 1 -4.97731155115512 -2.15698700580058 -0.93318071807181
 1  4.58066116511651  0.35875412131213 -0.39022743374337
 1 -4.01899740374038  0.74051916881688 -0.11248845284528
 1  3.18546633163316  3.28710275217522  1.70384658565857
 1  1.72105875887589  3.30029870077008  0.72043445144514
 1  3.09507352935294  3.91429926382638 -0.12540303630363
 1 -2.74709684668467 -2.77347449454945  0.18934589058906
 1 -2.83800330833083 -2.44601572167217 -1.70237420442044
 1 -1.31089788878888 -2.54684485958596 -0.52045508150815
 1  2.36759391739174 -0.21998064916492 -0.60307821182118
 1 -2.09140854185419  1.18261817971797 -0.06553316631663
 1  0.23314906190619  1.86266897279728  0.31956775177518
 1  0.08449121912191 -0.90940089018902 -0.53868145214521

