%nproc=4
%Mem=2GB
# td=(NStates=1) CAM-B3LYP/6-31G(d,p) 

TD

0 1
 8  14.64642286128613 -2.17576504760476 -0.43698255125513
 8 -14.68757535453545  2.03712556855686  0.69929902390239
 6  11.47942123612361 -1.09384001810181  1.26396975797580
 6 -12.32389002100210 -0.93793635363536  0.76802232423242
 6  12.90818955095510 -1.51125416351635  1.03609118111811
 6 -13.67353996299630 -0.07384354435444  0.79192808880888
 6  13.24162615661566 -2.00160568766877 -0.38987387638764
 6 -13.49731207120712  1.32578537653765  0.74051583558356
 6  10.98743726972697 -0.29251346744674  0.01586734073407
 6 -11.29230633163316 -0.27728875787579 -0.20359111311131
 6  12.93203742274227 -0.82357311441144 -1.38592946594659
 6 -12.82919367936794  1.74835281228123 -0.58957599959996
 6  11.66649139613961 -0.19030940404040 -1.19588810481048
 6 -11.55427901790179  0.88711503450345 -0.80521006000600
 6  11.34425515251525 -0.32747190529053  2.52381282228223
 6  10.50965040604060 -2.37502798389839  1.32347046704670
 6 -11.65835802980298 -0.87778960696070  2.14503308330833
 6 -12.72578328032803 -2.30379582258226  0.35899780378038
 6  9.63987881388139  0.40769180608061  0.25098177817782
 6 -10.12892425942594 -1.04426851185118 -0.49258793979398
 6  11.09949271427143  0.48603306820682 -2.34830903790379
 6 -10.79133157215722  1.35075545954595 -2.02068137513751
 6  9.38645861286129  1.67307074497450 -0.17560293429343
 6 -8.86680716571657 -0.59985354235424 -0.39530057605761
 6  8.00300628662866  2.26659639953995  0.04040970997100
 6 -7.56198134013401 -1.30356468956896 -0.51400673267327
 6  8.08811929292929  3.78792699759976  0.28497986398640
 6 -7.63798490449045 -2.70855060316032 -0.96845702070207
 6  6.93501890889089  1.57169716361636 -0.12708271427143
 6 -6.45084688768877 -0.62966844194419 -0.19130213621362
 6  5.54838539053905  2.10264797169717  0.10726564256426
 6 -5.03840496249625 -1.17245712181218 -0.39308148214821
 6  4.51103503450345  1.29172458635864 -0.03944957395740
 6 -3.96953237323732 -0.43886009210921 -0.13429075907591
 6  3.05459806480648  1.61660225812581  0.23527519251925
 6 -2.47448121212121 -0.84633896399640 -0.25793345334533
 6  2.82400268126813  3.07267671657166  0.65159786878688
 6 -2.24106960096010 -2.27124442654265 -0.78144918491849
 6  2.15678525352535  0.66573373727373  0.02588346334633
 6 -1.53532485548555  0.18040774667467 -0.09504133113311
 6  0.70951812081208  0.81378614651465  0.08963484348435
 6 -0.19590845984598 -0.14895700080008 -0.21855949594960
 1  13.54855412741274 -0.56125956105611  1.19019385738574
 1  13.29021425742574 -2.31806238733873  1.74767489948995
 1 -14.25566834383438 -0.49479963696370  1.87503470947095
 1 -14.48925029202920 -0.34767169016902 -0.05972759275928
 1  12.66529173117312 -2.96329107220722 -0.54753281828183
 1 -12.77355281628163  1.64688920692069  1.57708718171817
 1  13.83713464546455 -0.09132185228523 -1.21719760376038
 1  13.20178167116712 -1.14459668676868 -2.41218189418942
 1 -13.68594413841384  1.36705802680268 -1.21739967296730
 1 -12.49526813381338  2.83773583758376 -0.66796367936794
 1  11.73304192419242 -0.94349507560756  3.31925658665866
 1  10.25965183018302 -0.15493500360036  2.72924180518052
 1  11.71659092909291  0.72902263516352  2.12300143514351
 1  10.62234123712371 -3.22936351645165  0.42626801280128
 1  10.80082099909991 -2.87140205730573  2.31721164516452
 1  9.52382838383838 -2.11229222232223  1.23107805080508
 1 -11.71721862186219  0.03305887688769  2.71483537653765
 1 -10.51674618361836 -1.30642779777978  2.24728073207321
 1 -12.27886904590459 -1.57990889588959  2.68872146814682
 1 -13.53301308230823 -2.74494574657466  1.00306481548155
 1 -11.91617466546655 -3.14770679867987  0.26155121112111
 1 -13.14721507950795 -2.45978628662866 -0.68676715071507
 1  8.72249407340734 -0.00219853995399  0.64671885588559
 1 -10.14091382338234 -2.20924464846485 -0.85208484148415
 1  10.09012143114311  0.56439653755376 -2.41827653065307
 1  11.48926736173618  1.62870716161616 -2.34807452145215
 1  11.33506774177418 -0.01995248234824 -3.31247837783778
 1 -11.47092809980998  1.75720894989499 -2.72742423542354
 1 -10.21298683768377  0.45423606060606 -2.29446405240524
 1 -10.21280303530353  2.28037665066507 -1.66939053505350
 1  14.88118467146715 -2.61731063616362  0.38190008300830
 1 -15.29539897489749  1.45435034903490  1.37029523452345
 1  10.00613609560956  2.47083038693869 -0.46940625562556
 1 -8.55522221922192  0.39183128112811  0.17641282828283
 1  8.41175403740374  4.54694454735474 -0.51958826182618
 1  7.11819520852085  4.29137454635464  0.44007984098410
 1  8.72258696869687  4.12959584648465  1.30584360236024
 1 -8.36836386638664 -3.29432636173617 -0.30296613561356
 1 -8.20149590559056 -2.90074908900890 -1.94689101910191
 1 -6.68363721272127 -3.10331398349835 -1.01765855785579
 1  6.93506516951695  0.61655539843984 -0.43650704270427
 1 -6.54064432643264  0.28032787268727  0.31832945594559
 1  5.52148153215322  3.16722187008701  0.31729398439844
 1 -4.84595841584158 -2.20391169826983 -0.67788518851885
 1  4.65923902290229  0.22409065496550 -0.29177758875888
 1 -4.07711321532153  0.43091820872087  0.18493128912891
 1  3.54949273427343  3.43089713161316  1.31366756775678
 1  1.83927058005801  3.24258292919292  1.11985439343934
 1  3.10549457145715  3.81897973187319 -0.10894139013901
 1 -3.08109024602460 -2.73616076317632 -0.36809985398540
 1 -2.74233374137414 -2.23170429052905 -1.92142610961096
 1 -1.15278207720772 -2.57711788688869 -0.52385542154215
 1  2.53300045804580 -0.21290994209421 -0.38077598159816
 1 -1.97332673367337  1.01151106900690  0.19002238923892
 1  0.31735748274828  1.83443614951495  0.30594638963896
 1  0.28739150915092 -1.11186113621362 -0.24037162116212

