%nproc=4
%Mem=2GB
# td=(NStates=1) CAM-B3LYP/6-31G(d,p) 

TD

0 1
 8  14.80595881488149 -2.26449392049205 -0.47879673267327
 8 -14.77305390239024  2.11176303230323  0.63595268926893
 6  11.50624391839184 -1.07119775387539  1.13306666766677
 6 -12.33264089608961 -0.83424598459846  0.76599212121212
 6  13.05978471047105 -1.27955099319932  1.02306987898790
 6 -13.71376398539854 -0.12951911191119  0.90113900990099
 6  13.41471346534653 -1.82489801690169 -0.39028391739174
 6 -13.56935927592759  1.36697949594959  0.63461524552455
 6  11.00948947494749 -0.26606082218222 -0.00903514951495
 6 -11.36777387838784 -0.30515154415442 -0.28890964496450
 6  13.04773899289929 -0.73904466156616 -1.37851872487249
 6 -12.89102986298630  1.62734071107111 -0.76074311631163
 6  11.66414116111611 -0.21197157025703 -1.26165468146815
 6 -11.59429301930193  0.84478080108011 -0.84410394939494
 6  11.36841756875688 -0.25720487858786  2.46256669766977
 6  10.74049349034903 -2.40021050215022  1.30043816381638
 6 -11.69875206920692 -0.79974180218022  2.16765534553455
 6 -12.55087578957896 -2.41635707870787  0.49317122112211
 6  9.71952677867787  0.38460949784979  0.15004168416842
 6 -10.00267163416342 -1.04369845484548 -0.35211389238924
 6  11.24756752175218  0.59288375327533 -2.51337554455446
 6 -10.67358979797980  1.45027541154115 -1.87457676467647
 6  9.38896886388639  1.66196963486349 -0.17759313331333
 6 -8.86020650565056 -0.51341489848985 -0.28588963496350
 6  8.02799878587859  2.20640037993799  0.15976164516452
 6 -7.56202134413441 -1.24287862096210 -0.55032036403640
 6  8.01560204120412  3.68002620752075  0.45829719571957
 6 -7.76119722572257 -2.74258400650065 -0.82737291229123
 6  6.85605101210121  1.46137613151315  0.08563855785579
 6 -6.48266006900690 -0.52735821092109 -0.41404441044104
 6  5.52581313331333  1.96939464636464  0.36467138313831
 6 -5.10139126112611 -1.10806068216822 -0.47206938093809
 6  4.40285421642164  1.21538695259526  0.11715608660866
 6 -3.97595301530153 -0.29712591869187 -0.34571190119012
 6  3.02103470847085  1.50306090399040  0.38789045404540
 6 -2.62862662666267 -0.89942427252725 -0.37294495449545
 6  2.75669595059506  2.97880732963296  0.49814252325233
 6 -2.37944343834383 -2.24210151225122 -0.68258929892989
 6  2.10874044904490  0.53492065596560  0.16099697469747
 6 -1.68972029502950  0.09379908580858 -0.20329215621562
 6  0.63849101810181  0.79680444834483  0.03022890289029
 6 -0.27109597859786 -0.13658576367637 -0.12243988398840
 1  13.58033730573057 -0.33183661876188  1.26991182918292
 1  13.11682691869187 -2.05996657775778  1.85348548054806
 1 -14.25121789878988 -0.23244340134013  1.88340554655466
 1 -14.43982534953495 -0.43794071707171 -0.08982060206021
 1  12.69729493149315 -2.73969871297130 -0.45693375837584
 1 -12.71240670167017  1.71226574457446  1.32980245324532
 1  13.86400733273327 -0.06049876997700 -1.38442432643264
 1  13.04494598759876 -1.28308053515352 -2.38005868186819
 1 -13.57745328932893  1.42050337133713 -1.55472340534053
 1 -12.68049665666567  2.67439950395039 -0.82987987098710
 1  11.74609322932293 -0.69425015111511  3.13886854785479
 1  10.26895276027603  0.01663215311531  2.51251013201320
 1  12.02301157115711  0.69615934883488  2.33809294429443
 1  10.75724472747275 -2.86698727882788  0.40234562056206
 1  11.01901281828183 -3.08908382548255  2.13152307630763
 1  9.53746974797480 -2.21873286638664  1.57192213521352
 1 -11.62191909190919  0.13624919591959  2.62169606260626
 1 -10.86899140814081 -1.32706986198620  2.16402240624062
 1 -12.39449060806081 -1.34289519451945  2.85318791479148
 1 -13.52183196419642 -2.82251350335034  1.14619912891289
 1 -11.72051509950995 -3.20517254525452  0.59085414141414
 1 -13.02655301330133 -2.59997030503050 -0.41858033203320
 1  8.91092291629163 -0.22290061016102  0.67644182818282
 1 -10.32845257725773 -2.06955067906791 -0.53894352735274
 1  10.14095651465146  0.67234733263326 -2.48690339333933
 1  11.72537097209721  1.51916620752075 -2.56714642864286
 1  11.45119935493549 -0.11043153025303 -3.39947707770777
 1 -11.30444145114511  1.81103433243324 -2.71255274827483
 1 -10.00193573257326  0.82320295729573 -2.36258086408641
 1 -10.32607436243624  2.32647126012601 -1.48631222722272
 1  14.96357291029103 -2.93000190529053  0.15270716371637
 1 -15.31534096909691  1.89344425842584  1.35028323332333
 1  10.02389787178718  2.37292059595960 -0.77601691669167
 1 -8.91403810081008  0.49624172217222 -0.10155496849685
 1  8.62403526552655  4.24358421132113 -0.24639094209421
 1  7.13394678367837  4.16110151905191  0.51432726572657
 1  8.57531224122412  3.70148303520352  1.37268028602860
 1 -8.44620165016502 -3.18961589068907 -0.04834067306731
 1 -8.52718847484748 -3.00556957105711 -1.62767909790979
 1 -6.80425927492749 -3.26195984808481 -1.25601239323932
 1  6.97523918691869  0.52512625552555 -0.31989538153815
 1 -6.38442870487049  0.49356919681968 -0.30393277027703
 1  5.26503588758876  2.80400554845485  0.90524277927793
 1 -4.93843766376638 -2.14197550465046 -0.82157955795580
 1  4.49055215421542  0.17698594449445 -0.26801521252125
 1 -4.02913841784178  0.79150426732673 -0.05363256725673
 1  3.17802558755876  3.23393743564357  1.40852705370537
 1  1.70349700270027  3.27366603750375  0.44060646864686
 1  3.44194821682168  3.52599043294329 -0.28776927292729
 1 -3.04489662666267 -3.13129027612761 -0.08668171217122
 1 -2.49010851885189 -2.42156327642764 -1.73785775277528
 1 -1.34457125612561 -2.49799997509751 -0.40957399339934
 1  2.63322048004801 -0.51597024812481  0.03855595159516
 1 -1.92253165416542  1.19413933183318 -0.41839845284529
 1  0.18645439243924  1.73484619051905 -0.10755496049605
 1  0.22866563656366 -1.01949189928993 -0.20210779477948

