%nproc=4
%Mem=2GB
# td=(NStates=1) CAM-B3LYP/6-31G(d,p) 

TD

0 1
 8  15.00045826482648 -1.88927639873987 -0.51163001600160
 8 -14.75595219221922  2.07370922692269  0.82334142814281
 6  11.58028132213221 -1.07531816591659  1.18792215321532
 6 -12.36145377737774 -0.91710427042704  0.84353987598760
 6  13.07432616461646 -1.23328636673667  0.98629620162016
 6 -13.68260086908691 -0.11813797379738  0.91487038303830
 6  13.48479047304730 -1.83113864096410 -0.29800468946895
 6 -13.52211455145514  1.39237203520352  0.75893767776778
 6  10.95825435143514 -0.38844306040604  0.02122787678768
 6 -11.46170327132713 -0.30543157215722 -0.28213896789679
 6  13.12528674767477 -0.87349810691069 -1.31892276527653
 6 -12.87302806280628  1.66002397939794 -0.61068811081108
 6  11.72862760976098 -0.23697407050705 -1.13345186118612
 6 -11.64568815881588  0.82099842284228 -0.83521306030603
 6  11.40539126612661 -0.18108726682668  2.48759920092009
 6  10.95174461546155 -2.38651913301330  1.46646476647665
 6 -11.65726792079208 -0.86816864486449  2.19944852485249
 6 -12.71218192019202 -2.28450389338934  0.46120802480248
 6  9.64177900390039  0.23983502040204  0.10897757775778
 6 -10.19856122312231 -1.07130121512151 -0.56407508850885
 6  11.27818058305831  0.51768623352335 -2.34214842184218
 6 -10.84304674367437  1.39702008600860 -1.95944525152515
 6  9.33559352635264  1.50644408230823 -0.05159053305331
 6 -9.02721320632063 -0.54807836483648 -0.38325937193719
 6  7.99760574657466  2.08321806170617  0.16736240524052
 6 -7.72411755375538 -1.25364969806981 -0.52866819881988
 6  8.13881436243624  3.63971217611761  0.38289965596560
 6 -7.60685179117912 -2.77648739683968 -0.85359553455346
 6  6.83894930193019  1.36645663956396  0.04838483248325
 6 -6.52517432043204 -0.59771524662466 -0.33882688868887
 6  5.55796634863486  1.93922162906291  0.21343625962596
 6 -5.13592471447145 -1.07582745884588 -0.49796197019702
 6  4.43025695669567  1.15576098999900  0.01152552355236
 6 -4.09412483248325 -0.25969217531753 -0.20726805680568
 6  3.06125873087309  1.54954555245525  0.20855252025203
 6 -2.69513327732773 -0.78467279737974 -0.39457711771177
 6  2.78831911291129  2.92970241914191  0.73029573857386
 6 -2.49292478647865 -2.16733403550355 -0.79132017201720
 6  2.03466304130413  0.73642080598060 -0.21147027202720
 6 -1.65479680268027  0.20331003690369 -0.24409623662366
 6  0.69668683768377  0.85809057695770 -0.18812293229323
 6 -0.25736460546055 -0.07298940404040 -0.39221686168617
 1  13.64731400340034 -0.35570900600060  1.06598143614361
 1  13.32835807180718 -1.86581716281628  1.92876300830083
 1 -14.09088186518652 -0.16614677167717  1.99602680868087
 1 -14.36125749274928 -0.45413233623362  0.11460984098410
 1  13.31158636063607 -2.99733447654766 -0.39362742774277
 1 -12.71761722272227  1.85849036703670  1.59721919491949
 1  13.81865279727973 -0.00178289838984 -1.10991687568757
 1  13.22017351035104 -1.19945217231723 -2.16976765276528
 1 -13.73140868486849  1.38196951795180 -1.48430636363636
 1 -12.51980058705871  2.74097616161616 -0.83403028602860
 1  11.71764038403840 -0.76921764786479  3.26886154715472
 1  10.24683054805481 -0.09160867096710  2.59379826082608
 1  11.76537580758076  0.69476920982098  2.34731386638664
 1  11.31287029002900 -3.16017659775978  0.68705409140914
 1  11.14495541254126 -2.99239415651565  2.42087201120112
 1  9.84788078907891 -2.21870286338634  1.66477142014201
 1 -11.44789168916892  0.16510208120812  2.57023091609161
 1 -10.81375588458846 -1.31381853685369  2.19095509950995
 1 -12.37238839783978 -1.35257616261626  2.99618221422142
 1 -13.55182496349635 -2.64918617061706  0.97706221522152
 1 -11.85098814681468 -3.05531755975598  0.57572262826283
 1 -13.02917327532753 -2.41374168216822 -0.44791326532653
 1  8.79053087708771 -0.39693801390139  0.43774795879588
 1 -10.36409614161416 -2.08238196219622 -0.85045467846785
 1  10.27566998599860  0.64227432533253 -2.25588029102910
 1  11.65573400840084  1.51372566346635 -2.68384809880988
 1  11.59825406040604 -0.19188967606761 -3.17355448544854
 1 -11.58392939993999  1.78108133713371 -2.62295378837884
 1 -9.94592013101310  0.85088572557256 -2.37106171217122
 1 -10.22410416541654  2.23106171917192 -1.75688928492849
 1  15.18684523752375 -2.73022192729273  0.00259215221522
 1 -15.29003843884388  1.87154206820682  1.60241844684468
 1  10.17650313231323  2.09127243114311 -0.31259057405741
 1 -9.03294999199920  0.48702080008001 -0.15970078307831
 1  9.10619348134813  4.02216206910691 -0.33147945094509
 1  7.13386677567757  4.16832224112411  0.29616544954495
 1  8.42703741374137  3.77945083198320  1.47160017801780
 1 -7.81443847384738 -3.46407333643364  0.03226738773877
 1 -8.33324908090809 -2.79495850995100 -1.67776410641064
 1 -6.52659150815081 -3.19382303440344 -1.22821961396140
 1  6.81177284028403  0.30232397529753  0.05010161816182
 1 -6.58091835383538  0.54447428732873 -0.10317269426943
 1  5.46829621362136  2.96128127602760  0.58503075807581
 1 -4.98314213421342 -2.14161546864686 -0.83525092509251
 1  4.61844494349435  0.22101034693469 -0.39766817781778
 1 -4.31208671267127  0.74659977687769  0.10175297129713
 1  3.37037482248225  2.88345238713871  1.62820902190219
 1  1.79594624762476  2.94472314321432  0.70146255425543
 1  3.16345036703670  3.64827266116612 -0.01744224022402
 1 -2.82670480748075 -2.87310445754575  0.08733568956896
 1 -2.77450695869587 -2.48653977407741 -1.83815778277828
 1 -1.44495129412941 -2.32737291239124 -0.82757579357936
 1  2.29665682368237 -0.29390804190419 -0.49464736873687
 1 -2.04342374337434  1.24210412831283 -0.02530914391439
 1  0.05914166116612  1.76768947484748  0.00046584158416
 1  0.00627339733973 -1.15694564466447 -0.65905348934893

