%nproc=4
%Mem=2GB
# td=(NStates=1) CAM-B3LYP/6-31G(d,p) 

TD

0 1
 8  14.83912213121312 -2.08372584368437 -0.45594444744474
 8 -14.63435003200320  2.08072992899290  0.75271436543654
 6  11.55222851685168 -1.07989862396240  1.34878823982398
 6 -12.36954458645864 -0.92999555955596  0.74594011601160
 6  13.06348508050805 -1.33238627672767  1.15297286928693
 6 -13.67289989898990 -0.28139429942994  0.88114701070107
 6  13.43762575657566 -1.91150667776778 -0.29500438943894
 6 -13.46448878887889  1.27866066406641  0.82807459145915
 6  10.98156668266827 -0.39977419351935  0.02288804280428
 6 -11.32850995199520 -0.40287131613161 -0.24096485048505
 6  12.91090530953095 -0.95250600770077 -1.30016088908891
 6 -12.72144290429043  1.68752672967297 -0.40325736773677
 6  11.51486623362336 -0.31255162826283 -1.14705322132213
 6 -11.50980457045705  0.85571189418942 -0.70238977797780
 6  11.32899362636264 -0.15972513061306  2.46337677867787
 6  10.64837427842784 -2.35249573067307  1.60381850185019
 6 -11.72687488148815 -0.88864069206921  2.17228580858086
 6 -12.74019472147215 -2.38244368736874  0.53728563256326
 6  9.60578540454045  0.34008504540454  0.07185386538654
 6 -10.10686205320532 -1.19558364336434 -0.43147182818282
 6  11.16490925592559  0.36955142004200 -2.37849205620562
 6 -10.60517295629563  1.48248863286329 -1.76290559755976
 6  9.38704867186719  1.59129256715672 -0.04825019901990
 6 -8.93415390039004 -0.62947650465047 -0.36439748574858
 6  8.01875786178618  2.23288302820282  0.16287195619562
 6 -7.69454459645965 -1.28565289838984 -0.53366869886989
 6  8.16949743074307  3.63680188508851  0.44583594959496
 6 -7.70776188218822 -2.63015276337634 -1.20473064806481
 6  6.93948935593559  1.41252124602460 -0.00399040504050
 6 -6.50495229822982 -0.64723019811981 -0.24319732573257
 6  5.53712426442644  2.08464617151715  0.12941785778578
 6 -5.07928905090509 -1.10380025612561 -0.51672384638464
 6  4.44756868786879  1.25020043394339 -0.06333196219622
 6 -4.07800322032203 -0.28930513661366 -0.26551388138814
 6  3.06430903590359  1.57204780268027  0.09991165616562
 6 -2.68436220022002 -0.76873120322032 -0.44894255425543
 6  2.80568084908491  3.07931738063806  0.45285799479948
 6 -2.43347884188419 -2.07385468756876 -0.94010505050505
 6  2.06859643464346  0.77232439633963 -0.12209133413341
 6 -1.71244256725673  0.18242794869487 -0.27396922392239
 6  0.64158132713271  0.97040180808081 -0.15078919891989
 6 -0.28070693969397  0.01540943584358 -0.43048068806881
 1  13.53405267726773 -0.34009744484448  1.11483632163216
 1  13.48077331333133 -1.98249883098310  1.85148528052805
 1 -14.27057983498350 -0.71539169616962  1.66828403440344
 1 -14.29736110311031 -0.36174309730973 -0.04702632263226
 1  12.81433663566357 -2.77667241034103 -0.56340440544054
 1 -12.85627108810881  1.51716623462346  1.75285475847585
 1  13.61192212421242 -0.12074479457946 -1.17328321232123
 1  13.27724921792179 -1.34500672777278 -2.36874755075508
 1 -13.21158670267027  1.74985630663066 -1.40112804580458
 1 -12.50818942594259  2.76918898289829 -0.19961684468447
 1  11.99526814681468 -0.54832555865586  3.29535419641964
 1  10.29516538153815 -0.02877238733873  2.93484236523652
 1  11.80582985298530  0.92568230113011  2.21658079307931
 1  10.89090809380938 -3.09261984208421  0.77340272627263
 1  10.81522243924393 -2.95216013311331  2.48538846284628
 1  9.71156715771577 -1.88527952105211  1.68168311131113
 1 -11.67181408140814  0.15921149214921  2.63711760476048
 1 -10.73165767476748 -1.37422457745775  2.18624462846285
 1 -12.48820997999800 -1.48621952695269  3.01330392639264
 1 -13.60286006700670 -2.89933118511851  1.06993150215022
 1 -11.88288133613361 -3.12107413541354  0.76831188718872
 1 -13.05698605660566 -2.46199650765076 -0.56022449644965
 1  8.74689651365136 -0.52434075417542  0.21589577357736
 1 -10.19792952495250 -2.25935965996600 -0.70933056605661
 1  10.08560097909791  0.73960405830583 -2.47086178917892
 1  11.97283571857186  1.25890018091809 -2.59304901890189
 1  11.31179541454146 -0.31395188228823 -3.22946007600760
 1 -11.43924493149315  1.84007723672367 -2.53644513751375
 1 -9.82945848484849  0.94481511851185 -2.44317892389239
 1 -9.89435119011901  2.27636624962496 -1.26446004200420
 1  15.15559211221122 -2.75381428652865  0.22573446644664
 1 -15.12403183818382  2.08899381338134  1.60533873887389
 1  10.33054853685369  2.33015631953195 -0.12877219221922
 1 -8.87462415941594  0.37624972297230  0.09643483048305
 1  9.14055691769177  3.91751160406041 -0.27019332233223
 1  7.31705509450945  4.32526793569357  0.46289212221222
 1  8.65418012801280  3.85426831373137  1.26019903790379
 1 -8.17897492749275 -3.46035296439644 -0.55925176417642
 1 -8.21505726172617 -2.67031604570457 -2.18908523852385
 1 -6.75644449344934 -3.33876752885289 -1.06539333133313
 1  6.87421908490849  0.38086182908291 -0.14237762976298
 1 -6.48635889788979  0.22428226812681  0.39646726972697
 1  5.57627701170117  3.16519166706671  0.33296555155516
 1 -4.92231605160516 -2.20327163426343 -0.71589898989899
 1  4.76251935093509  0.25425367126713 -0.29305771677168
 1 -3.99233473747375  0.80689580648065  0.08589138513851
 1  3.12289007400740  3.59407344924492  1.34658085908591
 1  1.71495814881488  3.35751442234223  0.45669807780778
 1  3.09140316231623  3.86534436833683 -0.36345684168417
 1 -2.85504764176418 -2.64069121622162 -0.16211925592559
 1 -2.79201870987099 -2.51589270937094 -1.96912087908791
 1 -1.41232803180318 -2.42029220432043 -0.93837687368737
 1  2.34943210121012 -0.18984763586359 -0.51131903590359
 1 -2.04878427942794  1.11456137403740  0.14149753675368
 1  0.10430617761776  1.98887159305931  0.23296909190919
 1  0.25427819781978 -0.96826677677768 -0.78079566356636

