%nproc=4
%Mem=2GB
# td=(NStates=1) CAM-B3LYP/6-31G(d,p) 

TD

0 1
 8  14.73261148014802 -2.21233870497050 -0.20597945094509
 8 -14.66991358835883  2.00214207020702  0.80623971797180
 6  11.35784907890789 -1.14033466756676  1.13515687668767
 6 -12.31392902490249 -0.93648620862086  0.75858138013801
 6  12.90801953395340 -1.44606764486449  1.13577114911491
 6 -13.76802941194119 -0.17389354935494  0.84917381338134
 6  13.33183517751775 -1.92527805490549 -0.18607349634963
 6 -13.46997933793379  1.28594139213921  0.65190697469747
 6  10.97382590859086 -0.28252246834683 -0.04094834083408
 6 -11.36712381338134 -0.37998902790279 -0.14688544254425
 6  13.10148436743674 -0.94465522262226 -1.32185305830583
 6 -12.73662442244224  1.63888186518652 -0.64064110611061
 6  11.74068881588159 -0.17911828492849 -1.23238175417542
 6 -11.61966555655566  0.75522184518452 -0.90909044804480
 6  11.04174490149015 -0.45002416051605  2.55526596759676
 6  10.47684712571257 -2.42280276137614  1.11155927592759
 6 -11.70851304530453 -0.81658348634863  2.19945852585258
 6 -12.75018572057206 -2.41487693069307  0.46455835983598
 6  9.66122094809481  0.37580861776178  0.09761644164416
 6 -10.09568093509351 -1.05397948294829 -0.25739442044204
 6  11.45766853185319  0.41768623352335 -2.34724893189319
 6 -10.66918935793579  1.34808519251925 -1.89511881888189
 6  9.45804577157716  1.76201963986399 -0.15761113511351
 6 -8.88736922192219 -0.57744130113011 -0.25820686668667
 6  8.04648063406341  2.34319405930593  0.06016168516852
 6 -7.62938808080808 -1.28366269936994 -0.52625795779578
 6  8.03021350235024  3.78852705760576  0.59509087508751
 6 -7.68519962596260 -2.61860160826083 -1.09118929392939
 6  6.88604401140114  1.61233122702270 -0.21567157315732
 6 -6.43330513351335 -0.56877235233523 -0.18845185118512
 6  5.59547009900990  2.12056976387639 -0.05680076407641
 6 -5.08740986298630 -1.09644952105211 -0.38613078707871
 6  4.47344127512751  1.34876028992899 -0.06930255925593
 6 -4.00052547254725 -0.35000120622062 -0.12251958195820
 6  3.10737334233423  1.61880247814781  0.10966263126313
 6 -2.54031779577958 -0.81243557365737 -0.24667232723272
 6  2.88838911991199  3.09093854275428  0.53886659565957
 6 -2.40708620262026 -2.18045534763476 -0.94343538353835
 6  2.12433200820082  0.79426659055906 -0.16240536553655
 6 -1.66100742374237  0.10917062296230 -0.06667849484948
 6  0.70058722772277  0.89081384928493  0.06156203620362
 6 -0.26314518351835 -0.07976008110811 -0.27331497149715
 1  13.39142841484149 -0.55711914701470  1.30787562556256
 1  13.26720195619562 -2.23861444254425  1.84904503650365
 1 -14.24012678967897 -0.38762891989199  1.87459466546655
 1 -14.28457982498250 -0.55552247524752 -0.10084170417042
 1  12.89286448844885 -3.21340608370837 -0.27984604960496
 1 -12.81569703070307  1.59122364036404  1.36520599359936
 1  13.93464439643964 -0.33846656675668 -1.45833171717172
 1  12.97049854285429 -1.45874810191019 -2.47579825582558
 1 -13.25152069606961  1.61912323332333 -1.51530946394639
 1 -12.33730233723372  2.80619268326833 -0.54693157615762
 1  11.44443306330633 -0.86930765686569  3.52724738573857
 1  10.12209807480748 -0.41947145724572  2.86996587758776
 1  11.34029329932993  0.64743447634764  2.33955309030903
 1  10.76536553955395 -3.03698427852785  0.21023640964096
 1  10.58312922992299 -2.75825074217422  1.96223614761476
 1  9.27080308130813 -2.44283527662766  0.93239818281828
 1 -11.50397729772977  0.28161373237324  2.22062595559556
 1 -10.57478198719872 -1.46436359135914  2.31679768376838
 1 -12.18294945394540 -1.16136704170417  3.16656925292529
 1 -13.42003178417842 -2.73835508750875  1.18022253125313
 1 -11.81750479847985 -3.06850887888789  0.52204726072607
 1 -13.26200655865587 -2.58003831183118 -0.47847632163216
 1  8.92272409640964 -0.12888120822082  0.76832101610161
 1 -10.28196792879288 -2.18861258525853 -0.76371600460046
 1  10.30679309830983  0.73347344524452 -2.38202290529053
 1  12.06510494549455  1.38867315821582 -2.62859257325733
 1  11.52632686768677 -0.00218070517052 -3.47286441644164
 1 -11.26211721872187  1.68484171317132 -2.81114260726073
 1 -9.94825036403640  0.56596723372337 -2.31216582258226
 1 -10.10395215021502  2.10480909390939 -1.42191578757876
 1  15.23045959895989 -2.66826573167317  0.56685857885789
 1 -14.92992242724272  1.78042295629563  1.78635684068407
 1  10.14826030803080  2.35252855675568 -0.37235655065507
 1 -8.72546924392439  0.46828892689269  0.16808199519952
 1  8.62719558155815  4.54589444234424  0.05434913191319
 1  6.95170855985598  4.16530193909391  0.71810764376438
 1  8.41322603260326  3.91295418231823  1.61162418041804
 1 -7.98788581858186 -3.45087201630163 -0.38420425942594
 1 -8.23769952595260 -2.72509152325233 -2.03087941794179
 1 -6.64199304830483 -2.85627928002800 -1.35915270727073
 1  6.81547321032103  0.60747449034904 -0.53004639663966
 1 -6.55072533453345  0.47611745164516  0.12890051305131
 1  5.40989037303730  3.13730887878788  0.14407666266627
 1 -5.10455427542754 -2.02095340244024 -0.84452185218522
 1  4.70156325532553  0.18017626352635 -0.41885029602960
 1 -4.07761326532653  0.68705382228223  0.24870766676668
 1  3.18939672467247  3.38005204710471  1.53416961796180
 1  1.75468212121212  3.07346601750175  0.62068447644764
 1  3.14522854485448  3.74827266116612 -0.15522601860186
 1 -2.88644078107811 -2.98736588368837 -0.37261030503050
 1 -2.57813732173217 -2.05346646674668 -2.00757472447245
 1 -1.28305510451045 -2.38718889398940 -0.92091512751275
 1  2.48087524552455 -0.32550120122012 -0.32608051205120
 1 -1.92289169016902  1.18305822372237  0.34302768976898
 1  0.24619036603660  1.78611131703170  0.62782857785779
 1  0.20446321632163 -1.00804075417542 -0.78957654165417

