%nproc=4
%Mem=2GB
# td=(NStates=1) CAM-B3LYP/6-31G(d,p) 

TD

0 1
 8  14.59262748174817 -2.35225269636964 -0.54155300830083
 8 -14.84611120812081  1.97105896189619  0.51841093509351
 6  11.47770106410641 -1.05032566666667  1.24589795079508
 6 -12.33449108110811 -0.90239279927993  0.98356387838784
 6  12.95046377837784 -1.55060809890989  0.96325389738974
 6 -13.66765937493749 -0.36154231423142  0.86678557455746
 6  13.25854784878488 -2.07338286538654 -0.34959984898490
 6 -13.66534887488749  1.19050184818482  0.73559534353435
 6  10.91976050205021 -0.34094831093109  0.02086784078408
 6 -11.35728282928293 -0.23957498649865 -0.05873662766277
 6  12.85584980398040 -1.05279603670367 -1.42457333033303
 6 -12.93276403640364  1.57746572357236 -0.59340638263826
 6  11.56490123712371 -0.34862523562356 -1.16990550655066
 6 -11.69323291329133  0.77410373337334 -0.89969950895090
 6  11.40401112811281 -0.13393255135514  2.33062350335033
 6  10.62406184718472 -2.33059354045405  1.51390951095110
 6 -11.66274846884688 -0.85712754075408  2.34686326632663
 6 -12.47702840484049 -2.52417786078608  0.52343424742474
 6  9.67854268026803  0.40192122902290  0.30056673667367
 6 -10.07416878387839 -1.12922700770077 -0.23564224522452
 6  11.03356612161216  0.35783024792479 -2.39547375437544
 6 -10.76663910291029  1.43803418741874 -2.02256156315632
 6  9.39730969796980  1.65822926082608 -0.09541491549155
 6 -8.85501598659866 -0.50734429142914 -0.43673471947195
 6  8.13361934793479  2.37900764066407  0.11320698969897
 6 -7.52792793479348 -1.22130646374637 -0.56553188518852
 6  8.16566704770477  3.73687189208921  0.84979634563456
 6 -7.57300840684068 -2.63939368746875 -0.93006318131813
 6  6.99215462246225  1.63963395729573 -0.03916392239224
 6 -6.37857966096610 -0.57980345544554 -0.48431143714371
 6  5.64946549854985  2.11195890279028  0.25651056705671
 6 -5.05489661166117 -1.06514639073907 -0.58066024002400
 6  4.58875280628063  1.36514192809281 -0.01675730473047
 6 -3.92954837483748 -0.33351955805581 -0.35186251625163
 6  3.14925753075308  1.71323192109211  0.13593525852585
 6 -2.63979774377438 -0.78274260436044 -0.37636529652965
 6  2.82627290829083  3.13763321222122  0.53446615561556
 6 -2.34456995099510 -2.07850515261526 -1.00815185518552
 6  2.16146572157216  0.83041020492049 -0.13648277327733
 6 -1.65621694469447  0.11762146804680 -0.09105093209321
 6  0.70242741174117  1.04857962586259  0.15123100310031
 6 -0.24328319731973  0.06015391029103 -0.26196383638364
 1  13.46757602960296 -0.65931936703670  1.12457729572957
 1  13.20884612061206 -2.22350293139314  1.90998113011301
 1 -14.25778855585559 -0.70446060306031  1.87494470047005
 1 -14.26308767576758 -0.86290321332133  0.05700408040804
 1  12.69629483148315 -3.10017476057606 -0.69906797179718
 1 -13.00200566156616  1.66000051805180  1.50711018401840
 1  13.89096002800280 -0.30177289738974 -1.52083796779678
 1  12.43447494049405 -1.80653288038804 -2.42391306730673
 1 -13.54241978597860  1.51203252425243 -1.59886781978198
 1 -12.64837344434443  2.62489455345535 -0.63243012601260
 1  11.96176479647965 -0.38772949904990  3.36622128312831
 1  10.42529839483949  0.27752824272427  2.53577245824583
 1  11.94342361236123  0.79828956185619  2.14669380438044
 1  10.69478848184818 -2.98491907200720  0.84375976197620
 1  10.90217113411341 -2.80760567766777  2.43706363036304
 1  9.42722872387239 -2.11014200730073  1.65657060006001
 1 -11.33753065306531  0.30782635363536  2.71377527052705
 1 -10.60124463346335 -1.36448360336034  2.30046605060506
 1 -12.35033619261926 -1.18577948294829  3.05761835783578
 1 -13.39379916091609 -2.87900915291529  1.12735724472447
 1 -11.71886493449345 -3.06156818481848  0.79127418341834
 1 -12.85695605360536 -2.52543285128513 -0.57570604460446
 1  8.84181600560056 -0.14082240234023  0.78107229122912
 1 -10.17580731273127 -2.26955067906791 -0.10037967096710
 1  10.12195461446145  0.79864996289629 -2.34433913691369
 1  11.69464789978998  1.13425771667167 -2.86953666766677
 1  10.99394362936294 -0.49454994209421 -3.18433556355636
 1 -11.43269427642764  1.96695992499250 -2.82106359935994
 1 -10.03886942594260  0.67550818781878 -2.59804441044104
 1 -9.95871762676268  2.21134974797480 -1.44669826582658
 1  14.97524407740774 -3.29993889898990 -0.16478458545855
 1 -15.79320875587559  1.40538545254525  0.85454365936594
 1  10.03959944194419  2.26049935383538 -0.44172348734874
 1 -8.59726642364236  0.50508260626063 -0.37553236623662
 1  8.81235409740974  4.24136398929893  0.12707640464046
 1  7.26650003900390  4.23668907780778  0.68308414141414
 1  8.54826953695370  3.81825471237124  1.76604962296230
 1 -8.05299232923292 -3.19028595769577  0.01037519851985
 1 -8.36458221422142 -2.73444245834583 -1.55765209520952
 1 -6.56659550855086 -3.09451310341034 -1.23124991699170
 1  6.93415507850785  0.58859260216022 -0.25736912891289
 1 -6.59843010501050  0.58637847774777 -0.17662003900390
 1  5.48945832983298  3.13862901080108  0.33927618261826
 1 -4.84940876087609 -2.20933224032403 -0.68588598859886
 1  4.78150124912491  0.16291453735374 -0.23939235023502
 1 -4.11542704670467  0.86184130103010 -0.23504070807081
 1  3.41173895889589  3.57829187108711  1.33034923592359
 1  1.71397805080508  3.27862653355336  0.69946235423542
 1  3.08166218821882  3.72871070497050 -0.41328182418242
 1 -2.84385652265227 -2.81899904700470 -0.29123216721672
 1 -2.76675618361836 -2.12174329442944 -1.99568353535354
 1 -1.42566936593659 -2.33069324442444 -1.19228226422642
 1  2.40827798579858 -0.17177582868287 -0.56468437243724
 1 -2.07896729772977  1.06383630153015  0.41858524552455
 1  0.35166091309131  1.86316902280228  0.60544633963396
 1  0.34858762876288 -0.97227717781778 -0.40188777277728

