%nproc=4
%Mem=2GB
# td=(NStates=1) CAM-B3LYP/6-31G(d,p) 

TD

0 1
 8  14.63509172817282 -2.31633910501050 -0.32638149114911
 8 -14.77556415341534  1.94851670767077  0.66006510051005
 6  11.25513880788079 -1.20779141324132  1.15632899389939
 6 -12.29771740374037 -0.97277983798380  0.87857337933793
 6  12.75857458945895 -1.57366040414041  1.14123169516952
 6 -13.66400900990099 -0.23706986698670  0.70625952195220
 6  13.31934392839284 -2.05846137323732 -0.21124601360136
 6 -13.53575591559156  1.30686348434844  0.67746953095310
 6  10.92424095009501 -0.24503871997200 -0.07965221122112
 6 -11.38332543354335 -0.27964899389939 -0.20702145614561
 6  13.11376559555955 -0.94646540364036 -1.26404727772777
 6 -12.70273103310331  1.73136111311131 -0.64907194919492
 6  11.74082882988299 -0.15495586868687 -1.13597211321132
 6 -11.53122671267127  0.86320264326433 -0.83601314031403
 6  11.07277800480048 -0.34381353945395  2.48377881888189
 6  10.38188762976298 -2.51576205730573  1.15151327132713
 6 -11.79748194219422 -0.92961478947895  2.32321090109011
 6 -12.53238394039404 -2.39445488848885  0.56970887488749
 6  9.60982580858086  0.39702073897390  0.04383106310631
 6 -10.05761712871287 -1.03169725472547 -0.38811749274927
 6  11.51554431943194  0.84227869276928 -2.40191439843984
 6 -10.57803024202420  1.38087847184718 -1.90261956895690
 6  9.34339430643064  1.64359779767977 -0.18425379937994
 6 -8.78272875787579 -0.51662521952195 -0.33028407440744
 6  7.97069305530553  2.25362510241024 -0.05230956195620
 6 -7.55243038503850 -1.31419575267527 -0.48371370337034
 6  8.15366584758476  3.65257346224622  0.42055342134213
 6 -7.76673777977798 -2.77468721682168 -0.84352452745275
 6  6.85990139713971  1.63202319621962 -0.26702670867087
 6 -6.33257506050605 -0.73752922802280 -0.24160716671667
 6  5.49744029602960  2.10099780668067  0.00859577557756
 6 -5.00484160616062 -1.17518739483948 -0.37173934793479
 6  4.37223115411541  1.37364277817782 -0.04345997499750
 6 -3.99599501950195 -0.41636784288429 -0.33891122112211
 6  3.10913351835184  1.73607420532053  0.08896056105611
 6 -2.55068883288329 -0.69735406550655 -0.49198685868587
 6  2.80327060806081  3.07252670157016  0.75406811581158
 6 -2.22021751575158 -2.13530083218322 -0.67930897089709
 6  2.12686226122612  0.83310047394739 -0.12389151415142
 6 -1.59646096909691  0.18167787368737 -0.14234606160616
 6  0.71826899589959  0.95881064896490  0.09848572857286
 6 -0.17199606860686 -0.01803390849085 -0.12619025902590
 1  13.40395966796680 -0.63673710881088  1.50336517451745
 1  13.13113834983498 -2.36659724082408  2.00566069806981
 1 -14.35239801680168 -0.52416257325733  1.59981718771877
 1 -13.96512787978798 -0.58082500550055 -0.20887250725073
 1  12.51723692569257 -2.89857460056006 -0.46655472047205
 1 -13.38646410741074  1.62501701970197  1.73580305330533
 1  13.78910984298430 -0.17481020112011 -0.90006589058906
 1  13.07456894989499 -1.31836406350635 -2.23000367636764
 1 -13.47411295529553  1.48219954095410 -1.42328026102610
 1 -12.44214282128213  2.83431549554956 -0.58834571757176
 1  11.63530215021502 -0.82899362546255  3.33400806180618
 1  9.99326519151915 -0.18736824692469  2.76005488648865
 1  11.67159642964296  0.61136086898690  2.39219835483548
 1  10.14241324432443 -3.12937351745175  0.10596598259826
 1  10.52426334333433 -3.42244716181618  1.83182310631063
 1  9.36656265726573 -2.27415840894089  1.54834977797780
 1 -11.54999189918992  0.06005157615762  2.50715460846085
 1 -10.95764027302730 -1.59748690369037  2.44199020302030
 1 -12.79647080608061 -1.33982488748875  2.82774537053705
 1 -13.24027380838084 -2.82801405340534  1.19179368836884
 1 -11.62516556455645 -2.99187121512151  0.56685174117412
 1 -12.92157251525153 -2.43165347334733 -0.41137961196120
 1  8.78006983098310 -0.45264358445845  0.11598578257826
 1 -9.94072380438044 -2.14086781078108 -0.53409304230423
 1  10.45562798179818  0.77808790669067 -2.51863656665667
 1  12.00390882588259  1.92622691359136 -2.29204891889189
 1  11.99753398839884  0.30737024992499 -3.16126325632563
 1 -11.16805781278128  1.79922315131513 -2.83769526252625
 1 -9.99673521252125  0.62765340234023 -2.51605621162116
 1 -10.10714246924693  2.15402401540154 -1.57291088708871
 1  14.83785033803380 -2.82860176527653  0.43098499149915
 1 -15.34082351735174  1.83844875887589  1.56689489448945
 1  10.32910839283928  2.32949625352535 -0.44979429442944
 1 -8.48174487148715  0.63892599059906 -0.11288610161016
 1  8.88109097109711  4.08034788768877 -0.18043434643464
 1  7.17675106410641  4.01030643954395  0.06628246124613
 1  8.54053876387639  3.77395028192819  1.61438445644564
 1 -8.31513854385438 -3.54113104220422 -0.15456129512951
 1 -8.18788454445444 -2.77167618171817 -1.95556188618862
 1 -6.80425927492749 -3.28162181428143 -0.87859465146515
 1  6.83988565156516  0.59723346624662 -0.61977536953695
 1 -6.36967722972297  0.48503834373437  0.07916553955395
 1  5.25434481848185  3.17073222112211  0.58590084508451
 1 -4.84951877187719 -2.28237954505451 -0.78380578057806
 1  4.87447054605461  0.34697294319432 -0.43566197719772
 1 -4.32835833983398  0.57199231613161 -0.13326053005301
 1  3.25169295429543  3.37992203410341  1.85140134113411
 1  1.64624127712771  3.39363803470347  0.99980238823882
 1  3.27592161416142  4.07510534443444  0.20790029402940
 1 -2.68434057105711 -2.79425657275728 -0.02605564956496
 1 -2.90420992899290 -2.52623374347435 -1.62567653465347
 1 -1.08917571657166 -2.24127430253025 -0.91566460246025
 1  2.59456661466147 -0.03892254335434 -0.67618552255226
 1 -1.93324272527253  1.23535345324533 -0.02659927292729
 1  0.29512525952595  1.98664137003700  0.32402819781978
 1  0.31215398539854 -0.87994794489449 -0.40129771377138

