%nproc=4
%Mem=2GB
# td=(NStates=1) CAM-B3LYP/6-31G(d,p) 

TD

0 1
 8  14.81129934893489 -2.18366583768377 -0.44038289128913
 8 -14.89488608560856  1.98661051705171  0.69163825782578
 6  11.49926322032203 -1.10704133823382  1.22192555355536
 6 -12.35254288628863 -0.89274183418342  0.83211873387339
 6  12.98933766576658 -1.41795483358336  1.05326289828983
 6 -13.74525713471347 -0.22052821282128  0.75434433043304
 6  13.43491548554855 -1.85303083018302 -0.31670655965597
 6 -13.56313865386539  1.31932473047305  0.71672345634563
 6  11.01382990899090 -0.24572878897890 -0.05205945194519
 6 -11.37811491249125 -0.29402043104310 -0.23554430843084
 6  13.21569578857886 -0.79941069816982 -1.26179705270527
 6 -12.86806756675668  1.73470144714471 -0.57592463446345
 6  11.72013676067607 -0.20279065216522 -1.19407792379238
 6 -11.60666425642564  0.85899222222222 -0.74892443144314
 6  11.36236696369637 -0.37259641774177  2.58755919691969
 6  10.74798423942394 -2.45121560266027  1.40057817781778
 6 -11.68074026802680 -0.74347617561756  2.14792337233723
 6 -12.42837353935394 -2.38000344334433  0.57004890889089
 6  9.76957178317832  0.33114415131513  0.10319699969997
 6 -10.14372573957396 -0.99635372037204 -0.33477215821582
 6  11.18827159215922  0.37598206310631 -2.33549775677568
 6 -10.67684012301230  1.48276866086609 -1.80837014401440
 6  9.30507047404740  1.57588102600260 -0.17360273427343
 6 -8.90185067006701 -0.57495105210521 -0.20839188518852
 6  8.01394738073807  2.21781152105211  0.21015668466847
 6 -7.69500464246425 -1.30773510661066 -0.46665199719972
 6  8.13030351135114  3.75991419631963  0.43537490349035
 6 -7.81505261126113 -2.80199994809481 -0.95690586558656
 6  6.85878128512851  1.52502249614961  0.04345433943394
 6 -6.45468727172717 -0.69955543064306 -0.27011001700170
 6  5.58706925892589  2.05780348724872  0.17780269626963
 6 -5.13556467846785 -1.12103197929793 -0.62881505550555
 6  4.47217114811481  1.28663407730773  0.07029140014001
 6 -4.04540996099610 -0.32916912301230 -0.41464879487949
 6  3.06546915191519  1.70228082598260  0.15022668766877
 6 -2.61517528152815 -0.78357268736874 -0.48446610661066
 6  2.77592787378738  3.14077352625263  0.36250895989599
 6 -2.40956645064506 -2.15166246834683 -0.99756079607961
 6  2.14831440644064  0.65180234413441 -0.02123124812481
 6 -1.66204752775278  0.08992869876988 -0.16979880688069
 6  0.65831300030003  0.93749851775178  0.01589746974697
 6 -0.21737060606061 -0.11092319741974 -0.13754139413941
 1  13.46992626462646 -0.42460589568957  1.18223306130613
 1  13.18806404240424 -2.13892447354735  1.88570870287029
 1 -14.30498327532753 -0.48893905090509  1.49051625762576
 1 -14.41305267226723 -0.56113303630363 -0.13201482148215
 1  12.59679488148815 -2.71721646474648 -0.67553561856186
 1 -13.02256771777178  1.67012153015302  1.60941041404140
 1  13.91269220122012 -0.00593331343134 -1.40928681268127
 1  13.26919841284128 -1.18256048314831 -2.37055773177318
 1 -13.40069561356136  1.27855917691769 -1.46604453745375
 1 -12.60748935593559  2.74347641164116 -0.53359024202420
 1  11.91140976097610 -0.92610333643364  3.37924258525853
 1  10.29905577057706 -0.31758126822682  2.83917279827983
 1  11.85706497649765  0.71318105100510  2.69782891789179
 1  10.95063406640664 -3.05299587968797  0.29061444744474
 1  10.89654057105711 -3.01957687478748  2.26584650865087
 1  9.53458945994599 -2.16396738983898  1.09221416441644
 1 -11.93265016501650  0.34479005000500  2.65183907690769
 1 -10.53784829382938 -0.89800695569557  2.20606661066107
 1 -12.08953011201120 -1.66645755075508  2.75577817381738
 1 -13.15926570757076 -2.80778203020302  1.29545405440544
 1 -11.54869791779178 -2.92338436643664  0.71437649364936
 1 -12.82092245024502 -2.58248855685569 -0.46636511051105
 1  9.07943976797680 -0.44868318841884  0.86099028302830
 1 -10.26844657665767 -1.99208293229323 -0.86749638263826
 1  10.18732115111511  0.44532463036304 -2.53369807280728
 1  11.61655009000900  1.39234352525253 -2.39045875987599
 1  11.78268250325033 -0.11167165426543 -3.38560569056906
 1 -11.44285529252925  1.68664189318932 -2.62465395839584
 1 -10.04136967596760  0.66472710971097 -1.98238284428443
 1 -10.16856861186119  2.44885349834983 -1.46540013601360
 1  14.91397795079508 -2.81701060616062  0.14381627462746
 1 -15.32515195019502  1.54635954995500  1.59329753475348
 1  9.92352783478348  2.33399670357036 -0.59673898889889
 1 -8.89722641964196  0.42019411741174  0.25208039503950
 1  8.61239410141014  4.30847069997000 -0.59956625962596
 1  7.07949133813381  4.07207261616162  0.57153298629863
 1  8.74531924192419  3.90556344324432  1.32552557055706
 1 -8.26734376437644 -3.32320925002500 -0.20158599759976
 1 -8.40034579057906 -2.88992800690069 -1.81149747974797
 1 -6.76980582958296 -3.30225387748775 -1.26157294929493
 1  6.77960962396240  0.55835957885789 -0.21183457545755
 1 -6.77845810781078  0.36104594449445  0.02498012101210
 1  5.40944032803280  3.03491863976398  0.41294354935494
 1 -4.97257107710771 -2.22537384448445 -0.79280668066807
 1  4.55869896889689  0.30961920782078 -0.10031844284428
 1 -4.14929043304330  0.68631374827483 -0.15705290929093
 1  3.52561034603460  3.37764180608061  1.10194639563956
 1  1.63460011301130  3.37193586448645  0.47825023302330
 1  3.14030805280528  3.65624345824583 -0.40399089508951
 1 -2.64574671167117 -2.80268741584158 -0.08351139513951
 1 -3.06447595559556 -2.63404452455246 -1.84046801380138
 1 -1.37446424542454 -2.16037621272127 -1.21967500350035
 1  2.38784594259426 -0.45994464556456  0.03325542154215
 1 -2.20322972397240  0.90002992089209  0.05092847984798
 1  0.12171791879188  2.03672637853785  0.18127392239224
 1  0.13619638963896 -1.21533148324833 -0.30896848084809

