%nproc=4
%Mem=2GB
# td=(NStates=1) CAM-B3LYP/6-31G(d,p) 

TD

0 1
 8  14.81771999099910 -2.13510098119812 -0.23251210421042
 8 -14.82434903190319  1.88206006200620  0.99207830183018
 6  11.51061435543554 -1.04766540064006  1.33460682168217
 6 -12.37238487048705 -0.98437099709971  0.81897741974197
 6  12.98525725772577 -1.35473851195120  1.16535410741074
 6 -13.71608421742174 -0.21743790379038  0.89019791579158
 6  13.45996799079908 -1.88873440054005 -0.14645953495350
 6 -13.50528286828683  1.28239103710371  0.88319010301030
 6  10.98891741774177 -0.33237745384538 -0.00210445644564
 6 -11.39810691169117 -0.38585961496150 -0.14019477347735
 6  12.94848906790679 -1.07336809390939 -1.34175504850485
 6 -13.00788154815482  1.59476745374537 -0.49882692469247
 6  11.63751849884989 -0.31444181728173 -1.18261677767777
 6 -11.63277686768677  0.81403772677268 -0.73689322832283
 6  11.39644037103711 -0.14543370147015  2.54618505950595
 6  10.68781822282228 -2.35475595669567  1.52389050905091
 6 -11.73754594859486 -1.09465129312931  2.24960354035404
 6 -12.57043774577458 -2.47362280528053  0.37989989398940
 6  9.75663048904891  0.28599963686369  0.23816049604960
 6 -10.03977534453445 -1.00367445244524 -0.41001968296830
 6  11.03219598459846  0.30479494439444 -2.44980918791879
 6 -10.85488792779278  1.53533391739174 -1.77497680468047
 6  9.41349131613161  1.55295873377338 -0.10978635263526
 6 -8.87342782778278 -0.48009156615662 -0.40983202920292
 6  8.06518250425042  2.17365710561056  0.03190885988599
 6 -7.62055719771977 -1.12838717181718 -0.52462779477948
 6  8.16317679867987  3.65257346224623  0.40561192719272
 6 -7.64660576657666 -2.50786053415342 -1.19512968796880
 6  6.93657906490649  1.50756074997500 -0.12484249024902
 6 -6.48741054405440 -0.53557903300330 -0.37073007900790
 6  5.60358091009101  2.00138784568457 -0.05173025702570
 6 -5.20161128312831 -1.08179805590559 -0.71077325132513
 6  4.48582251325132  1.25006041994199 -0.06754238323832
 6 -4.02245766576658 -0.30772697879788 -0.40235756575658
 6  3.14056666166617  1.69511010891089  0.07141880688069
 6 -2.65723948794879 -0.66001033113311 -0.43438109810981
 6  2.84908518951895  3.15906535543554  0.59356206520652
 6 -2.35239073307331 -2.12187949004900 -0.91355239523952
 6  2.13733330833083  0.82035919981998 -0.31875100010001
 6 -1.58799012201220  0.19195890179018 -0.19592141914191
 6  0.68868603760376  0.94417918581858 -0.06996111611161
 6 -0.15172404140414 -0.05280738583858 -0.31698933893389
 1  13.73526279827983 -0.46180961606161  1.46563140114011
 1  13.27217245324533 -2.04353493459346  1.93830396239624
 1 -14.25186796379638 -0.40160031703170  1.86839404540454
 1 -14.51786315331533 -0.51227815081508  0.04342272227223
 1  12.87356255825583 -2.78776351945195 -0.27945601060106
 1 -12.83431889288929  1.65906042404240  1.69506897989799
 1  13.58818975097510 -0.16764948504850 -1.23117900190019
 1  13.22576406940694 -1.56053828092809 -2.35737641364136
 1 -13.63544908890889  1.29674099509951 -1.32133006600660
 1 -12.87777638463846  2.60412247624762 -0.71785866886689
 1  11.54528314831483 -0.88948967506751  3.41653631463146
 1  10.24411027602760 -0.00275978607861  2.63504238523852
 1  12.09609887988799  0.67009674257426  2.46676581158116
 1  10.68522752575258 -3.00361094119412  0.58096348234823
 1  11.12998391539154 -2.85996091319132  2.45227515151515
 1  9.65416141714172 -1.98279927302730  1.82135707870787
 1 -11.38506540654065  0.07451302230223  2.69545343834383
 1 -10.78002251125113 -1.69890704570457  2.16391239523952
 1 -12.34448560756076 -1.57073797879788  3.12627522352235
 1 -13.28279806080608 -2.77040829282928  1.17714222322232
 1 -11.59494254225423 -2.90908293629363  0.67671272727273
 1 -12.98598895689569 -2.83244355235523 -0.69495796979698
 1  8.98089991399140 -0.27440576067607  0.85250943494349
 1 -10.28844857685769 -2.09205292929293 -0.73170280328033
 1  9.91883430243024  0.42956305420542 -2.24403910691069
 1  11.47815625062506  1.16981127202720 -2.56688640264026
 1  11.24602883788379 -0.55772625972597 -3.23550068006801
 1 -11.29722072907291  1.95467869686969 -2.81719321232123
 1 -10.00072561156116  0.93418405540554 -2.04744935093509
 1 -10.38839059405941  2.39830844384438 -1.45345894189419
 1  15.08344489748975 -2.82260116521652  0.37586947994800
 1 -15.16148558355835  1.71595650965097  1.98878708370837
 1  10.19705518751875  2.27415071897190 -0.48860817581758
 1 -8.77252394939494  0.56046814481448  0.02534772177218
 1  9.22552541454145  4.08012786568657  0.01094479147915
 1  7.27393078207821  4.28906431533153  0.11097693069307
 1  8.09228393839384  3.79903279017902  1.65633865186519
 1 -8.02123915391539 -3.36539346844684 -0.39962580158016
 1 -8.38554431043104 -2.65870488458846 -2.02663899389939
 1 -6.73241209020902 -2.94710836293629 -1.45592238423842
 1  7.07544920792079  0.50599434233423 -0.45810920292029
 1 -6.44610487248725  0.51864170407041 -0.04409678667867
 1  5.64032341634163  3.12704785268527  0.24053630863086
 1 -5.18665248524852 -2.00499180628063 -0.77173457345735
 1  4.82013511251125  0.18874712061206 -0.31802021302130
 1 -4.16398190219022  0.79100421732173 -0.26459366336634
 1  3.51261904690469  3.37532157405741  1.38563476447645
 1  1.66128278127813  3.12296096699670  0.77382979097910
 1  3.10582460446045  3.85107294119412 -0.36197669366937
 1 -3.07754989198920 -2.83305045214521 -0.25011805580558
 1 -2.84566407440744 -2.22230335043504 -2.10977494449445
 1 -1.34839163816382 -2.47081725682568 -0.79573260926093
 1  2.20245740374037 -0.19767841894189 -0.58805670967097
 1 -1.83633303430343  1.14687460536054  0.29996338333833
 1  0.25008075507551  1.88801150705070  0.35719151415142
 1  0.22353512351235 -0.93987393749375 -0.79079666366637

