%nproc=4
%Mem=2GB
# td=(NStates=1) CAM-B3LYP/6-31G(d,p) 

TD

0 1
 8  14.73797201620162 -2.34799227032703 -0.43681253425343
 8 -14.77430402740274  1.87419927592759  0.86763585758576
 6  11.48362165616562 -1.06799743384338  1.19822318331833
 6 -12.24960259225923 -0.97129968996900  0.82692821482148
 6  12.98032676467647 -1.43941697979798  1.10261783378338
 6 -13.66301891089109 -0.30111627162716  0.79381827782778
 6  13.31684367836784 -2.00863639073907 -0.26416130513051
 6 -13.51550389038904  1.24479727772777  0.80483226722672
 6  10.91681020702070 -0.30882509860986 -0.02495674167417
 6 -11.25152225322532 -0.32628365736574 -0.16717747174717
 6  13.04283850285028 -0.91218197529753 -1.33378425142514
 6 -12.83462422242224  1.65556353335334 -0.47766480848085
 6  11.69019376637664 -0.16026639973997 -1.09752826882688
 6 -11.55152874287429  0.87458378137814 -0.68050758975898
 6  11.38565929292929 -0.30299945804580  2.56491693269327
 6  10.75341478247825 -2.35980646174617  1.60484860486049
 6 -11.77010920492049 -0.90684251225123  2.23341192119212
 6 -12.48447914991499 -2.45702114511451  0.44374627862786
 6  9.53596842284228  0.23535457235724  0.25188186818682
 6 -10.00657202420242 -1.06510059505951 -0.36255493649365
 6  11.09403216821682  0.40407487238724 -2.33055726272627
 6 -10.75213765276528  1.52554293829383 -1.76235554255426
 6  9.31668163516352  1.58888232613261  0.16268089408941
 6 -8.73915440044004 -0.50569412641264 -0.41534258025803
 6  8.02409839583958  2.31238097799780  0.20037570657066
 6 -7.59948509050905 -1.21972630573057 -0.55317064906491
 6  8.04318479947995  3.73937214211421  0.46316768276828
 6 -7.79971107710771 -2.67856760486049 -0.91709188418842
 6  6.87281268826883  1.63160315421542 -0.02813281928193
 6 -6.41188299129913 -0.50945642074207 -0.49401240724072
 6  5.50468102010201  2.06854456135614  0.03712862886289
 6 -5.11515263726373 -1.06118599469947 -0.70309248324833
 6  4.45057898889889  1.26468188208821 -0.14833046204620
 6 -3.99469488948895 -0.28847505360536 -0.32274960496050
 6  3.03247585258526  1.76359695759576 -0.08179651465147
 6 -2.58527229122912 -0.75563989408941 -0.38113577357736
 6  2.75445572657266  3.09906935583558  0.35905861486149
 6 -2.37577307130713 -2.19681698379838 -0.79976101610161
 6  2.05754532953295  0.73818098199820 -0.32218134313431
 6 -1.60873219621962  0.17782748864886 -0.20097192419242
 6  0.64834200320032  1.05869063696370 -0.12382650265026
 6 -0.18771764076408  0.02921081598160 -0.32582022202220
 1  13.55955522752275 -0.34446788188819  1.16460129812981
 1  13.56085132113211 -2.10430101120112  1.83641377337734
 1 -14.02080485748575 -0.64524468146815  1.77349455545555
 1 -14.41206257325732 -0.52875979897990 -0.10538215821582
 1  12.69377457945795 -2.94443918701870 -0.62017008200820
 1 -12.92147760876088  1.53869838783878  1.67120659365937
 1  13.87021795379538 -0.21604432453245 -1.60420630463046
 1  12.95341683468347 -1.58665089218922 -2.27142781878188
 1 -13.48046359035903  1.59835115611561 -1.20957889088909
 1 -12.69538814581458  2.69090115411541 -0.43150003300330
 1  11.84995361536154 -0.87769849594959  3.42200686168617
 1  10.29113497849785 -0.29488899899990  2.84022290329033
 1  12.01904117411741  0.65260499339934  2.63764289928993
 1  10.62761176417642 -3.15772635273527  0.85858124412441
 1  11.19570048704871 -2.85091000810081  2.48950887488749
 1  9.71448744974497 -2.09252024512451  1.84379932293229
 1 -11.69164606460646  0.22233780478048  2.56067996099610
 1 -10.97057156615662 -1.59188634363436  2.22592859685969
 1 -12.26120727972797 -1.58802970797080  3.08997159315932
 1 -13.34145392639264 -2.84783603560356  1.05359986898690
 1 -11.34843789178918 -2.78489051705171  0.73681873787379
 1 -12.76163652165217 -2.46381668966897 -0.50133860786079
 1  8.86894871887189 -0.59905822592259  0.40574475847585
 1 -10.27061679367937 -2.12915663966397 -0.44830446344635
 1  10.16741916091609  0.69001909980998 -2.18747345034503
 1  11.65216365136514  1.17383167406741 -2.65154486848685
 1  11.26224045904591 -0.39454994209421 -3.33341047104710
 1 -11.29313032003200  2.09850307930793 -2.52527402040204
 1 -10.03569910891089  0.62975361236124 -2.22643724972497
 1 -10.04960671567157  2.32276088908891 -1.25338893489349
 1  14.86441299429943 -3.16588549364937  0.26817871087109
 1 -15.24479391439144  1.53957887188719  1.63305151015102
 1  10.15495097709771  2.34552785668567 -0.26637595259526
 1 -8.75128182518252  0.68682078007801 -0.51991680468047
 1  8.52661552355235  4.25434528742874 -0.26718302130213
 1  6.91789517851785  4.14420982988299  0.56617245024502
 1  8.69718442844284  3.84994788168817  1.41680469846985
 1 -8.10698772877288 -3.23418034713471 -0.00531637063706
 1 -8.35633138913891 -2.78337735183518 -1.84999132913291
 1 -6.78341719071907 -3.31376502860286 -1.30470726272627
 1  6.87547921092109  0.48591233413341 -0.20436382838284
 1 -6.44459472147215  0.52468230813081 -0.22791516851685
 1  5.32706209020902  3.15823097099710  0.17775003000300
 1 -4.79770359035904 -2.01239254635464 -1.00461786178618
 1  4.30596369536954  0.29047729362936 -0.47006541754175
 1 -4.05837134113411  0.72026714361436  0.17605040104010
 1  3.07322510751075  3.31237527942794  1.34120032103210
 1  1.70523717671767  3.36275494639464  0.49205161316132
 1  3.17442146414641  3.90582841674167 -0.36448694469447
 1 -3.04067620462046 -3.04245139223922 -0.54071711571157
 1 -2.51528103610361 -2.28304942504250 -1.97865183218322
 1 -1.19348614761476 -2.30706088118812 -0.45428846484649
 1  2.48929608760876 -0.30744939603960 -0.44833273727373
 1 -2.04018341934193  1.24490440834083  0.06112949994999
 1  0.47346309330933  1.81202390829083  0.14852064706471
 1  0.13937670767077 -0.92925287538754 -0.67080466446645

