%nproc=4
%Mem=2GB
# td=(NStates=1) CAM-B3LYP/6-31G(d,p) 

TD

0 1
 8  14.83194141314131 -2.04539201030103 -0.24676352935294
 8 -14.76565316231623  2.08361021702170  0.74505359935994
 6  11.44067736173617 -1.28945958005801  1.15906926792679
 6 -12.33805143714371 -0.99420198019802  0.80519604160416
 6  12.95632436443644 -1.46288932703270  1.15715328732873
 6 -13.74774738373837 -0.21764792479248  0.82388128412841
 6  13.43084507850785 -1.93461898899890 -0.20483537253725
 6 -13.58821116111611  1.24960775877588  0.76620840484048
 6  11.01011953795380 -0.40010422652265  0.05158091209121
 6 -11.34423152415241 -0.32716374537454 -0.16937769176918
 6  13.07122134113411 -0.85782653975398 -1.23729460246025
 6 -12.79763052305231  1.68865684268427 -0.45725276727673
 6  11.74434918191819 -0.25309568266827 -1.08801731773177
 6 -11.60329391939194  0.82640896389639 -0.82874241324132
 6  11.09396012301230 -0.54078323642364  2.62744318531853
 6  10.63645308630863 -2.63164364546455  1.08929704970497
 6 -11.72276447044704 -1.00512234023402  2.15268384838484
 6 -12.59690039203920 -2.37801324432443  0.48144004800480
 6  9.70007483348335  0.34951598849885  0.12443912391239
 6 -10.15205657265727 -1.15503958895890 -0.40999968096810
 6  11.28688145314531  0.61587605250525 -2.31828603560356
 6 -10.73509594859486  1.53186357035704 -1.80343965096510
 6  9.42117208420842  1.61113455135514  0.05321994799480
 6 -8.94425491049105 -0.68094165116512 -0.31899294529453
 6  8.01721770777078  2.31725146504650  0.03490915991599
 6 -7.61480662266227 -1.27227156025603 -0.47600293229323
 6  8.14297477847785  3.79411761666167  0.35523688968897
 6 -7.65203630963096 -2.77774752285229 -0.70689086408641
 6  6.90593600060006  1.56721671557156 -0.11474148014801
 6 -6.44655645864586 -0.54583005810581 -0.23517652365237
 6  5.50532108410841  2.00655836273627  0.00232514851485
 6 -5.12533365536554 -1.05396527262726 -0.52151432543254
 6  4.49244317531753  1.22100751465146 -0.26478210721072
 6 -3.99374479447945 -0.26058226432643 -0.29792712271227
 6  3.07804040904090  1.66379697759776 -0.10453878887889
 6 -2.67119088308831 -0.75549988008801 -0.39082674267427
 6  2.87129741074107  3.02802225112511  0.39813252225223
 6 -2.36580207420742 -2.17649495159516 -0.84748578857886
 6  2.03115269026903  0.80898806270627 -0.15797492249225
 6 -1.68090941394139  0.20974067996800 -0.31589341634163
 6  0.68391556055606  1.12840760866087 -0.15109922992299
 6 -0.19871874087409  0.08134602950295 -0.27833547354735
 1  13.23933320532053 -0.49100253535354  1.52998783678368
 1  13.30873610961096 -2.15421600270027  2.10067019901990
 1 -14.40497327432743 -0.50311046804680  1.59690689668967
 1 -14.32366373337334 -0.40576749974997 -0.14874649464946
 1  12.86318152015201 -2.77968271137114 -0.34045211021102
 1 -12.91203666466647  1.44297881588159  1.78054752775277
 1  13.71838277027703  0.16500378027803 -1.17543342734273
 1  13.26034752775277 -1.24071629872987 -2.30070074607461
 1 -13.46085162916292  1.61301262226223 -1.44785271827183
 1 -12.54712331933193  2.75501756575658 -0.21865874887489
 1  11.71384000400040 -0.98197892399240  3.31992665366537
 1  10.07751361636164 -0.56076558665867  3.08611749274928
 1  11.62074134413441  0.54218395129513  2.74602373737374
 1  10.70310931393139 -3.20479105920592  0.19274466046605
 1  10.94964588158816 -2.99103402050205  1.92686261026103
 1  9.63762976397640 -2.38399939303930  1.51426636963696
 1 -11.41765866586659 -0.01322575157516  2.66387028002800
 1 -10.93588809780978 -1.60725788078808  2.21849785378538
 1 -12.35614677367737 -1.32223312831283  3.02514511051105
 1 -13.33032281328133 -2.78503975597560  1.23246775577558
 1 -11.57711075907591 -3.18113014101410  0.37371242724272
 1 -13.14725508350835 -2.40385069306931 -0.58835730973097
 1  9.10485230923092 -0.06278459855986  0.91025520952095
 1 -10.44365409740974 -2.21148487248725 -0.68204783778378
 1  10.18502092109211  0.63067316521652 -2.36668137113711
 1  11.70883931893189  1.77057134803480 -2.18843855785579
 1  11.62873710871087  0.38302781568157 -3.29984711471147
 1 -11.24410541754175  1.91611484048405 -2.70420191319132
 1 -9.94288982798280  0.72493313031303 -2.29599420542054
 1 -10.06798855385539  2.26781539453945 -1.22570616661666
 1  15.14582113511351 -2.39370827592759  0.61185307830783
 1 -15.08579801480148  2.02540745474547  1.67130533553355
 1  10.16185166716672  2.27000030393039 -0.59287860286029
 1 -9.10240693769377  0.41973407140714 -0.14713952695270
 1  8.97184004600460  4.26351620452045 -0.20676697969797
 1  7.04590797979798  4.43357876677668  0.18843467646765
 1  8.53791850185018  3.90734362126213  1.49694271227123
 1 -8.34999202920292 -3.43371030013001 -0.13746958595860
 1 -8.02438819481948 -2.88740775487549 -1.83607993799380
 1 -6.77319616861686 -3.22140579267927 -0.37603439543954
 1  7.12548421142114  0.56338008090809 -0.49400279227923
 1 -6.45009527152715  0.62134197409741 -0.09300167716772
 1  5.22340172417242  3.02950809870987  0.63321557655766
 1 -4.92691651165117 -2.13233454055406 -0.71987938793879
 1  4.66570966996700  0.23244149004900 -0.59335774677468
 1 -4.00436594059406  0.70807592449245  0.08427122312231
 1  3.46209399439944  3.29378342024202  1.34443064406441
 1  1.81109776277628  3.21074974587459  0.69290169816982
 1  3.10310433243324  3.88272610651065 -0.32677317331733
 1 -2.65509764676468 -2.94837198429843 -0.09816286028603
 1 -2.86862637063706 -2.50373149324933 -1.86691065806581
 1 -1.33284008300830 -2.30402057715772 -1.09824286028603
 1  2.26394355235524 -0.19371802290229 -0.42625052905291
 1 -2.04293369436944  1.12298221612161 -0.02599921292129
 1  0.48851459845985  2.04355706160616  0.14358015301530
 1  0.30475324532453 -0.91541149124913 -0.53710129412941

