%nproc=4
%Mem=2GB
# td=(NStates=1) CAM-B3LYP/6-31G(d,p) 

TD

0 1
 8  14.54001222022202 -2.33321079217922 -0.09366821982198
 8 -14.81498809580958  1.94479633563356  0.85933502750275
 6  11.30910420442044 -1.06634726882688  1.26417977897790
 6 -12.24876250825082 -1.00000256025603  0.82441796379638
 6  12.79571830383038 -1.49659269736974  1.19998757075708
 6 -13.68462107110711 -0.23724988498850  0.90702959895990
 6  13.19224121812181 -1.86267179427943 -0.14136902590259
 6 -13.51747408740874  1.24858765676568  0.81656344034403
 6  10.88384691069107 -0.24614883098310 -0.04016826282628
 6 -11.30887798879888 -0.24673570257026 -0.15953670767077
 6  13.06150036903690 -0.81338209530953 -1.20275114811481
 6 -12.91103186318632  1.71262923992399 -0.44224126612661
 6  11.76330107710771 -0.25931630473047 -1.14093260926093
 6 -11.63954754475447  0.94983130613061 -0.67775731473147
 6  11.03114384138414 -0.36604576267627  2.67459790079008
 6  10.52091153215322 -2.42118259935994  1.31132925292529
 6 -11.69033122712271 -0.99484131213121  2.28408698869887
 6 -12.53090379237924 -2.47445288828883  0.49905180918092
 6  9.51324615061506  0.34737577447745  0.11449812981298
 6 -10.07584895189519 -1.06402048704870 -0.39484816581658
 6  11.35407817281728  0.48439290419042 -2.39610381738174
 6 -10.62353479247925  1.58458884288429 -1.66249555655566
 6  9.33716368336834  1.64183762166217 -0.22396777077708
 6 -8.80504098909891 -0.56654021102110 -0.33620466646665
 6  8.10910689668967  2.32104184408441 -0.06522085308531
 6 -7.58036317831783 -1.29482381548155 -0.58304363636364
 6  8.15378585958596  3.79223742864286  0.49702106810681
 6 -7.67105821182118 -2.79955970407041 -0.93295347034703
 6  6.92295770277028  1.69236923082308 -0.27244725072507
 6 -6.39203100610061 -0.60294576967697 -0.38938194419442
 6  5.51787233923392  2.07405511241124  0.04506942294229
 6 -5.10219134113411 -1.12601247734773 -0.62269444344434
 6  4.52646657765777  1.29273468736874 -0.27077270627063
 6 -3.91248666866687 -0.29757596369637 -0.40221755175518
 6  3.11860446544654  1.61465206310631 -0.04077241224122
 6 -2.54048781278128 -0.73706803690369 -0.52727038703870
 6  2.87782806380638  3.04168361726173  0.43205591459146
 6 -2.33501899589959 -2.12716001810181 -1.03292433243324
 6  2.17147672267227  0.69428659255926 -0.24412353735374
 6 -1.50159148214821  0.16204591049105 -0.19143097009701
 6  0.75539270827083  0.88268303620362 -0.05649976997700
 6 -0.11683055205521 -0.03953605870587 -0.34882252225223
 1  13.51073034503450 -0.57322075717572  1.67150198819882
 1  12.99396463246325 -2.21813239433943  1.89166929892989
 1 -14.23152592959296 -0.55501565856586  1.90761796779678
 1 -14.32028339533954 -0.42345926892689  0.19975835583558
 1  12.70359556155615 -2.73467821092109 -0.50993905890589
 1 -13.08500396139614  1.54402892089209  1.80382985598560
 1  13.86517744974497 -0.10173289338934 -0.94347023102310
 1  13.30696218921892 -1.32298452555256 -2.20535121112111
 1 -13.78814435843584  1.69039036003600 -1.29923785678568
 1 -12.80733934093409  2.69017108110811 -0.43750063306331
 1  11.33097171717172 -0.96309703580358  3.58199286028603
 1  10.02681854685469 -0.00186969706971  2.70727960896090
 1  11.67918718871887  0.58335806870687  2.80598973397340
 1  10.35561456445645 -2.98510909100910  0.43881926792679
 1  10.95818673567357 -3.30561547864786  2.12135205920592
 1  9.45484148514852 -2.36903789688969  1.75954089708971
 1 -11.45509240924092  0.18485405640564  2.57163105610561
 1 -10.79465397439744 -1.51508866386639  2.39248525252525
 1 -12.36855801480148 -1.54051495649565  2.99089168516852
 1 -13.42494227522752 -2.82504375637564  0.91561607060706
 1 -11.64076712471247 -3.08736076407641  0.57553260926093
 1 -12.67914827282728 -2.62419272727273 -0.63902237623762
 1  8.89532135613561 -0.30113843394339  0.17925210921092
 1 -10.23189292129213 -2.22155587958796 -0.82958259125913
 1  10.30787320632063  0.83946404430443 -2.25920062306231
 1  12.05765420042004  1.36527081798180 -2.44104381838184
 1  11.57714194919492 -0.23004349144915 -3.25840297029703
 1 -11.16184719171917  1.89270249924992 -2.51203269626963
 1 -9.73261880088009  0.97937857485749 -1.96451105710571
 1 -10.21580333533353  2.55136374937494 -1.35935953195320
 1  14.42087864086409 -3.13440234533453  0.67405929892989
 1 -15.39843927892789  1.69941485548555  1.63388159315932
 1  10.23979946194619  2.30631393529353 -0.53052236723672
 1 -8.65675237223722  0.47074917291729  0.03229841684168
 1  9.06760962296230  4.23224307720772  0.04460815781578
 1  7.33222661166117  4.24292970187019  0.21967780078008
 1  8.41569627962796  3.70295318221822  1.60181319931993
 1 -8.27416444644464 -3.28807573667367 -0.21200703970397
 1 -8.15364112011201 -2.89129814391439 -1.98836516651665
 1 -6.66044489348935 -3.33371702380238 -1.10871766376638
 1  7.12655431843184  0.65978972187219 -0.72083547554756
 1 -6.62295255725573  0.41576141604160 -0.00599297629763
 1  5.45390477447745  3.09860500840084  0.53047530253025
 1 -5.09941376137614 -2.28471977907791 -0.70694809480948
 1  4.88697179617962  0.39654790069007 -0.61015942694269
 1 -3.85210071407141  0.84007912481248 -0.10230743474347
 1  3.16741452645264  3.14742878477848  1.49145534653465
 1  1.91943859685969  3.31481015191519  0.38914132213221
 1  3.35656967896790  3.82981081498150 -0.04664516051605
 1 -3.23332546954696 -2.63422056915692 -0.27193023702370
 1 -2.93017252525253 -2.10232135223522 -1.86220018701870
 1 -1.38813561256126 -2.49471964706471 -1.05754879087909
 1  2.56243340134013 -0.16477512861286 -0.67925582958296
 1 -1.86474587558756  1.07980789868987  0.11809519651965
 1  0.71851759875988  1.93258596449645  0.45352114711471
 1  0.09999276927693 -1.02028197829783 -0.53419100310031

