%nproc=4
%Mem=2GB
# td=(NStates=1) CAM-B3LYP/6-31G(d,p) 

TD

0 1
 8  14.89971819081908 -2.05512298339834 -0.60945979897990
 8 -14.76879347634763  2.07836969296930  0.70244933893389
 6  11.67101039503950 -0.99886052015201  1.28299166016602
 6 -12.33200083208321 -0.92081464146415  0.69385490749075
 6  13.23102183418342 -1.35208824692469  0.95856342834283
 6 -13.66986959595959 -0.18463462346235  0.72020091609161
 6  13.48281027502750 -1.96411193829383 -0.42507739673967
 6 -13.48928126812681  1.34383718171817  0.67720950495050
 6  10.99178770477048 -0.19493370947095  0.05580133413341
 6 -11.39905700670067 -0.25124615361536 -0.24861561556156
 6  13.05642986198620 -0.81127188428843 -1.41228210121012
 6 -12.80415117511751  1.84953293029303 -0.40571761376138
 6  11.65027977497750 -0.26453682678268 -1.16425494149415
 6 -11.65363895389539  0.92138846184618 -0.80137967696770
 6  11.55242596959696 -0.18413757185719  2.50643108410841
 6  10.84133357435744 -2.34602508360836  1.56369448944895
 6 -11.75386758075808 -0.68644047204720  2.12419099909991
 6 -12.62847354935494 -2.40325576857686  0.28573047704770
 6  9.72900772677268  0.35591662856286  0.31886856685669
 6 -10.13740510751075 -1.09994407940794 -0.48694737573757
 6  11.12687545254525  0.44995946084608 -2.35449965696570
 6 -10.75347778677868  1.54490487448745 -1.91113042004200
 6  9.33391335833583  1.67060049794980 -0.02535790979098
 6 -8.86863734873487 -0.57695125212521 -0.24084513051305
 6  8.00564655065507  2.20106984688469 -0.02916724772477
 6 -7.69615475747575 -1.30116444954495 -0.41911724372437
 6  7.98629911091109  3.69472767766777  0.28974034003400
 6 -7.68405951195119 -2.78789853795380 -0.90938111311131
 6  6.84319972697270  1.50550054395440 -0.04258426442644
 6 -6.47009881288129 -0.66264173927393 -0.29530253625363
 6  5.47575812781278  1.92450015691569  0.13966888288829
 6 -5.16515763776378 -1.20807068316832 -0.36412858685869
 6  4.41952588358836  1.13477889178918  0.05875024602460
 6 -4.10693611361136 -0.36950315641564 -0.21537886788679
 6  3.04263686868687  1.48646924482448  0.16905857085709
 6 -2.70506427042704 -0.79698402850285 -0.35491315131513
 6  2.75649593059306  2.83440288918892  0.58416112511251
 6 -2.37330282428243 -2.19297659975998 -0.83988502850285
 6  2.08108768376838  0.60645780968097 -0.04707383238324
 6 -1.68427975097510  0.07388709460946 -0.13475530253025
 6  0.61316848584858  0.78486325422542  0.03455933593359
 6 -0.34069293829383 -0.09899200430043 -0.23144078407841
 1  13.75110438243824 -0.42523595869587  1.38536337433743
 1  13.57356259225923 -1.90693127422742  1.73244337633763
 1 -14.48073085008501 -0.28593875087509  1.53235044104410
 1 -14.22799416641664 -0.40772769576958 -0.26658827882788
 1  13.17123232523252 -2.93749849294930 -0.59054711971197
 1 -12.95029049004900  1.54863938193819  1.58650812381238
 1  13.83971490349035  0.00771805170517 -1.26249213321332
 1  12.93882537553755 -1.21233346044604 -2.34291496749675
 1 -13.48441398539854  2.03580490149015 -1.23972190519052
 1 -12.29623823082308  2.79742180618062 -0.13305018801880
 1  12.28045666566657 -0.57539826592659  3.21939660066007
 1  10.55439130413041 -0.17364687478748  2.89581846284629
 1  11.88292756275628  0.85134486738674  2.24001313631363
 1  10.84033303630363 -3.28394897499750  0.76837222322232
 1  11.19395031203120 -2.78033295039504  2.46497642164216
 1  9.59409541054105 -2.24165515861586  1.58580352335234
 1 -11.48468536853685  0.19701527252725  2.58748264126413
 1 -10.66692120112011 -1.25060221522152  2.13446945094509
 1 -12.29535069406941 -1.20996190119012  2.91530412641264
 1 -13.41769155015501 -2.80479173117312  0.83285779477948
 1 -11.86569961796179 -2.98378040604060  0.61118617461746
 1 -12.75022538053805 -2.36432674067407 -0.74107258125813
 1  8.84321614561456 -0.42321064116412  0.47083126712671
 1 -10.16131586358636 -2.13837756175618 -0.99255888888889
 1  10.08404082308231  0.63532363026303 -2.15631033403340
 1  11.62752118711871  1.35166945784578 -2.69089880388039
 1  11.07644187918792 -0.05527601470147 -3.33758088808881
 1 -11.17817882488249  2.00256348534854 -3.01057255025503
 1 -10.02147768676868  0.73729436643664 -2.09217382338234
 1 -10.27588934393439  2.47643625662566 -1.64323791979198
 1  15.28275482848285 -2.47281618671867  0.30837273027303
 1 -15.14211364636463  1.65994090809081  1.48719692469247
 1  10.14645012701270  2.33520682458246 -0.38262757775778
 1 -8.70843754075407  0.40961305930593  0.11812699969997
 1  8.58693155515552  4.10257010991099 -0.50558686168617
 1  6.87156054505451  4.05925133403340  0.43085891889189
 1  8.49734444444444  3.85858874577458  1.30469348734873
 1 -8.60277730773077 -3.32976990609061 -0.58373421242124
 1 -8.15504126012601 -2.87618663276328 -1.82152848284828
 1 -6.65428427742774 -3.29574322642264 -0.81104789678968
 1  6.89112077507751  0.35935967886789 -0.16012940494050
 1 -6.32997325932593  0.33552339223922  0.10079770277028
 1  5.30203958795880  2.96840198809881  0.35599785478548
 1 -5.01036485648565 -2.08084939203920 -0.86804420442044
 1  4.66010910991099  0.13036128202820 -0.41294970597060
 1 -4.24402990699070  0.76463158005801  0.12525532153215
 1  3.20464824982498  3.09526356825683  1.59701590259026
 1  1.81798845184518  3.09018768966897  0.86724913291329
 1  3.10343436543654  3.49212704660466 -0.08257875387539
 1 -2.71505364236424 -2.88553570067007  0.11086804280428
 1 -3.10080958895890 -2.35414653475348 -1.78529249624962
 1 -1.44156095509551 -2.37162733783378 -1.10900393639364
 1  2.23440059805981 -0.31533018411841 -0.43514141814181
 1 -1.93616301730173  1.18357827572757  0.30677406440644
 1  0.22555830283028  1.82183488938894  0.52476827182718
 1 -0.11315854585459 -1.15135508560856 -0.42793037703770

