%nproc=4
%Mem=2GB
# td=(NStates=1) CAM-B3LYP/6-31G(d,p) 

TD

0 1
 8  14.58209642864287 -2.34816228732873 -0.38861771477148
 8 -14.75683228022802  2.09377123312331  0.57687678167817
 6  11.34787808180818 -1.18005863996400  1.10520388138814
 6 -12.27220485248525 -0.92914547454745  0.98661418341834
 6  12.87498623062306 -1.54870790889089  1.08996656865687
 6 -13.63887649664967 -0.17458361836184  0.90184908090809
 6  13.19461145514551 -1.94608013511351 -0.28960384938494
 6 -13.47831017101710  1.35606840484048  0.64338612261226
 6  10.86088461446145 -0.29688390449045  0.00999675367537
 6 -11.21154825582558 -0.32569359835984 -0.09310006400640
 6  13.00562478147815 -0.78387914501450 -1.26282715571557
 6 -12.82648340834083  1.58446642364236 -0.69789683168317
 6  11.61470621762176 -0.13713408650865 -1.08234675067507
 6 -11.52592618261826  0.73980030303030 -0.87065660466047
 6  11.07853858085809 -0.44179333743374  2.51250169116912
 6  10.50335977697770 -2.42884336543654  1.09591771177118
 6 -11.52108430243024 -0.63651547954795  2.33808238823882
 6 -12.59250995299530 -2.40235567856786  0.85417732173217
 6  9.66220104610461  0.46643768066807  0.23077975797580
 6 -10.06192755975598 -1.06032011701170 -0.24565324632463
 6  11.27364012901290  0.61081554645465 -2.38074228122812
 6 -10.71557399639964  1.22930331433143 -1.99348865586559
 6  9.34998496549655  1.69686312421242 -0.03540891489149
 6 -8.82889337433743 -0.52575613261326 -0.30764181018102
 6  8.10771675767577  2.36155589548955  0.17781345034503
 6 -7.52053719571957 -1.34215854895490 -0.57186251825183
 6  7.98247872887289  3.70856906180618  0.75678704470447
 6 -7.71602270827083 -2.91571131923192 -0.65711588658866
 6  6.95038044504450  1.66601659555956 -0.06641664766477
 6 -6.34552635563556 -0.63840931603160 -0.45624863086309
 6  5.64003455545555  2.09345705260526  0.22661757775778
 6 -5.06884800680068 -1.12787266336634 -0.73763593759376
 6  4.46329026002600  1.33304871877188 -0.20463609260926
 6 -3.97947336733673 -0.30824703080308 -0.34919224922492
 6  3.08092069706971  1.70195079297930  0.07131879687969
 6 -2.55806957095710 -0.68205253535354 -0.55422308230823
 6  2.80658093909391  3.02549199809981  0.67177988698870
 6 -2.44705019901990 -2.11317861996200 -1.14214525452545
 6  2.14797437243724  0.72763992789279 -0.16851597659766
 6 -1.58309963296330  0.16551625752575 -0.31961378837884
 6  0.75079224822482  0.85086985488549  0.00018589858986
 6 -0.13811268026803 -0.07556966206621 -0.48430607060706
 1  13.38951822382238 -0.83078651375138  1.32354719271927
 1  13.16450168616862 -2.38786936803680  1.67788792079208
 1 -14.34486726372637 -0.26411656865687  1.83233043904390
 1 -14.29004037103710 -0.58935585858586 -0.00236185618562
 1  12.49577477947795 -2.77567231033103 -0.41944000900090
 1 -12.91796725772577  1.81866638463846  1.30211968496850
 1  13.71325225722572  0.16357363726373 -1.12074795879588
 1  13.09382087508751 -1.35064729182918 -2.29701037703770
 1 -13.42381792579258  1.30342166316632 -1.60115804880488
 1 -12.64737334433443  2.67311937593759 -0.75227211021102
 1  11.03275189518952 -1.12006273237324  3.36761142214221
 1  9.98708457345735 -0.08000751085109  2.36958583958396
 1  11.64006327632763  0.45498523142314  2.79967910291029
 1  10.47420642364236 -2.95538611871187  0.22378776477648
 1  10.77188810581058 -3.20737565466547  1.96250617461746
 1  9.45596159715972 -2.05079607270727  1.26405134813481
 1 -11.31906880688069  0.44840041104110  2.68616250925093
 1 -10.74710921992199 -1.28611576657666  2.33491949594959
 1 -12.20138129712971 -1.03580448544855  3.12597519351935
 1 -13.36230601160116 -2.69883113511351  1.56842135113511
 1 -11.73426647464746 -3.24134616261626  1.18448350435044
 1 -12.96995735373537 -2.50421072907291 -0.11407988198820
 1  8.94778660266027 -0.01414973507351  0.75984016801680
 1 -10.10008974097410 -2.27215093909391 -0.36712634563456
 1  10.23088550755075  1.09461955985599 -2.63314801780178
 1  12.04781321632163  1.45732002290229 -2.37294700870087
 1  11.50705494049405 -0.13438392549255 -3.20638776877688
 1 -11.49965097209721  1.31994522352235 -2.80895238823882
 1 -9.83190872987299  0.48828946594659 -2.12562716871687
 1 -10.22126388138814  2.39860847384738 -1.90879447544754
 1  14.64875142814281 -2.99181808690869  0.45819771277128
 1 -15.14092352735273  1.56670158415842  1.36894509950995
 1  10.31025650765076  2.26320962486249 -0.24599391439144
 1 -8.83623032003200  0.59169126712671 -0.01743655665567
 1  8.59782264426443  4.48641849474947  0.25614931193119
 1  6.79920330933093  4.08277368626863  0.73364919791979
 1  8.27087179717972  3.94408729562956  1.68704172217222
 1 -7.98425545554555 -3.26335326442644  0.35262942394239
 1 -8.22722847884788 -3.22160117421742 -1.49004533453345
 1 -6.75091394039404 -3.44465811791179 -0.63535032703270
 1  7.01261292429243  0.60745448834883 -0.28017140914091
 1 -6.45264552655266  0.44453429332933 -0.18862123912391
 1  5.65156454045405  3.00650579847985  0.65604785978598
 1 -5.01887570757076 -2.18111941904190 -0.99618701870187
 1  4.55710880988099  0.33863210911091 -0.69497790879088
 1 -3.97717322132213  0.74844996189619  0.02144494049405
 1  3.24379216421642  3.10186422832283  1.74564076507651
 1  1.80327698069807  3.05660433133313  0.67735014301430
 1  3.08281230323032  3.83409124302430 -0.13356385238524
 1 -3.08035017201720 -2.91178832593259 -0.59714275827583
 1 -2.71331083908391 -2.40243136323632 -2.14717868486849
 1 -1.45350214921492 -2.47576775187519 -1.21572460846085
 1  2.69555671367137 -0.33284193529353 -0.50583848784878
 1 -1.97677707870787  1.20757067496750 -0.09358597159716
 1  0.32230797779778  1.75232793869387  0.64396019101910
 1  0.07197996799680 -1.04494444454445 -0.64187177117712

