%nproc=4
%Mem=2GB
# td=(NStates=1) CAM-B3LYP/6-31G(d,p) 

TD

0 1
 8  14.66312453145315 -2.33519099019902 -0.55269412241224
 8 -14.97315391239124  1.79386124212421  0.38586768076808
 6  11.46917021102110 -1.12896353045304  1.22919628062806
 6 -12.36585421742174 -1.04230679067907  0.79619514151415
 6  12.92129086108611 -1.50978401650165  0.99252682468247
 6 -13.75744835383538 -0.30683684368437  0.55061395739574
 6  13.29435142914291 -2.03596912401240 -0.47122201120112
 6 -13.60541288128813  1.19259205720572  0.50446223022302
 6  10.99694822082208 -0.39572378847885 -0.17150139613961
 6 -11.39334643564356 -0.40103113211321 -0.17515826982698
 6  13.05469968896890 -0.82677343444344 -1.43835470847085
 6 -12.91062182218222  1.63186116311631 -0.78882592459246
 6  11.62737748474848 -0.30406077917792 -1.29409792579258
 6 -11.58321191119112  0.86251257425743 -0.85590512951295
 6  11.36599732673267 -0.32846200430043  2.41130157115712
 6  10.66587602860286 -2.52426290739074  1.34617273727373
 6 -11.79311150515051 -0.88730055805581  2.19511809180918
 6 -12.52152285428543 -2.50431587458746  0.40754265826583
 6  9.73091791779178  0.23414445134513  0.17944462446245
 6 -10.09469083608361 -1.04689877487749 -0.32377105810581
 6  11.04163692869287  0.40337480238024 -2.46906111311131
 6 -10.67437987698770  1.31582196619662 -1.94568387538754
 6  9.46016598359836  1.53604704260426 -0.03992936693669
 6 -8.89617010201020 -0.56282983998400 -0.23138418441844
 6  8.07485347134713  2.24733447334733  0.18897456645665
 6 -7.53702884488449 -1.18409274237424 -0.47324265626563
 6  8.07500798179818  3.63044124902490  0.53820518651865
 6 -7.61424253025302 -2.67480722882288 -0.76649682468247
 6  6.86428183518352  1.56709670357036 -0.14950495649565
 6 -6.41297310031003 -0.42737821292129 -0.26327933393339
 6  5.60338089008901  2.15305301220122  0.09496441244124
 6 -5.02643376537654 -0.92527240334033 -0.44708688268827
 6  4.49354328532853  1.42521793569357  0.01132550355035
 6 -3.96594201420142 -0.31470767686769 -0.09577690769077
 6  3.08925153015302  1.83910450835084  0.19669133413341
 6 -2.58549231323132 -0.64479880998100 -0.17925558555856
 6  2.99535981698170  3.20993044194419  0.62342505150515
 6 -2.22357785178518 -2.03548085018502 -0.61466250625063
 6  2.11721129612961  0.88913607750775  0.01640251525153
 6 -1.63974529752975  0.28538824472447  0.12412058505851
 6  0.68648581758176  1.05519028692869  0.07751363136314
 6 -0.20559942894289  0.09010690559056  0.07855021502150
 1  13.75494476647665 -0.56669010411041  1.01115595359536
 1  13.29201443744375 -2.21849243034303  1.87601773377338
 1 -14.35811858885889 -0.56033619061906  1.42489969596960
 1 -14.25402676967697 -0.77259418241824 -0.43253487348735
 1  12.61036623862386 -2.96958170127013 -0.70076814181418
 1 -13.11484694569457  1.42736725472547  1.65975544854485
 1  13.75269620162016  0.01136841674167 -1.52350823482348
 1  13.05969746274627 -1.32308453555356 -2.61770244624462
 1 -13.68717426142614  1.47853917491749 -1.42691062406241
 1 -12.65907451445145  2.59872193619362 -0.56981386438644
 1  11.90515913591359 -0.80349107520752  3.26500116111611
 1  10.34093995899590 -0.16958646874687  2.74386326732673
 1  11.85041431143114  0.63312304520452  2.38885802080208
 1  11.02460146314631 -3.08521910201020  0.63303868986899
 1  10.99235015201520 -2.97326224332433  2.35209513351335
 1  9.52016801780178 -2.08757975107511  1.24197914091409
 1 -11.68333523352335  0.19034460546055  2.46732062506251
 1 -10.78076258525853 -1.17330448544854  2.12618862286229
 1 -12.47175833483348 -1.49617052205220  2.98174077007701
 1 -13.31504128512851 -2.83106435843584  1.16216072507251
 1 -11.68161120912091 -2.90167219521952  0.70285534153415
 1 -12.91245160316032 -2.90831113911391 -0.37057553155316
 1  9.12349417341734 -0.37445576567657  0.83701788578858
 1 -10.05758549054906 -2.02493621762176 -0.81844147714771
 1  9.94473689268927  0.61516161406141 -2.26553125612561
 1  11.37739617461746  1.39671396229623 -2.75194490849085
 1  11.15584981998200 -0.33711419851985 -3.54762189218922
 1 -11.37577858485849  1.73773700270027 -2.71336282928293
 1 -10.05145068406841  0.59828046504650 -2.32345695169517
 1 -10.02759451445145  2.14942355535553 -1.53959755575558
 1  14.85668222122212 -3.33253215831583 -0.16141424842484
 1 -15.51586102110211  1.76177109110911  1.16009421442144
 1  10.20560604260426  2.15871917581758 -0.44999431443144
 1 -8.63595029202920  0.51871396939694  0.07419260626063
 1  8.85850871287129  3.97763761666167  0.00044374137414
 1  7.12602599159916  4.12677808670867  0.45879171217122
 1  8.30276498649865  3.72402528942894  1.79699271727173
 1 -8.05292232223222 -3.13805073417342  0.10870503150315
 1 -8.34733048904890 -2.77498651275127 -1.46841317131713
 1 -6.75963481248125 -3.15772942504250 -0.95012180418042
 1  6.82389405240524  0.56864060696070 -0.44751814381438
 1 -6.58144840684068  0.67090693059306 -0.05224760176018
 1  5.48071745574557  3.12820796869687  0.48229048404841
 1 -4.95444926492649 -1.98036934403440 -0.53446084608461
 1  4.54326742574257  0.38359660556056 -0.35196360736074
 1 -4.20953645764576  0.74794991189119  0.15218801480148
 1  3.37124490949095  3.27471151305130  1.74267046804680
 1  1.94703135613561  3.51614028492849  0.60220262826283
 1  3.29486350835083  4.00675850975098 -0.04290478647865
 1 -2.50061219821982 -2.84262140924092  0.11539849584958
 1 -2.66021552955296 -2.45714683478348 -1.48848281528153
 1 -1.05549234823482 -2.05800597569757 -0.84452748874888
 1  2.51889904790479 -0.06068471957196 -0.11017892189219
 1 -2.13576297729773  1.25287520542054  0.51614500150015
 1  0.45287103410341  2.10332303820382  0.26534232923292
 1  0.06374914491449 -0.78411836193619 -0.09305688968897

