%nproc=4
%Mem=2GB
# td=(NStates=1) CAM-B3LYP/6-31G(d,p) 

TD

0 1
 8  14.73720193919392 -2.18577604870487 -0.40170902390239
 8 -14.81606820382038  2.02795465146515  0.71638073207321
 6  11.51003429742974 -1.06662729682968  1.27353071407141
 6 -12.39819745174517 -0.86232879287929  0.81744726672667
 6  13.02766149814981 -1.34021705980598  1.04572214421442
 6 -13.66536914591459 -0.19739589958996  0.66194509050905
 6  13.40412240624062 -1.85225075217522 -0.25089997899790
 6 -13.53142548254825  1.27997079507951  0.76741852585259
 6  10.93278180418042 -0.34008822492249 -0.13830807680768
 6 -11.36178327932793 -0.40313134213421 -0.26766752075208
 6  13.04498871787179 -0.91854261136114 -1.40702157515752
 6 -12.73262402240224  1.79678765576558 -0.47869491149115
 6  11.65371011801180 -0.33344371747175 -1.29059757575758
 6 -11.59898348834883  0.85565188818882 -0.88821836083608
 6  11.35833656065607 -0.20034919301930  2.52301274227423
 6  10.75099454045405 -2.41114159525953  1.46432455245525
 6 -11.76305849984998 -0.87273910191019  2.18585716571657
 6 -12.59854055605561 -2.42190763376338  0.49158106210621
 6  9.66430125612561  0.27962899979998  0.18810549054905
 6 -10.04810617761776 -1.21159524452445 -0.41528020902090
 6  11.09496226122612  0.29351381628163 -2.50988519551955
 6 -10.66842928192819  1.41717210121012 -1.97439674667467
 6  9.36410637763776  1.56006944484448 -0.34857023102310
 6 -8.85481596659666 -0.62748630563056 -0.42118316431643
 6  8.08957494349435  2.23682342224222  0.03595926492649
 6 -7.57479262126213 -1.35394972807281 -0.54270960296030
 6  8.29525000600060  3.62071027592759  0.49885125112511
 6 -7.67604871087109 -2.72484223232323 -0.91498167316732
 6  6.87453286028603  1.59858985288529 -0.05155516151615
 6 -6.51667347034703 -0.63780925602560 -0.33776678267827
 6  5.50853140514051  2.14323203010301  0.30666558255826
 6 -5.17686880888089 -1.12061193729373 -0.50720289428943
 6  4.45955988698870  1.31915732963296  0.10465483648365
 6 -4.10009542954295 -0.36563276937694 -0.24547187718772
 6  3.07971057605761  1.69859045694569  0.21179284428443
 6 -2.63932769676968 -0.76266059615962 -0.29483714371437
 6  2.87350763176318  3.11674112301230  0.68185089408941
 6 -2.36515200920092 -2.11698900100010 -0.93210425042504
 6  2.02016159115912  0.79352651655166  0.00391126612661
 6 -1.73345466846685  0.21771147704770 -0.11913374037404
 6  0.72914008300830  0.97922269016902  0.04883076307631
 6 -0.24321319031903  0.03525142004200 -0.15379301930193
 1  13.66454572657266 -0.47847128222822  0.98349318731873
 1  13.36499173517352 -2.15858643974397  1.86624675667567
 1 -14.26148892589259 -0.77500765776578  1.62797000300030
 1 -14.11934330133013 -0.65919284228423 -0.35878749874988
 1  12.62574777677768 -2.65631037413741 -0.32625069006901
 1 -13.06926238723872  1.69657417541754  1.70703017601760
 1  13.81888282028203  0.03157043694369 -1.43622950695069
 1  12.98772026502650 -1.30529275637564 -2.50054073007301
 1 -13.38093363736374  1.80301162216222 -1.22256018901890
 1 -12.66153476047605  2.84528659265927 -0.42207909090909
 1  11.79690831083108 -0.86959768586859  3.18077273827383
 1  10.33842970797080  0.23314380428043  2.60095897689769
 1  11.87018628862886  0.68180791369137  2.36033516851685
 1  10.93083208620862 -3.05946652675268  0.56344173017302
 1  11.02930384738474 -2.93054797189719  2.45484540854085
 1  9.66116211721172 -2.29097009010901  1.50622556555656
 1 -11.47491439143914  0.21008657965797  2.56152004500450
 1 -10.98676318531853 -1.60306746174617  2.16358236223622
 1 -12.49385054405441 -1.33930483548355  2.68733132913291
 1 -13.61793157415742 -2.91360261226123  0.86143065206521
 1 -11.77533058105811 -2.96550857885789  0.94972002800280
 1 -12.47581793979398 -2.48257856585659 -0.68493696769677
 1  8.79442126612661 -0.42549086918692  0.57476166016602
 1 -10.22207193919392 -2.14755847984799 -0.61666129912991
 1  9.82830524952495  0.57801789968997 -2.43249795279528
 1  11.53899233423343  1.33217750865087 -2.78686840084008
 1  11.15303953895390 -0.53832431953195 -3.28322545254525
 1 -11.26469747674767  1.86259948894889 -2.71981347434743
 1 -9.93421896089609  0.54053469046905 -2.50056466246625
 1 -10.18011976697670  2.45536414941494 -1.72778637463746
 1  14.97598415141514 -2.76082498759876  0.13357525052505
 1 -15.23320275527553  1.73802871687169  1.49514771977198
 1  10.27452293429343  2.10936424032403 -0.86439575457546
 1 -8.80448714571457  0.47840993899390 -0.06729154215422
 1  8.72643550555055  4.13315316821682 -0.31185748874888
 1  7.44345773477348  4.04018942784279  0.78548438143814
 1  8.89133384338434  3.89604249114911  1.34183720172017
 1 -8.22972000200020 -3.24037096619662 -0.08172401140114
 1 -8.62037779377938 -3.04541355545555 -1.64012034203420
 1 -6.74102295129513 -3.06986063816382 -1.50775756775678
 1  6.80270193319332  0.48290203310331 -0.53213660566057
 1 -6.72001226322632  0.42786262616262 -0.11458383538354
 1  5.52210159415942  3.02863801170117  0.63490574557456
 1 -4.82193601360136 -2.11357266436644 -0.76566396639664
 1  4.60753385238524  0.19425767166717  0.25942753175318
 1 -4.11977748174817  0.51726684358436  0.26674947094709
 1  3.48040582558256  3.27308135003500  1.60544674567457
 1  1.72128878187819  3.24361303220322  0.99859226722672
 1  3.03984800680068  3.85032286618662  0.11718122212221
 1 -2.74007614461446 -2.83919106620662 -0.21682472647265
 1 -3.08523803180318 -2.43336445654565 -1.80394436143614
 1 -1.33463026202620 -2.63662383748375 -1.33766680268027
 1  2.51961911991199 -0.18700735183518 -0.16391429542954
 1 -2.19235863686369  1.28886880478048  0.29412279927993
 1  0.31188693569357  2.02845555145515  0.38962475747575
 1  0.00413318331833 -1.13869381948195 -0.34773235723572

