%nproc=4
%Mem=2GB
# td=(NStates=1) CAM-B3LYP/6-31G(d,p) 

TD

0 1
 8  14.72502072107211 -2.30595806690669 -0.37481633463346
 8 -14.92061865886589  1.68419027502750  0.84708380238024
 6  11.54868816281628 -1.12086272037204  1.32255561656166
 6 -12.29059669166917 -1.02936549654966  0.91459698169817
 6  12.97457618961896 -1.46216925502550  1.15810338233823
 6 -13.61564417341734 -0.33290945094509  0.90838973497350
 6  13.33542553655366 -1.93532906000600 -0.19001389038904
 6 -13.64919725972597  1.23669646764676  0.84459624362436
 6  10.98380690669067 -0.36596081218122  0.06922267626763
 6 -11.41849895089509 -0.31971300030003 -0.16926768076808
 6  13.03491771077108 -0.95403616071607 -1.23155402840284
 6 -13.05800656065607  1.57111508850885 -0.44488153015302
 6  11.65193994099410 -0.41902227532753 -1.12228074407441
 6 -11.73219680968097  0.89909623262326 -0.76217575657566
 6  11.31904263126313 -0.26349550765077  2.59029947094709
 6  10.76901634263426 -2.40809129022902  1.40492861286129
 6 -11.69209140314031 -0.84126595459546  2.25613419341934
 6 -12.46896759875988 -2.54483992699270  0.65178708270827
 6  9.64192901890189  0.29696073297330  0.27436411641164
 6 -10.10348171517152 -0.97672175717572 -0.40766944794479
 6  11.19480224522452  0.38474293919392 -2.34663887088709
 6 -10.91930436943694  1.52989337333733 -1.85650495749575
 6  9.38029799679968  1.57308074597460 -0.04564993899390
 6 -8.89032951795179 -0.40753431043104 -0.36013705970597
 6  8.10909689568957  2.32088182808281  0.03907957695770
 6 -7.60330547254726 -1.16887122022202 -0.54544987698770
 6  8.11071155215522  3.76209441434143  0.24569593559356
 6 -7.66665777177718 -2.67369711781178 -0.78847902290229
 6  6.95376078307831  1.57607760166017 -0.06375638163816
 6 -6.43328513151315 -0.46563203830383 -0.64802780878088
 6  5.57518807080708  2.01236894379438  0.15416033203320
 6 -5.08142926492649 -1.00707058315832 -0.84048622262226
 6  4.49696362736274  1.25706112001200 -0.05494112311231
 6 -3.99986540654065 -0.17893409950995 -0.52909023902390
 6  3.11855446044604  1.69660025792579  0.05649731473147
 6 -2.58466223022302 -0.65147947804780 -0.57374503450345
 6  2.89988026902690  3.12225167406741  0.48169087808781
 6 -2.34254974897490 -2.03969127122712 -1.18435947594759
 6  2.18571814681468  0.74946211011101 -0.07945707070707
 6 -1.59772109510951  0.24190389628963 -0.28955078207821
 6  0.65090225922592  1.02162693059306  0.02245812581258
 6 -0.19708857785779  0.05218311321132 -0.28243588358836
 1  13.45840511251125 -0.41126456155616  1.35920075807581
 1  13.41558679467947 -2.16563714481448  2.07644777677768
 1 -14.17478025502550 -0.78758891589159  1.89300650665067
 1 -14.33454482148215 -0.84728165116512  0.15551393139314
 1  12.68153335533554 -2.86154089718972 -0.50247831283128
 1 -13.03089855085508  1.64051856985699  1.80016948994899
 1  13.63364429642964 -0.13002572267227 -1.07479336333633
 1  13.07104859785979 -1.37828005510551 -2.25180585658566
 1 -13.61117666166617  1.44925624662466 -1.39821775477548
 1 -12.71151975897590  2.61166323032303 -0.70731761476148
 1  11.75403402340234 -0.69074980108011  3.44037869886989
 1  10.17692355735574 -0.03323283338334  2.61871075207521
 1  11.85484475447545  0.69191892479248  2.40783991899190
 1  11.04227323032303 -3.06016659675968  0.60040542654265
 1  10.86747766476648 -2.89660457755776  2.50995091909191
 1  9.54570057105711 -2.34918591169117  1.25098004100410
 1 -11.87364426442644  0.24459003000300  2.68340223322332
 1 -10.58404291329133 -1.22680983598360  2.41385738973897
 1 -12.18777993699370 -1.54101500650065  2.86117871387139
 1 -13.17551733273327 -3.02075332733273  1.47748225722572
 1 -11.46351939993999 -3.12679470747075  0.80379543554355
 1 -12.84387474547455 -2.37969827782778 -0.52894136813681
 1  8.99845166916692 -0.43395171527153  0.75496968096810
 1 -10.19384911691169 -2.08205192919292 -0.49655928892889
 1  10.02947536653665  0.83301339923992 -2.43334803780378
 1  11.72785122012201  1.16537082798280 -2.54084379837984
 1  11.14184841984198 -0.35558604570457 -3.20522765276528
 1 -11.72769377637764  2.01477470647065 -2.43776526952695
 1 -10.06696223522352  0.77423806080608 -2.08882348834884
 1 -10.27752950795080  2.60323893689369 -1.58447204320432
 1  15.12244879787979 -2.78467737283728  0.44916680968097
 1 -15.26496593159316  1.28152306630663  1.57166537153715
 1  10.36234171617162  2.17354065796580 -0.34944425942594
 1 -9.07397409440944  0.58465056305631 -0.14819963296330
 1  8.88320118211821  4.21004085698570 -0.30384668766877
 1  7.04590797979798  4.24567997689769  0.04169000200020
 1  8.18638334833483  3.96100898779878  1.39243226122612
 1 -7.76332336233623 -3.21341827092709  0.34501866286629
 1 -8.67767352335234 -2.89270828492849 -1.50232656265627
 1 -6.71118996799680 -2.89897354945495 -1.17089388138814
 1  7.20723238623862  0.52083582648265 -0.26326971897190
 1 -6.42901316331633  0.55917575747575 -0.22200457745775
 1  5.37090647464747  3.09798494639464  0.63643589858986
 1 -5.08128194819482 -2.01031233833383 -1.47260466046605
 1  4.72745584458446  0.17116536243624 -0.32345075607561
 1 -4.04841034503450  0.67751286818682 -0.10860806480648
 1  3.75124290929093  3.46307034893489  1.34811101210121
 1  1.79682633563356  3.35851452235224  0.74310671867187
 1  3.28626264826483  3.68214604850485 -0.33234373037304
 1 -2.73473561056106 -2.92229937703770 -0.61400444444444
 1 -2.76249575757576 -2.20479159925993 -2.13137710471047
 1 -1.17997479647965 -2.20000017511751 -1.36719975597560
 1  2.36090324832483 -0.19524817591759 -0.43623152715272
 1 -1.83459286028603  1.11583150105010  0.15992937993799
 1  0.40876662366237  2.22189489538954  0.12803859885989
 1  0.15059782978298 -0.81650160026003 -0.85955353935394

