%nproc=4
%Mem=2GB
# td=(NStates=1) CAM-B3LYP/6-31G(d,p) 

TD

0 1
 8  14.73911213021302 -2.16177364846485 -0.62219107210721
 8 -14.90262685968597  1.86669852585259  0.56957605160516
 6  11.40775406940694 -1.11885251935194  1.20916427742774
 6 -12.22772040404040 -0.84991755175518  0.84941046304630
 6  12.97210594259426 -1.37325036313631  0.95046261826183
 6 -13.66800940994099 -0.28292445244524  0.71242013801380
 6  13.27683967796780 -1.90511603870387 -0.42536742574257
 6 -13.66945928592859  1.28882168016802  0.59272105610561
 6  10.92266079207921 -0.37621183728373  0.07620337433743
 6 -11.35055215621562 -0.25797682668267 -0.18342909690969
 6  12.88209242824282 -0.91794255135514 -1.35227610061006
 6 -12.89591035103510  1.67434541154115 -0.62184922692269
 6  11.57780252725273 -0.28463883698370 -1.12247076307631
 6 -11.61193478347835  0.83280960396040 -0.84310384938494
 6  11.33495422242224 -0.29369852795280  2.51120156115612
 6  10.68022746374637 -2.43557403850385  1.37979609960996
 6 -11.70180237423742 -0.84270609860986  2.22983156315632
 6 -12.43395409740974 -2.35784122712271  0.61118302230223
 6  9.62300712671267  0.35883692059206  0.32552923292329
 6 -10.12234360136014 -1.08138222322232 -0.38069675067507
 6  11.15815858085809  0.50570503540354 -2.40233444044404
 6 -10.57269970897090  1.60749113311331 -1.83865317231723
 6  9.36590655765576  1.67125056295630  0.08597322332233
 6 -8.92327281228123 -0.51585514251425 -0.26852789878988
 6  8.11515750175017  2.25647538743874  0.11987765676568
 6 -7.61611675367537 -1.26676100920092 -0.47992332433243
 6  8.16253673467347  3.74381258615862  0.42585395139514
 6 -7.64333543954395 -2.74063381148115 -0.97217739273927
 6  6.93333874087409  1.49159915381538  0.02940293429343
 6 -6.49887169016902 -0.53647912301230 -0.29156216221622
 6  5.57552810481048  1.95512321922192  0.13438835483548
 6 -5.07273839583958 -1.15329520562056 -0.52075424942494
 6  4.46168009900990  1.22099751365136  0.08920329132913
 6 -4.02567798779878 -0.33559976607661 -0.23451078107811
 6  3.12112471747175  1.70043064096410  0.14932659765977
 6 -2.62261602560256 -0.79807413751375 -0.37527518751875
 6  2.85899618061806  3.11727117601760  0.45636834583458
 6 -2.33690918491849 -2.20874817691769 -0.70159119911991
 6  2.11865144014401  0.77433459735974 -0.08971809680968
 6 -1.62335365836584  0.07228693459346 -0.13111493849385
 6  0.73902107110711  0.86169093699370 -0.03289740974097
 6 -0.20656952595260 -0.06239834493449 -0.20403804380438
 1  13.42547181918192 -0.46490992609261  1.21734657265727
 1  13.08807404340434 -2.13743432453245  1.71360149214921
 1 -14.20114289128913 -0.67679783678368  1.48642584858486
 1 -14.39687105410541 -0.48824574757476 -0.22125374537454
 1  12.86722192419242 -2.87859260236024 -0.61558962396240
 1 -13.30804626562656  1.73581809980998  1.69168864186419
 1  13.67018795079508 -0.14358707880788 -1.47285316931693
 1  13.04570606360636 -1.34856708380838 -2.42248292429243
 1 -13.69998554255426  1.40168148914891 -1.49365729872987
 1 -12.65533414041404  2.79773183718372 -0.69655653865387
 1  11.95408402840284 -0.91476220232023  3.28105276627663
 1  10.43633949894989 -0.02028153825383  2.66847572857286
 1  11.99698896889689  0.58481821472147  2.44657379237924
 1  10.84707371037104 -3.05971655175518  0.59132451845184
 1  10.95416633363337 -2.94776969406941  2.36051597559756
 1  9.60116611761176 -2.19493048614861  1.47139208220822
 1 -11.73419031903190  0.19276484748475  2.76291018401840
 1 -10.67279178817882 -1.14045120012001  2.32633863786379
 1 -12.28790994999500 -1.37233813881388  2.80391298729873
 1 -13.18178795979598 -2.82420367236724  1.25731024002400
 1 -11.38932198019802 -3.03334536253625  0.74299935593559
 1 -12.75014537253725 -2.52225253325332 -0.53254172817282
 1  8.78834065806581 -0.27167548764876  0.94352853685369
 1 -10.33259299129913 -2.01015473947395 -1.00097973097310
 1  10.10059247824782  0.84151424932493 -2.47122182518252
 1  11.60045848084809  1.43314760566057 -2.65274498849885
 1  11.36633086808681 -0.06288677577758 -3.41320845084508
 1 -11.00903191019102  2.10507373637364 -2.69262075507551
 1 -9.92504804380438  0.86156679367937 -2.29355396139614
 1 -10.06296805180518  2.34706331933193 -1.46247984398440
 1  14.96894344734473 -2.66072497759776  0.10147204020402
 1 -15.36432586758676  1.69791470547055  1.34998320332033
 1  10.16786226822682  2.33611691559156 -0.46857617261726
 1 -8.89643634063406  0.50554265226523  0.15941112811281
 1  9.24233709570957  4.29817967086709 -0.08022432543254
 1  7.19871326032603  4.26194160306031  0.11083691669167
 1  8.31250596059606  3.78953184008401  1.48466148414841
 1 -8.23706073607361 -3.36441337043704 -0.15637147614761
 1 -8.19145490149015 -3.03287230133013 -1.93494982498250
 1 -6.71020986998700 -3.29264291639164 -1.01846863886389
 1  6.82717438043804  0.41195493839384 -0.34236762876288
 1 -6.48346860886089  0.53168300820082  0.16610423342334
 1  5.60347973197320  3.02851799969997  0.26232848784878
 1 -4.82901672167217 -2.15246655375538 -0.70118751875188
 1  4.55931903090309  0.28563680958096 -0.21119953095310
 1 -4.00559606360636  0.80273539043904 -0.29796700070007
 1  3.53385117011701  3.62878692059206  1.16050225122512
 1  1.81767842084208  3.09208787968797  0.79039144714471
 1  3.19211323332333  3.60866870077008 -0.48325882188219
 1 -2.50058219521952 -2.80640778787879  0.27474443044304
 1 -2.98139764776478 -2.52517363746375 -1.51626559355936
 1 -1.19862666166617 -2.30728090319032 -1.20720375637564
 1  2.61155831383138 -0.31116976807681 -0.38041594559456
 1 -1.75523492449245  1.15013493139314  0.16767015401540
 1  0.42950869786979  1.95737844374437  0.25793158815882
 1  0.16321909190919 -0.94012396249625 -0.60902848684868

