%nproc=4
%Mem=2GB
# td=(NStates=1) CAM-B3LYP/6-31G(d,p) 

TD

0 1
 8  14.71843006200620 -2.25123259435944 -0.41800065306531
 8 -14.91451804880488  1.84430628662866  0.51062015601560
 6  11.44486778077808 -1.05959659375938  1.07867122812281
 6 -12.24111174317432 -0.94823738373837  0.78930445244524
 6  12.95623435543554 -1.29138217631763  1.06440401240124
 6 -13.62492510151015 -0.18657481748175  0.76044494049405
 6  13.33682567656766 -1.92514804190419 -0.30859574857486
 6 -13.53363570357036  1.40080287828783  0.68789057305731
 6  10.89328785478548 -0.31854607070707 -0.10528477447745
 6 -11.38485558655866 -0.26312734173417 -0.22177293129313
 6  12.96488070707071 -0.92839359645965 -1.51349222222222
 6 -12.84721548154816  1.69505748274827 -0.59719676167617
 6  11.53907865486549 -0.33158353145315 -1.31383989999000
 6 -11.54251784178418  0.86825314831483 -0.84394393339334
 6  11.30691141814181 -0.15946510461046  2.36192663366337
 6  10.65101454245425 -2.29283976507651  1.33464158415842
 6 -11.69469166316632 -0.78459028702870  2.17986656665667
 6 -12.55580628262826 -2.33383882688269  0.41652355635564
 6  9.62146697269727  0.34828586548655  0.06996367636764
 6 -10.03646501350135 -1.02997708270827 -0.39160784178418
 6  11.13883664866487  0.33073753865387 -2.53856806380638
 6 -10.73297573657366  1.50557094109411 -1.91048035503550
 6  9.28109807680768  1.62618605650565 -0.15207058105811
 6 -8.90848133313331 -0.47192074907491 -0.28650969696970
 6  8.04145013101310  2.34174391429143  0.16709237823782
 6 -7.51591673367337 -1.21001533463346 -0.48758409040904
 6  8.27874835583558  3.83228143304330  0.28369973597360
 6 -7.71205231123112 -2.76782653075308 -0.90385056005601
 6  6.93151855885589  1.55430542444244  0.17659765376538
 6 -6.43495529852985 -0.66892236733673 -0.26404941094109
 6  5.59356990899090  2.05819352625263  0.34677959395940
 6 -5.07878900090009 -1.18533840994099 -0.50502267626763
 6  4.46762069306931  1.36258167206721  0.25569994099410
 6 -3.96872229222922 -0.36323252935294 -0.28918624862486
 6  3.07579018401840  1.60114071197120  0.43652531753175
 6 -2.65269903390339 -0.81804613471347 -0.33261092109211
 6  2.73778405940594  2.97197664656466  0.80759346834683
 6 -2.34026952095210 -2.21589889198920 -0.81980302030203
 6  2.18598817381738  0.68756592049205  0.08568944394439
 6 -1.60627195019502  0.09072877877788 -0.15354718171817
 6  0.72681985098510  0.82073684158416  0.12969884988499
 6 -0.17681655065507 -0.09256136123612 -0.20091773177318
 1  13.50118939093909 -0.30204363946395  1.52010684868487
 1  13.26241147714772 -1.92259284038404  1.90306043804380
 1 -14.20153293029303 -0.63744390139014  1.53071027702770
 1 -14.07935930293029 -0.63976089908991 -0.25264688468847
 1  12.64104930693069 -2.67790253335333 -0.34011207620762
 1 -12.98695415641564  2.03718823682368  1.32299177217722
 1  13.68484941694169 -0.10523324342434 -1.71131701570157
 1  12.99469096209621 -1.58305053215321 -2.36928760476048
 1 -13.50519606360636  1.46530785178518 -1.42844077707771
 1 -12.64213282028203  2.76761882588259 -0.61152803580358
 1  11.61963058305831 -0.76834756085609  3.35400006100610
 1  10.40072593759376  0.17065755565557  2.59643852485249
 1  11.91558082808281  0.74093382628263  2.30366950195019
 1  10.39584858785878 -2.90644122422242  0.45085047104710
 1  11.07538845584559 -3.12703762086209  1.97592751675167
 1  9.62497849884988 -2.04343533663366  1.53632857585759
 1 -11.59257615761576  0.16321189218922  2.43494738773877
 1 -10.74540904990499 -1.14502165716572  2.04700070407041
 1 -12.27521868086809 -1.37311821682168  2.97293988998900
 1 -13.32852263326333 -2.77650890289029  1.05761027002700
 1 -11.73491653965396 -3.08202023002300  0.65149020502050
 1 -12.67548790679068 -2.65315562356236 -0.73622209620962
 1  8.84625644964496 -0.11995031513151  0.96274045804580
 1 -9.94498423042304 -2.06292001600160 -0.46489612261226
 1  9.98734115311531  0.42603270117012 -2.67298200120012
 1  11.71965040004000  1.09484377527753 -2.55652536653665
 1  11.33484771977198 -0.24824531163116 -3.45167229722972
 1 -11.40255126212621  1.97211044004400 -2.53781527452745
 1 -10.07425296429643  0.76165680268027 -2.34132873887389
 1 -10.10211196619662  2.41278989198920 -1.59211280728073
 1  14.91017757075707 -2.92482138723872  0.14781667466747
 1 -15.45015445044504  1.91031594559456  1.40284848984898
 1  10.10227570957096  2.21115441934193 -0.50622993799380
 1 -8.84974167116712  0.52872497049705 -0.33290810381038
 1  9.08889175117512  4.13970382328233 -0.49918622162216
 1  7.30135352435243  4.26802221112111 -0.07150131713171
 1  8.38994370437044  4.18558144504450  1.18980199819982
 1 -8.19523655365536 -3.34467139623962 -0.08873471247125
 1 -8.26676243224322 -2.98951796589659 -1.77512384238424
 1 -6.68634748374838 -3.25669932203220 -1.29260605260526
 1  7.17613927692769  0.49549329222922 -0.26077946994699
 1 -6.47116737873787  0.31910175007501  0.09539716271627
 1  5.64211359535954  3.14214936283628  0.66488874387439
 1 -5.00952477247725 -2.07412871997200 -0.94719211921192
 1  4.64908800780078  0.18016626252625 -0.06495490649065
 1 -4.11263676767677  0.73518863576358 -0.17508471247125
 1  3.29546733173317  3.07299134103410  1.62049825082508
 1  1.69156580958096  3.01702037293729  0.90031243924392
 1  3.13861788378838  3.62727056095610  0.01331083508351
 1 -3.01206334333433 -3.04547169426943 -0.27892093609361
 1 -3.00613012101210 -2.36859797989799 -1.78484245124512
 1 -1.34935173417342 -2.36809698479848 -0.88366140214021
 1  2.61972913091309 -0.14176282738274 -0.31665956995700
 1 -1.95875527652765  0.96798671657166  0.25726911391139
 1  0.38159390639064  1.74856756265627  0.40717651265127
 1  0.13580635063506 -1.10721067116712 -0.57123470747075

