%nproc=4
%Mem=2GB
# td=(NStates=1) CAM-B3LYP/6-31G(d,p) 

TD

0 1
 8  14.73952217121712 -2.23084055515552 -0.30644949794980
 8 -14.74451104810481  2.07119897589759  0.56482557655766
 6  11.47949124312431 -1.06570720482048  1.09097245824582
 6 -12.49942757475748 -0.92836539653965  0.70758628062806
 6  13.00414914691469 -1.39995303340334  1.03001057305731
 6 -13.81515412441244 -0.17513367336734  0.64346324232423
 6  13.29573156715672 -2.03800932803280 -0.34389927892789
 6 -13.55629796979698  1.35501829982998  0.58107989198920
 6  10.95750427642764 -0.21160537663766 -0.07216146214621
 6 -11.33287038803880 -0.23669469846985 -0.09278003200320
 6  13.01526574557456 -0.95377613471347 -1.34156502950295
 6 -12.72342310231023  1.76958493549355 -0.60149719171917
 6  11.71766651365137 -0.21434180728073 -1.16215473147315
 6 -11.59900349034903  0.89606592959296 -0.88237777677768
 6  11.26106683368337 -0.28259741784178  2.37637807880788
 6  10.63365280628063 -2.44830531163116  1.30927904790479
 6 -11.96235842984298 -1.08697052505251  2.13109168916892
 6 -12.67376807880788 -2.36650209320932  0.23800570457046
 6  9.60694552055206  0.41476251315132  0.04859153915392
 6 -10.08345971297130 -1.05843992899290 -0.39240792179218
 6  11.30251301630163  0.62332679757976 -2.37225143214321
 6 -10.57782022102210  1.60796118011801 -1.75237454445445
 6  9.35014498149815  1.67774121202120 -0.21756713071307
 6 -8.89186967196720 -0.57473103010301 -0.17134818081808
 6  7.99774576057606  2.35045478537854  0.04382005100510
 6 -7.61676681868187 -1.31995632873287 -0.27882321432143
 6  8.15313579457946  3.81035924082408  0.32893425942594
 6 -7.66641774777478 -2.83482323042304 -0.71608178317832
 6  6.93491889888989  1.56724671857186 -0.03154316031603
 6 -6.44874667766777 -0.70273574867487 -0.13709671567157
 6  5.53359391139114  1.95117282418242  0.06905182118212
 6 -5.08262938493849 -1.21236111221122 -0.33851602560256
 6  4.48963289428943  1.14045945984598 -0.00249587858786
 6 -3.94247966796680 -0.45174138023802 -0.12055938593859
 6  3.11543414841484  1.63484408230823  0.16677834283428
 6 -2.54851861586159 -0.77914224432443 -0.36062372237224
 6  2.94739502050205  3.08128757765777  0.67325003400340
 6 -2.35131062506251 -2.17667496959696 -0.91494253425343
 6  2.10847042204220  0.62839000290029  0.03754462946295
 6 -1.59825114811481  0.12434214011401 -0.13904573157316
 6  0.68058522752275  0.89097386528653  0.10148602860286
 6 -0.20926979597960 -0.02525463056306 -0.16041368136814
 1  13.61278055005500 -0.47312074717472  1.11031586958696
 1  13.21567680368037 -1.99984056515652  1.90118025002500
 1 -14.57829060606061 -0.41838199519952  1.42915012101210
 1 -14.27154852185219 -0.42002892589259 -0.42202382238224
 1  12.72059726172617 -2.97697244034403 -0.49320738573857
 1 -12.95350081108111  1.50422494049405  1.65531500450045
 1  13.80293122512251 -0.23684640474047 -1.36815269926993
 1  13.13128462146215 -1.22311453855386 -2.23036371237124
 1 -13.40647619161916  1.53320464146415 -1.36472440544054
 1 -12.32979158615862  2.88970103410341 -0.58330521352135
 1  11.51122974297430 -1.00013073917392  3.08889355035504
 1  10.20472633763376 -0.08520803090309  2.71149003000300
 1  11.75038430843084  0.72828256115612  2.29662879787979
 1  11.24862386538654 -3.05126570667067  0.65987137313731
 1  10.81880279727973 -2.61273619071907  2.43589351335134
 1  9.49517551855186 -2.23841483458346  0.96447139013901
 1 -11.48839573957396 -0.16345077407741  2.56983087608761
 1 -10.94967947694770 -1.55298245324533  2.24790079407941
 1 -12.64730588958896 -1.47778868386839  2.85078767476748
 1 -13.57361714271427 -2.94028528052805  0.67478198719872
 1 -11.87216026402640 -3.16321834983498  0.47228228422842
 1 -12.90693105110511 -2.42889319731973 -0.81577005100510
 1  8.85791761576158 -0.20150847094709  0.79182336633663
 1 -10.28905863786379 -2.02752647664766 -0.57913754675468
 1  10.15854827382738  0.93912401030103 -2.28925362836284
 1  11.73902233723372  1.65931022192219 -2.27230694469447
 1  11.42500673567357  0.15688520142014 -3.57302443244324
 1 -11.25406641364136  1.99952318131813 -2.47747924092409
 1 -10.03382892189219  0.97170780778078 -2.26205081108111
 1 -10.15848760376038  2.59472808580858 -1.25881947794780
 1  14.70960751375137 -2.90474938003800  0.45344723772377
 1 -15.43097253225322  1.74539945394539  1.26131433643364
 1  10.34234971697170  2.19588289218922 -0.72621193619362
 1 -8.77221391839184  0.36414851285129  0.13018820582058
 1  8.45577843984398  4.40218007090709 -0.63143944694469
 1  7.07794118311831  4.01957736663666  0.63209904290429
 1  8.79963467346735  3.94607749464946  1.22192521052105
 1 -8.49169619961996 -3.30877780688069 -0.01877771677168
 1 -8.09862561856186 -2.61546056015602 -1.91713804380438
 1 -6.60270911991199 -3.22997664976498 -0.52102889488949
 1  7.28669033203320  0.50074381728173 -0.67208060006001
 1 -6.43498376037604  0.42990283018302  0.02213983698370
 1  5.38687807180718  2.90323547144714  0.40592284728473
 1 -4.91849566956696 -2.19700100720072 -0.74904230423042
 1  4.51441454045405  0.06392463836384 -0.36519493049305
 1 -4.25698120212021  0.63153827072707 -0.19886709070907
 1  3.61545933093309  3.16967100900090  1.59620582158216
 1  1.96159281228123  3.31318998989899  0.88659106710671
 1  3.20141416341634  3.85586342024202 -0.03544404040404
 1 -2.74990712771277 -2.75387253435344 -0.17080012401240
 1 -2.79654916291629 -2.35250637073707 -1.80947491449145
 1 -1.28849564856486 -2.55252542764276 -1.10183321932193
 1  2.32643980198020 -0.40055870697070 -0.27616552055205
 1 -1.92379178017802  1.08689860776078  0.12178556555656
 1  0.16332207920792  1.91206391229123  0.27550334533453
 1  0.15615838583858 -0.89405935603560 -0.32201978597860

