%nproc=4
%Mem=2GB
# td=(NStates=1) CAM-B3LYP/6-31G(d,p) 

TD

0 1
 8  14.62091031003100 -2.28441591269127 -0.42490134313431
 8 -14.84557115411541  1.81356321232123  0.63177227122712
 6  11.39650294429443 -1.17165779987999  1.21157451845185
 6 -12.34846247824782 -1.00830339033903  0.83725924792479
 6  12.83309204120412 -1.59265230333033  1.02817038903890
 6 -13.66493910291029 -0.28972513251325  0.74943383938394
 6  13.20564255825582 -2.13623915101510 -0.34203909290929
 6 -13.59298163816382  1.24839763776378  0.64631641564156
 6  10.93826235223522 -0.32398661476148 -0.06118036403640
 6 -11.38362546354635 -0.42504353335334 -0.29294004800480
 6  12.94530874987499 -0.99281003810381 -1.40294116711671
 6 -12.86663742374238  1.63287126412641 -0.60253729572957
 6  11.59207395439544 -0.34313468656866 -1.20730924692469
 6 -11.68353194319432  0.77411373437344 -0.89810934993499
 6  11.41797252425243 -0.31505066316632  2.51887232823282
 6  10.47496693769377 -2.42349283038304  1.38890701070107
 6 -11.71525371937194 -0.67937976597660  2.22822140214021
 6 -12.30007070907091 -2.54601004400440  0.65060696469647
 6  9.54193901990199  0.35443648054805  0.16960364036404
 6 -10.01988335533553 -1.04906899189919 -0.52732141314131
 6  11.07435020002000  0.43542800770077 -2.41894610161016
 6 -10.84514695369537  1.37304768876888 -2.01168047504750
 6  9.33494346134613  1.66090952885289 -0.18045341934193
 6 -8.78077856285629 -0.52268582558256 -0.18272931893189
 6  8.03935992199220  2.26533627352735  0.11743741274127
 6 -7.47287242924292 -1.28587292039204 -0.43383871587159
 6  8.23434391539154  3.81856006090609  0.21986335233523
 6 -7.59634074007401 -2.65778552665267 -0.94688486348635
 6  6.90923633063306  1.55874586848685  0.13616361036104
 6 -6.37823962696270 -0.56741221632163 -0.22831583758376
 6  5.55158571057106  2.07352505940594  0.27891280728073
 6 -5.05773689568957 -1.14569444554455 -0.53526570057006
 6  4.49353328432843  1.34936034993499  0.14314868586859
 6 -3.93039845984598 -0.30963716981698 -0.30915824582458
 6  3.08340094509451  1.75413601150115  0.31023268826883
 6 -2.51262502650265 -0.68701303140314 -0.52783044304430
 6  2.86120640164016  3.24086353525353  0.67927063606361
 6 -2.19195468946895 -1.99942724482448 -1.12484352435244
 6  2.04270384538454  0.99933709760976  0.04531540654065
 6 -1.61769309230923  0.20197990389039 -0.01630345734573
 6  0.70763793279328  1.10243501140114  0.04160004000400
 6 -0.17497636663666  0.08882677757776 -0.12388002800280
 1  13.24545381738174 -0.63877731283128  1.14108894689469
 1  13.14137937393739 -2.40353093419342  1.59728986098610
 1 -14.10897367436744 -0.58445860286029  1.69902710871087
 1 -14.28443981098110 -0.87067399039904  0.02635101510151
 1  12.57211241324132 -2.92872761586159 -0.58141620662066
 1 -12.69026448744874  1.57315183318332  1.52484195719572
 1  13.99170010201020 -0.25975869596960 -1.01640752475248
 1  12.94401589458946 -1.33887611471147 -2.37458813481348
 1 -13.51145668966897  1.48342966396640 -1.34306223922392
 1 -12.61310991799180  2.81578364236424 -0.31481836483648
 1  11.70259887988799 -0.81329205530553  3.26072073307331
 1  10.51952781778178  0.00106059595960  2.93753263426343
 1  12.00058932893289  0.60647037993799  2.29493862886289
 1  10.55603460646065 -3.02741332143214  0.80993637963796
 1  10.68968988598860 -2.94608952605261  2.43532345634563
 1  9.31691769276928 -2.53887488058806  1.44690963396340
 1 -11.44486138613861  0.44542011301130  2.48211210421042
 1 -10.63408791779178 -0.89321647664766  2.23949995399540
 1 -12.16905806480648 -1.28582948794879  3.19846244224422
 1 -13.06831661266127 -2.93600485248525  1.29978448744875
 1 -11.18256130413041 -3.11766379437944  0.86989204520452
 1 -12.57537789578958 -2.92823313131313 -0.24204267826783
 1  8.60380220422042 -0.11238955905591  0.80068425242524
 1 -10.22162189418942 -2.03593731773177 -0.47293692669267
 1  10.05167758675868  0.80742083998400 -2.14506920992099
 1  11.63586202120212  1.43265755665567 -2.70721043504351
 1  10.97179141414141 -0.17191767886789 -3.13708083808381
 1 -11.42178318531853  1.51820504950495 -2.94508600160016
 1 -10.09099463846385  0.66467710471047 -2.23618822482248
 1 -10.17987974297430  2.15139375237524 -1.69929352535253
 1  14.88449500250025 -3.32497140224022  0.00341223422342
 1 -15.27306674167417  1.98588350235024  1.47511571657166
 1  10.08523400540054  2.22924622852285 -0.86254556955696
 1 -8.74351104810481  0.31597369536954  0.22302748974898
 1  8.67661052305231  4.10919077197720 -0.90508681168117
 1  7.36256964596460  4.42008741764176  0.53023885688569
 1  8.93268797879788  4.10707359425943  0.91458447644765
 1 -7.79845687568757 -3.54674160326033 -0.15235107410741
 1 -8.27019277527753 -2.69946896099610 -1.80728705870587
 1 -6.53691254025403 -3.05309896199620 -1.33583037503750
 1  6.86823848684868  0.45203894679468 -0.31557494949495
 1 -6.35491575357536  0.39475931583158  0.19907753075307
 1  5.37656704070407  3.06563171107111  0.51454370937094
 1 -4.75225904590459 -2.17424873197320 -1.10433783378338
 1  4.53739683868387  0.26612485838584 -0.19660807180718
 1 -4.25632113611361  0.72406752365237  0.04313710971097
 1  3.39594737973797  3.66285032693269  1.52226842784278
 1  1.73621027402740  3.42717138803880  0.69608201620162
 1  3.21985600760076  3.84078191209121 -0.18065856185619
 1 -2.44352648964896 -2.92273942104210 -0.59161220522052
 1 -2.60016952495250 -2.10428154825482 -2.18203217021702
 1 -1.11052785178518 -2.07334750985098 -1.09976301230123
 1  2.40244740274027 -0.06375502660266 -0.22825072907291
 1 -2.01779118011801  1.10389030693069  0.24222760976098
 1  0.34950069706971  2.01108381428143  0.38179397439744
 1  0.19905267526753 -0.65774572467247 -0.62824040804080

