%nproc=4
%Mem=2GB
# td=(NStates=1) CAM-B3LYP/6-31G(d,p) 

TD

0 1
 8  14.70358857785779 -2.12492996409641 -0.39965881888189
 8 -14.66415301230123  2.16915877187719  0.79261835583558
 6  11.45498879287929 -1.09320995509551  1.12795615661566
 6 -12.32542017401740 -0.95498805880588  0.72199772177218
 6  12.92838157015702 -1.33859689778978  1.01640921292129
 6 -13.73265587458746 -0.03534969496950  0.65326422242224
 6  13.35062705670567 -1.93757928502850 -0.34596948594859
 6 -13.46982932293229  1.41992479047905  0.70524230823082
 6  10.94975350135014 -0.19184340044004 -0.04637888388839
 6 -11.27541464246424 -0.29368039703970 -0.24166492049205
 6  13.00898511751175 -0.92862361946195 -1.36153702670267
 6 -12.71468222822282  1.72942091909191 -0.63685072707271
 6  11.65405015201520 -0.21249162226223 -1.21031954795480
 6 -11.38016160616062  0.88938526152615 -0.76852639163916
 6  11.15442616961696 -0.31247040514051  2.42778321932193
 6  10.63823326432643 -2.42486296739674  1.31929004900490
 6 -11.85974816881688 -0.98395022302230  2.23862244224422
 6 -12.68029873187319 -2.37090253325333  0.28853075707571
 6  9.59715454145415  0.46957799469947  0.16708338833883
 6 -9.97136850385039 -1.12995708070807 -0.38796747774777
 6  11.20317308230823  0.57252171707171 -2.43954816181618
 6 -10.51401384038404  1.53507389138914 -1.94280358735874
 6  9.32280224722472  1.71808524642464 -0.06721209520952
 6 -8.79571005600560 -0.56446000300030 -0.25884693069307
 6  8.02479846584658  2.29773951385138  0.11883755275528
 6 -7.54152929492949 -1.29618395149515 -0.47592292429243
 6  8.02350283128313  3.73978218311831  0.50528189418942
 6 -7.62587369336934 -2.85538528662866 -0.87684785978598
 6  6.88035344234423  1.52367236113611 -0.09530953695370
 6 -6.36472827582758 -0.64350982608261 -0.19360236623662
 6  5.56169672167217  1.92410011691169  0.13490840684068
 6 -5.01432255425543 -1.16151602770277 -0.39153132713271
 6  4.34395832683268  1.14015942984298 -0.08226385538554
 6 -3.99268468846885 -0.41954816091609 -0.21659898989899
 6  3.09619222422242  1.59783038093809  0.09229089408941
 6 -2.68134189818982 -0.83539786988699 -0.38928658865887
 6  2.67876815781578  3.00003945284528  0.46135884488449
 6 -2.33624911891189 -2.24511181328133 -0.73973501350135
 6  2.04285386038604  0.67347451135114  0.04436531153115
 6 -1.70473179617962  0.08371807770777 -0.06504833183318
 6  0.68374554355436  0.80219498739874  0.02560844084408
 6 -0.24861373037304 -0.21361346644664 -0.10765840584058
 1  13.54542381438144 -0.45814925002500  1.13088792679268
 1  13.26542177817782 -1.87807838893889  1.96268640064006
 1 -14.45973875087509 -0.40052020902090  1.54699190519052
 1 -14.20642200920092 -0.42627955095510 -0.27959957995800
 1  12.76512171417142 -2.89972471557156 -0.42158022302230
 1 -12.79397485848585  1.67001151915192  1.45483495649565
 1  13.74889582158216 -0.07986070617062 -1.22756864086409
 1  13.14747624062406 -1.54371659875988 -2.24772544854485
 1 -13.13614915891589  1.82574389538954 -1.41486941994199
 1 -12.36178478547855  2.92022408640864 -0.61967885088509
 1  11.60239885988599 -0.67690841694169  3.43528818981898
 1  10.14026989198920 -0.16916642674267  2.71345022602260
 1  11.65087435743574  0.74924465736574  2.18389752475248
 1  10.70584958795880 -3.18418899899990  0.44772015801580
 1  11.08413933093309 -2.83286820392039  2.28544846884688
 1  9.58307430843084 -2.16785777887789  1.50910585358536
 1 -11.92004890489049  0.03047861886189  2.84616850985099
 1 -10.92152666166617 -1.61429858485849  2.41996800080008
 1 -12.55483664266427 -1.41938284328433  2.69647224322432
 1 -13.72283206420642 -2.41582283428343  0.78112262126213
 1 -12.04060710871087 -3.06868889688969  0.38897395339534
 1 -12.77326768476848 -2.32688299629963 -0.78007648164816
 1  8.81377320132013 -0.08182650275028  0.70030421442144
 1 -10.02417214921492 -2.30019374337434 -0.81482111511151
 1  10.22820523952395  1.50480057795780 -2.15773047604760
 1  12.31176961196120  1.10732502340234 -2.81081079507951
 1  10.71568580358036 -0.23907439453945 -3.17017414741474
 1 -11.11231223822382  2.18321155015502 -2.61260275327533
 1 -10.16018155715572  0.56778741574157 -2.46285089108911
 1 -9.62869462446245  2.08311692469247 -1.54325792179218
 1  14.94881143414341 -2.85748465356536  0.07471936493649
 1 -14.88155759075908  2.04186910091009  1.68767697269727
 1  10.08896437843784  2.37024032793279 -0.40922023702370
 1 -8.80505720272027  0.47792989098910  0.17963315031503
 1  8.61947480948095  4.48252810571057 -0.24184048704870
 1  7.03355674467447  4.22466787568757  0.53500933393339
 1  8.52617732773277  3.85991887878788  1.51252427042704
 1 -8.29061609160916 -3.18089501860186 -0.11977781678168
 1 -8.26767252325233 -2.71797081118112 -1.84274060406041
 1 -6.53717256625663 -3.15882953505351 -1.15301209320932
 1  7.22614427742774  0.61065480838084 -0.30132352435243
 1 -6.34874513651365  0.33535337523752  0.20414803780378
 1  5.31323070707071  2.91358650655066  0.16257851285129
 1 -5.05827964796480 -2.18290959805981 -0.79242664266427
 1  4.65009810881088  0.11134938083808 -0.24171258225823
 1 -3.93926943094309  0.57922303920392  0.30603339933993
 1  3.24713249824982  3.28816285818582  1.21263746474648
 1  1.59842649564956  3.01147981888189  0.67350975897590
 1  3.05560958295829  3.58228606250625 -0.31928242424242
 1 -2.76902903990399 -2.94529167626763  0.00698765476548
 1 -2.73595310331033 -2.46584770487049 -1.54406837383738
 1 -1.30295709470947 -2.43397357245725 -0.69798283428343
 1  2.43019017701770 -0.35065371647165 -0.23212111611161
 1 -2.07266666766677  1.24844476237624 -0.01594820782078
 1  0.24681042804280  1.94503720962096  0.08452424742474
 1  0.13831660166017 -1.31241119121912 -0.28571615561556

