%nproc=4
%Mem=2GB
# td=(NStates=1) CAM-B3LYP/6-31G(d,p) 

TD

0 1
 8  14.50751897089709 -2.56095356645665 -0.46485533853385
 8 -14.89631622862286  1.79097095309531  0.57101619561956
 6  11.39716301030103 -0.99580021412141  1.23019638063806
 6 -12.36316394839484 -1.07498005800580  0.78301382338234
 6  12.87327605960596 -1.49328236633663  1.02181975397540
 6 -13.62913552255226 -0.29987614761476  0.71855075107511
 6  13.13581557555755 -2.02662818991899 -0.28395328432843
 6 -13.53192553255326  1.30718351635164  0.68392017601760
 6  10.97597612361236 -0.25146936303630 -0.05829007500750
 6 -11.34958205920592 -0.42507353635364 -0.20223097709771
 6  12.88787300630063 -1.08707946504650 -1.41813268626863
 6 -12.71023178317832  1.66221419841984 -0.49533657565757
 6  11.61816656365637 -0.27383775687569 -1.21739025502550
 6 -11.47239082908291  0.78004432743274 -0.79481902090209
 6  11.39013974097410 -0.12237139523952  2.48960940194019
 6  10.55882532353235 -2.26590707180718  1.45454357435744
 6 -11.65434762876288 -0.81246307430743  2.28847742774277
 6 -12.44627532953295 -2.51609705270527  0.48470037403740
 6  9.66153097909791  0.38187922482248  0.18746542654265
 6 -10.03837520452045 -1.19956404140414 -0.33884256525653
 6  11.00955372037204  0.20714517941794 -2.48093230023002
 6 -10.64116655565557  1.35014539853985 -1.77347665466547
 6  9.34874484148415  1.67477091499150 -0.15061043504350
 6 -8.89036952195219 -0.56508006500650 -0.20736178217822
 6  8.16172215821582  2.36235597549755  0.08572424142414
 6 -7.57446258825883 -1.25842017511751 -0.50510584258426
 6  8.04263474447445  3.76228443334333  0.37871923792379
 6 -7.49602070807081 -2.73453320142014 -0.99441961696170
 6  6.98125353235324  1.63877387128713 -0.11743174917492
 6 -6.42888469146915 -0.52714818991899 -0.37991099709971
 6  5.60114066606661  1.99482718961896  0.24225914191419
 6 -5.11412253425343 -0.93146302240224 -0.57758993299330
 6  4.53199713071307  1.31218663256326  0.07820219121912
 6 -3.96467188718872 -0.25635184128413 -0.29512684268427
 6  3.14311691669167  1.58683928182818  0.31355302030203
 6 -2.62646641064106 -0.55343967406741 -0.59250691069107
 6  2.86581686268627  3.15123457235724  0.69377208620862
 6 -2.28280377437744 -1.91957926002600 -1.08353939393939
 6  2.10208978397840  0.86713387728773  0.08277915291529
 6 -1.67167849084909  0.27221692759276 -0.09512133913391
 6  0.62523969296930  1.08223299119912  0.00355623562356
 6 -0.24311318031803  0.02376027092709 -0.15033267326733
 1  13.52884215621562 -0.64424785988599  1.16139097709771
 1  13.03476871287129 -1.91479206030603  2.02526265826583
 1 -14.33042581958196 -0.64218437543754  1.51062826882688
 1 -14.18833020002000 -0.56535345834583 -0.35504712471247
 1  12.49232443444344 -2.93270801390139 -0.45541360636064
 1 -13.09890535153515  1.69809432743274  1.65060453345335
 1  13.76375730773077 -0.39525224532453 -1.62255813981398
 1  12.87553904690469 -1.58303053015302 -2.34203487948795
 1 -13.33620916491649  1.63581490249025 -1.31916984998500
 1 -12.08881748874887  2.68028009200920 -0.42807969096910
 1  11.90633925392539 -0.65413613971397  3.35043970497050
 1  10.37266313131313  0.12110260016002  2.96072495349535
 1  11.91637090709071  0.77148688158816  2.34097323232323
 1  10.46087509050905 -2.87867844794479  0.43914930093009
 1  11.13516443344334 -3.01728664576458  2.22998292229223
 1  9.53053905490549 -1.98322931603160  2.00629557255726
 1 -11.79823672367237  0.38333390439044  2.67955184818482
 1 -10.54085859485949 -0.94267142214221  2.40890689468947
 1 -12.35803696269627 -1.54746565156516  2.90801339733973
 1 -13.39604938593859 -3.18261951395140  0.81892640164016
 1 -11.50302335033503 -3.03915594359436  0.71468652465247
 1 -12.43749410741074 -2.53203351135113 -0.60351882588259
 1  8.80029185318532 -0.08105642574257  0.82204638863886
 1 -10.14679441144114 -2.04394811881188 -0.82772240524052
 1  9.98800121912191  0.95438553645365 -2.35013971697170
 1  11.82902133713371  0.93925821672167 -2.83418313231323
 1  10.94578881388139 -0.73615410251025 -3.25933306330633
 1 -11.22123313031303  1.85287851685169 -2.59696118911891
 1 -10.06135167416742  0.63542417941794 -2.44435904190419
 1 -10.05950770577058  2.09492810581058 -1.51076467246725
 1  14.61344789778978 -3.14903380848085  0.35601749474947
 1 -15.05607504250425  2.15677059105911  1.73461166616662
 1  10.06437191919192  2.19571287518752 -0.49245856085608
 1 -8.77306400340034  0.39788188618862  0.22999818681868
 1  8.87648051005100  4.05737559045905 -0.15684198719872
 1  7.01541493049305  4.00506591549155 -0.08398256525653
 1  8.21590630063006  3.97640052695270  1.46143916191619
 1 -7.63024005400540 -3.51820874997500 -0.16485232423242
 1 -8.41040679667967 -2.95769478357836 -1.62242857285729
 1 -6.59239808880888 -2.86403005510551 -1.47188398039804
 1  7.17751941494149  0.44106784968497 -0.32229562156216
 1 -6.50742100410041  0.53441328122812  0.04778240124012
 1  5.46015539953995  3.08410355825583  0.74685694069407
 1 -5.08362218221822 -1.86857816491649 -1.22607000700070
 1  4.83661676067607  0.39088733463346 -0.29071748274827
 1 -4.02330783478348  0.62710782768277  0.37746054205421
 1  3.58799658465847  3.50215425732573  1.60660686168617
 1  1.84040069306931  3.56631530243024  1.05527793579358
 1  3.26797081908191  3.81362919681968 -0.16081657765777
 1 -2.90562269926993 -2.83299044614461 -0.66135917991799
 1 -2.48492800080008 -2.16975809590959 -2.16797076407641
 1 -1.12038883788379 -2.23530370547055 -1.07577061306131
 1  2.31949910791079 -0.21192984408441  0.01756385238524
 1 -1.83884328532853  1.29215913381338  0.47563095009501
 1  0.27701344834483  2.03220592649265  0.28083387838784
 1  0.19661243124312 -1.06251620172017 -0.36055363936394

