%nproc=4
%Mem=2GB
# td=(NStates=1) CAM-B3LYP/6-31G(d,p) 

TD

0 1
 8  14.71309952895290 -2.09842731383138 -0.37734658765877
 8 -14.71384798179818  2.19815167116712  0.66028512251225
 6  11.35035832983298 -1.01147178127813  1.20543390439044
 6 -12.40651828382838 -0.93629618961896  0.71305682768277
 6  12.98925765776578 -1.32245528362836  1.15879345134513
 6 -13.61924453345334 -0.09015517551755  0.71911080708071
 6  13.27299929392939 -1.81578710581058 -0.17962285128513
 6 -13.45839817981798  1.41193399139914  0.76064784878488
 6  10.98407693369337 -0.21977619371937  0.01266702070207
 6 -11.31164826582658 -0.26074710371037 -0.12941369536954
 6  12.96841106010601 -0.78239899699970 -1.28566943994399
 6 -12.69378013801380  1.82262023902390 -0.54650169216922
 6  11.63182792979298 -0.14301467456746 -1.15514403040304
 6 -11.50907449744975  0.91932825582558 -0.73779331833183
 6  11.29260998799880 -0.29707886598660  2.50238067906791
 6  10.60162960396040 -2.42456293739374  1.33158127812781
 6 -11.85363755775577 -0.93975580358036  2.17818639863986
 6 -12.64839554155416 -2.31227667066707  0.35034693869387
 6  9.69971479747975  0.43434447134713  0.11972865286529
 6 -10.08863023002300 -1.04591867686769 -0.42512119311931
 6  11.26968973397340  0.56877134203420 -2.38288249524952
 6 -10.58823126212621  1.69617000100010 -1.55121442844284
 6  9.27573754075408  1.62280571847185 -0.13742911691169
 6 -8.92772325732573 -0.59888344534453 -0.15833687968797
 6  7.98435442144214  2.30309004890489  0.02085775477548
 6 -7.58061320332033 -1.37110144324432 -0.37102243424342
 6  8.07441792279228  3.65677388228823  0.52820418641864
 6 -7.64209531553155 -2.74637438553855 -0.77754792979298
 6  6.89755516251625  1.55908590249025 -0.17941794779478
 6 -6.41475327832783 -0.73184865996600 -0.20794380038004
 6  5.54024457645765  1.95824353125313  0.25555047104711
 6 -5.08945006700670 -1.25977585368537 -0.39430160416042
 6  4.47727165816582  1.19313472737274  0.02278664966497
 6 -4.02601802180218 -0.49111531763176 -0.39719704970497
 6  3.09073167816782  1.54114471237124  0.10602226722672
 6 -2.60191395539554 -0.94228855895590 -0.63589124912491
 6  2.81681196219622  3.00615006390639  0.46954966396640
 6 -2.40706620062006 -2.48014531663166 -0.88794983498350
 6  2.16022559755976  0.67893505740574 -0.06643576857686
 6 -1.59892121512151 -0.00048034213421 -0.49459128612861
 6  0.65797296629663  0.75879064696470 -0.14547866786679
 6 -0.17504637363736 -0.21221332643264 -0.34905254525453
 1  13.48251752375237 -0.27887132223222  1.30782562056206
 1  13.20102533853385 -1.81597217831783  1.96099623162316
 1 -14.31436421342134 -0.71865202220222  1.45200240624062
 1 -14.32328369536954 -0.27482440544054 -0.17753937393739
 1  12.76321152315231 -2.73191793489349 -0.55243330833083
 1 -12.96856231723172  1.80755527352735  1.76063553655366
 1  13.68955988798880  0.08491577147715 -1.32220810481048
 1  13.08899039203920 -1.35049727682768 -2.38547922392239
 1 -13.24491003500350  1.73268458945895 -1.51904983798380
 1 -12.46004461146115  2.80111217521752 -0.49761664466447
 1  11.91637025702570 -0.90121084718472  3.28980364136414
 1  10.28475434043404 -0.22193170327033  2.81531041204120
 1  11.84022329232923  0.65546527942794  2.56899603460346
 1  10.61546054905491 -2.93940452055206  0.47997338333833
 1  10.88912982998300 -2.74968988608861  2.39619954395440
 1  9.72131813281328 -2.12156314941494  1.42007695069507
 1 -11.57219411941194  0.01378694969497  2.60626451945195
 1 -11.02051656065607 -1.68219537453745  2.27759376337634
 1 -12.68914007300730 -1.45347625262526  2.61640423642364
 1 -13.70077985898590 -2.56125737773777  0.82743725272527
 1 -11.88075112311231 -3.00540256825683  0.74927998399840
 1 -12.72066242424243 -2.27956826482648 -0.69639811381138
 1  9.07739956395640 -0.16434475457546  0.81662584658466
 1 -10.18261799379938 -2.13558728272827 -0.63705333833383
 1  10.25916833583358  1.05077517541754 -2.24014871787179
 1  12.06112454745475  1.28401269216922 -2.67832754675468
 1  11.30925516051605 -0.30949143624362 -3.12638976897690
 1 -11.15826683368337  2.14608783778378 -2.27287878087809
 1 -9.82447798679868  1.03112374937494 -1.97694230023002
 1 -10.09821157615762  2.58996760976098 -1.27238083408341
 1  14.89526607960796 -3.08959786488649  0.05982787578758
 1 -15.18466790179018  1.91085599959996  1.42386059105911
 1  9.93171865386539  2.27423072697270 -0.66256557155716
 1 -8.97437413441344  0.35023712171217  0.58201338833883
 1  8.48649151115112  4.14739459235924 -0.49192549554956
 1  7.15765915491549  4.13233864276428  0.57166299929993
 1  8.74260897089709  3.76849973687369  1.47794081208121
 1 -8.50106713671367 -3.34965189428943 -0.00780661966197
 1 -8.14827058305831 -2.71561057515752 -1.73619994999500
 1 -6.70722957195720 -3.44204785688569 -0.86121291329133
 1  7.02678434143414  0.52051579447945 -0.46255964796480
 1 -6.26706696869687  0.28085792569257 -0.04823720072007
 1  5.35119450345034  3.10618576647665  0.55629788478848
 1 -5.22016583658366 -2.24690599769977 -0.84211161116112
 1  4.33124622362236  0.14657290319032 -0.26427483848385
 1 -4.11773727772777  0.66253137003700 -0.00887809180918
 1  3.32687047204720  3.15482952485249  1.29288548954895
 1  1.74527118011801  3.07833650455045  0.70062247024702
 1  3.09771379337934  3.66612444634463 -0.30751124712471
 1 -2.89512164916492 -3.16369351645165 -0.33042608660866
 1 -2.59345885388539 -2.55357647774778 -2.02606657365737
 1 -1.31409820882088 -2.81232140724072 -0.71909494549455
 1  2.35079223722372 -0.36502515361536 -0.20221812581258
 1 -1.99445884688469  1.03413333123312 -0.47156376937694
 1  0.25251099809981  1.84766747264726 -0.20950515551555
 1  0.29904267426743 -1.21881183128313 -0.46437402140214

