%nproc=4
%Mem=2GB
# td=(NStates=1) CAM-B3LYP/6-31G(d,p) 

TD

0 1
 8  14.52756097509751 -2.31015848694869 -0.51829068206821
 8 -14.68774537153715  2.10935279127913  0.62614170817082
 6  11.42461575557556 -1.10416105020502  1.17079044004400
 6 -12.33519115111511 -0.83507606760676  0.79986550855086
 6  12.93327205920592 -1.44760779887989  1.06262383438344
 6 -13.67000960996100 -0.06737289728973  0.80515941194119
 6  13.19564155815582 -1.94024955205521 -0.37869275827583
 6 -13.43692603260326  1.45048784678468  0.73017480148015
 6  10.97713623962396 -0.18630284638464 -0.02474672067207
 6 -11.34214131513151 -0.27198822782278 -0.19386014001400
 6  13.00256447544754 -0.83863462056206 -1.34952582558256
 6 -12.80322108210821  1.72427040404040 -0.63016005800580
 6  11.71889663666367 -0.07786815991599 -1.14139265526553
 6 -11.49881347134713  0.85340166316632 -0.90594013301330
 6  11.15878660566057 -0.29635879397940  2.46192663366337
 6  10.62144158515852 -2.41215169626963  1.24562268226823
 6 -11.71755394939494 -0.93724555255526  2.28977755775578
 6 -12.70071077307731 -2.25510095309531  0.33671557555756
 6  9.60295512151215  0.28717975487549  0.06661334133413
 6 -10.10671203820382 -1.13181726672667 -0.43015169616962
 6  11.35559832483248  0.68453291819182 -2.37774198119812
 6 -10.66290872987299  1.42003238723872 -1.99224853185319
 6  9.37030699769977  1.63751718961896 -0.15724109810981
 6 -8.84979546454645 -0.64011756875688 -0.29026007200720
 6  8.04566055205520  2.32420216011601  0.16614228322832
 6 -7.58261340334033 -1.43931826492649 -0.45131046304630
 6  8.17216769776978  3.80846905180518  0.53236460246025
 6 -7.72653375937594 -2.92760250835084 -0.64797497249725
 6  6.92597800480048  1.45150514441444  0.02204219821982
 6 -6.35163696669667 -0.79762523762376 -0.28778178417842
 6  5.55487603960396  2.01412911981198  0.26666158215822
 6 -4.98647976997700 -1.31612148824882 -0.43263543754375
 6  4.41960589158916  1.22200761466147  0.05088945994599
 6 -4.00004542454245 -0.51766797289729 -0.23546087608761
 6  3.04037664266427  1.64958555645565  0.10849251425143
 6 -2.63638740274027 -0.78042237233723 -0.41446910691069
 6  2.76279656065607  3.18285773467347  0.47060976997700
 6 -2.25176067006701 -2.25004230633063 -0.84245528552855
 6  2.05348492349235  0.79220638453845 -0.08396752175218
 6 -1.58020934393439  0.09442914881488 -0.14020584758476
 6  0.67722489148915  0.97149191709171  0.07640352035204
 6 -0.21433030203020 -0.07900000510051 -0.12606024602460
 1  13.36722599459946 -0.58690212531253  1.25841067906791
 1  13.02826806280628 -2.17195777687769  1.77889802180218
 1 -14.06881965896590 -0.31809196619662  1.85002220822082
 1 -14.14458582558256 -0.19924684768477 -0.10383200320032
 1  12.47630283228323 -2.66717146024603 -0.56301436643664
 1 -12.82299776077608  1.85737025502550  1.50056952995300
 1  13.85549648164817 -0.20963368346835 -1.30815669966997
 1  13.07197869086909 -1.23873610071007 -2.52026270227023
 1 -13.65250079407941  1.74626594759476 -1.52658059105911
 1 -12.35852445944595  2.75680774477448 -0.68540542354235
 1  11.55324394439444 -0.99025975207521  3.13337799879988
 1  10.12691855685569 -0.03529303940394  2.58559744074407
 1  11.59366863686369  0.78619835273527  2.44607374237424
 1  10.95546454945494 -3.01567214731473  0.32765815181518
 1  10.96853777077708 -3.05149006610661  2.15324524852485
 1  9.60074607560756 -2.33819481258126  1.28927387038704
 1 -11.75972287228723  0.12908847984798  2.58850274327433
 1 -10.79316382538254 -1.38010516551655  2.21499750375038
 1 -12.26920807980798 -1.63592449744974  2.90921351735174
 1 -13.40362014301430 -2.41622287428743  1.14547905690569
 1 -11.89461250925092 -2.89241126912691  0.52997805380538
 1 -13.03303366136614 -2.36715702370237 -0.70699917391739
 1  8.93812563656366 -0.46736505660566  0.56409059305931
 1 -10.11985171717172 -2.15662938693869 -0.60592022502250
 1  10.26620903990399  0.90002009990999 -2.38336303930393
 1  11.75936437143715  1.71542583348335 -2.35258497249725
 1  11.77249148414841  0.17942745564556 -3.27840497049705
 1 -11.36120712771277  1.62091532053205 -2.82838433143314
 1 -9.79640517951795  0.72159279627963 -2.32513711971197
 1 -10.10624237923792  2.38715732873287 -1.85884948094810
 1  14.81686823982398 -3.05229413451345  0.09377127012701
 1 -15.39725916091609  1.96837175117512  1.38886709170917
 1  10.28180366236624  2.35763906780678 -0.23700301530153
 1 -8.61271796879688  0.54505660366037 -0.27946275927593
 1  8.72370523252325  4.26171602450245 -0.33956025902590
 1  7.14620800980098  4.26651206010601  0.64907074007401
 1  9.13522823282328  4.00424331123112  1.38636165416542
 1 -8.37001403140314 -3.53298022712271  0.05752991399140
 1 -8.24061981798180 -3.10571958605861 -1.63162949294929
 1 -6.71903075207521 -3.35265891799180 -0.69428622062206
 1  6.98044970797080  0.42950669356936 -0.03357674967497
 1 -6.26609687168717  0.32155199509951 -0.18809118611861
 1  5.24941432543254  3.13846899479948  0.62906516151615
 1 -4.90481430143014 -2.27602890999100 -0.96179357935794
 1  4.53188628762876  0.17520576647665 -0.40634904590459
 1 -4.35803130713071  0.46139125602560  0.32445524152415
 1  3.09842762776278  3.35759980188019  1.38779498049805
 1  1.65581223422342  3.50782945384538  0.65308771677168
 1  3.21188521052105  3.82049988388839 -0.33832432843284
 1 -2.68666080308031 -3.07072421952195 -0.23764680868087
 1 -2.56177568556856 -2.40700182028203 -1.65839980698070
 1 -1.21031783078308 -2.13418359345935 -0.93239627562756
 1  2.36612377037704 -0.25384403550355 -0.33839174317432
 1 -1.89708910991099  1.12285220312031  0.23516690369037
 1  0.26913266026603  1.83046575247525  0.46064185918592
 1  0.29891266126613 -1.14325427552755 -0.38670625462546

