%nproc=4
%Mem=2GB
# td=(NStates=1) CAM-B3LYP/6-31G(d,p) 

TD

0 1
 8  14.68866708570857 -2.33843131423142 -0.35170402340234
 8 -14.77399399639964  1.93399525552555  0.88340743474347
 6  11.44020731473147 -1.01536217031703  1.23040640164016
 6 -12.36771440344034 -0.91845440544054  0.76599212121212
 6  12.87662639463946 -1.43329636773677  1.08912648464846
 6 -13.65920852985298 -0.13127928792879  0.97111600760076
 6  13.35709770377038 -1.94971049814982 -0.26825171417142
 6 -13.46586892689269  1.34264706270627  0.76771855585559
 6  10.91427995399540 -0.31531574767477  0.03005875987599
 6 -11.32390949194919 -0.20046107510751 -0.14895564956496
 6  13.06776099509951 -0.84556531363136 -1.26089696269627
 6 -12.95941670167017  1.77077505450545 -0.54627166916692
 6  11.69100384738474 -0.19234960806081 -1.06232474847485
 6 -11.61039462946295  1.01859818281828 -0.80485002400240
 6  11.36063679067907 -0.15170432853285  2.48851929292929
 6  10.62114155515552 -2.29229971107111  1.33782190219022
 6 -11.73278547254725 -0.86588841684168  2.27878645864586
 6 -12.63277397939794 -2.33156859985999  0.30202210621062
 6  9.61307613361336  0.48351938883888  0.15966264626463
 6 -10.12084345134513 -1.09439352435244 -0.37687636863686
 6  11.09967273227323  0.40769523442344 -2.42962716971697
 6 -10.74660709970997  1.64001438543854 -1.85509481648165
 6  9.33969393639364  1.67847128502850 -0.09098447244724
 6 -8.88500898589859 -0.60489404640464 -0.25061610761076
 6  8.03466945294529  2.34739447934793  0.22511818081808
 6 -7.64250939293929 -1.35337967106711 -0.52665799779978
 6  8.18823930493049  3.78470667556756  0.49029039503950
 6 -7.77420852685268 -2.84438418651865 -0.79438961396140
 6  6.94693010001000  1.60455044894489 -0.00463046904690
 6 -6.39354115711571 -0.75506098119812 -0.37799080508051
 6  5.60611116311631  2.04627233413341  0.20849576557656
 6 -5.04334545654565 -1.17071694779478 -0.62530470447045
 6  4.53664759575958  1.25413082698270 -0.02195782478248
 6 -3.92084750475047 -0.38841504760476 -0.43755108510851
 6  3.17044964996500  1.60901149904991  0.15576724172417
 6 -2.54873863786379 -0.87021135123512 -0.59451711171117
 6  2.82773305430543  2.98745819471947  0.58210091909191
 6 -2.36652214621462 -2.40080738283828 -0.77279831983198
 6  2.11519109410941  0.75046221012101 -0.17737686268627
 6 -1.58589991299130  0.04479418531853 -0.42716454345435
 6  0.67595476447645  0.91509627752775 -0.31773589358936
 6 -0.18393726272627 -0.16333843894389 -0.35895353535354
 1  13.52484175617562 -0.63535697079708  1.30089492749275
 1  13.09348458445845 -2.19455003610361  1.69343947594760
 1 -14.26144892189219 -0.44926508350835  1.91283848984898
 1 -14.28807017401740 -0.40043696669667 -0.00816243624362
 1  12.71849705170517 -2.80926566966697 -0.79047711271127
 1 -12.79598505950595  1.80316483448345  1.62682215521552
 1  13.79561049304931 -0.10759347944795 -1.29204508850885
 1  13.29316080908091 -1.23197542464246 -2.34687536353635
 1 -13.67813335733573  1.61281260226023 -1.30172810581058
 1 -12.64236284328433  2.79544160816082 -0.64765164816482
 1  11.83546216621662 -0.85981670777078  3.28609327032703
 1  10.29641550655066  0.00505099499950  2.90660954195420
 1  11.96463573357336  0.61734146704671  2.41303043804380
 1  10.82960196319632 -3.02638321842184  0.52942832883288
 1  10.68919983698370 -2.92423734083408  2.31124104810481
 1  9.59435543654365 -2.15751674477448  1.45332027502750
 1 -11.86019291929193  0.22160773177318  2.77605149814982
 1 -10.45605011401140 -1.16650380538054  2.48440444444444
 1 -12.44823598259826 -1.50831173617362  2.80564316031603
 1 -13.52029181018102 -2.90126137813781  0.70369487848785
 1 -11.87095014301430 -3.03344537253725  0.38453350935094
 1 -12.95389574757476 -2.49209951795179 -0.81544001800180
 1  8.92240406440644 -0.32925124522452  0.52074625862586
 1 -10.18997872987299 -2.07599132313231 -0.81617125012501
 1  9.99897231623162  0.62184228212821 -2.36688139113911
 1  11.68339677467747  1.38950324122412 -2.72796251025103
 1  11.38780301530153 -0.16057654475448 -3.38667579757976
 1 -11.37697870487049  1.91016424542454 -2.82860435343534
 1 -9.84603014201420  1.06823746074607 -2.09046365236524
 1 -10.29564131913191  2.58849746274628 -1.23643723972397
 1  14.79505605860586 -2.98560746584658  0.39629152215222
 1 -14.93541297629763  1.63174808880888  1.68590679567957
 1  10.04659014101410  2.42083538743874 -0.52730204520452
 1 -8.73447014401440  0.39564166216622  0.15880106710671
 1  8.70550341234123  4.27159701260126 -0.35046134913491
 1  7.25093848284828  4.35876128502850  0.58013384638464
 1  8.68839354935493  4.01541442834283  1.48814183218322
 1 -8.27093412341234 -3.37597452655266  0.00542470347035
 1 -8.23678943494349 -2.99818883298330 -1.63083941394139
 1 -6.84033288228823 -3.52296594869487 -0.70556734873487
 1  7.05835749874988  0.67451119401940 -0.16507989999000
 1 -6.38632889488949  0.30867070697070 -0.29441181818182
 1  5.27279666366637  3.10773592149215  0.39273152815282
 1 -4.88878269826983 -2.22008331543154 -0.87654505450545
 1  4.85333843284328  0.19747799369937 -0.36090450145014
 1 -4.13247875187519  0.63629874677468 -0.00351755575558
 1  3.14790257525753  3.35259930183018  1.60678687968797
 1  1.76748340134013  3.13611228212821  0.58828123612361
 1  3.11158518051805  3.77963579747975 -0.09891038703870
 1 -2.91278341534153 -2.96920406750675 -0.01435447944794
 1 -2.54414392239224 -2.79218033813381 -1.71079504650465
 1 -1.26556335533553 -2.60773094819482 -0.65301833783378
 1  2.41996915491549 -0.36440509160916 -0.30388829282928
 1 -2.15044444544454  1.12522244014401 -0.26491310431043
 1  0.38141388838884  1.91374408030803 -0.14049825482548
 1  0.11074384438444 -0.96169611971197 -0.72270985498550

