%nproc=4
%Mem=2GB
# td=(NStates=1) CAM-B3LYP/6-31G(d,p) 

TD

0 1
 8  14.55595381438144 -2.22448992009201 -0.14672352535254
 8 -14.66696329332933  2.01896375237524  0.98526762076208
 6  11.28950224422442 -1.15881651575158  1.24350771177118
 6 -12.26213384538454 -0.89744230423042  0.84520004200420
 6  12.87365609760976 -1.38765180328033  1.23809138113811
 6 -13.57131974097410 -0.13966012601260  0.99321821782178
 6  13.23560555455546 -1.92028755585559 -0.14787967696770
 6 -13.50633297329733  1.25228802680268  0.99715149914991
 6  10.88919744574457 -0.30684490059006  0.08104385838584
 6 -11.30342744374437 -0.26056708570857 -0.11651240524052
 6  13.06608082708271 -0.80560131723172 -1.08581945494549
 6 -12.68824958495850  1.78816679367937 -0.30192723472347
 6  11.77584233123312 -0.18483885698570 -0.93201171717172
 6 -11.46988057805781  0.92466878987899 -0.75021456045605
 6  11.09606033303330 -0.25903506160616  2.56650709170917
 6  10.45821526252625 -2.43594407550755  1.51320944094409
 6 -11.67420961496150 -1.07940976897690  2.26345492549255
 6 -12.73475417741774 -2.30235567856786  0.42468437243724
 6  9.59168399439944  0.33866490339034  0.14999167916792
 6 -10.09924129112911 -0.95848993399340 -0.33852253325333
 6  11.44184694969497  0.65225969086909 -2.22456666366637
 6 -10.81016345534553  1.64449483348335 -1.76475578257826
 6  9.33833380038004  1.74113755165517 -0.03594896889689
 6 -8.77826831183118 -0.52479603660366 -0.31294234023402
 6  8.03080906690669  2.38394813471347  0.06767243624362
 6 -7.60659580158016 -1.30370470357036 -0.31218655065507
 6  8.00114059505951  3.72680088498850  0.47912927892789
 6 -7.68305941194119 -2.78455820392039 -0.63284345934593
 6  6.87599300630063  1.58090808470847 -0.23012301830183
 6 -6.34884668766877 -0.63162863796380 -0.23406641264126
 6  5.51515206720672  2.09160686758676  0.02460737673767
 6 -5.00033115511551 -1.18585846194619 -0.68232040604060
 6  4.49451338233823  1.21811722562256 -0.47415304430443
 6 -3.89811523152315 -0.38246445254525 -0.53992132213221
 6  3.12190479547955  1.50708130603060 -0.14280261526153
 6 -2.57923168716872 -0.80889521962196 -0.76173383338334
 6  2.78155843684368  2.87587703660366  0.52382509150915
 6 -2.34101959595960 -2.19057635973597 -1.41393243324332
 6  2.17710728572857  0.60184734863486 -0.44297342234223
 6 -1.62216353935394  0.02339204510451 -0.58996082308231
 6  0.72364953395340  0.81923669156916 -0.44784890489049
 6 -0.19216808580858 -0.25376748184818 -0.54717235723572
 1  13.35168444044404 -0.47866130123012  1.27372221022102
 1  13.39546478247825 -2.06711729282928  2.05696582858286
 1 -13.99699247624762 -0.56581673867387  1.89687689368937
 1 -14.20146151315132 -0.54001092409241  0.14327270727073
 1  12.83933913591359 -2.87236197929793 -0.41754981998200
 1 -12.80397585858586  1.48925344334433  1.89342881588159
 1  13.90794172617262 -0.11074379447945 -0.89946583058306
 1  13.05195668866887 -1.09487171427143 -2.11740241624162
 1 -13.39155469946995  2.02060338133813 -1.29830776377638
 1 -12.35831443844384  2.88169023302330 -0.11414829782978
 1  11.40274889488949 -0.59749047514751  3.51886654765477
 1  9.90855672067207 -0.18464797489749  2.67143602460246
 1  11.66667593759376  0.70172990589059  2.31299043404340
 1  10.61880088308831 -3.11416199629963  0.66132151815181
 1  10.85451636863686 -2.91668658575858  2.34761468546855
 1  9.41110711171117 -2.14157515061506  1.87828277127713
 1 -11.60971787178718 -0.11576600560056  3.00579447244725
 1 -10.80313482248225 -1.76218337333733  2.28665466946695
 1 -12.54283544254425 -1.64828573357336  2.84075667166717
 1 -13.21012079307931 -2.63254450645065  1.23596810581058
 1 -11.70590363836384 -2.97091911991199  0.27720277627763
 1 -13.40682104010401 -2.14372468046805 -0.67982645664566
 1  8.74965678967897 -0.29066738683868  0.43946813081308
 1 -10.20970070207021 -2.07617134113411 -0.41538117111711
 1  10.60709312831283  1.12972307020702 -2.20678538153815
 1  11.96469490449045  1.62385667656766 -2.21257097109711
 1  11.41554578957896  0.16503601650165 -3.15724285428543
 1 -11.52270327732773  1.90348357735774 -2.43148464146415
 1 -10.21960749974998  0.71867250425042 -2.15965057105711
 1 -10.13776553155316  2.42841145414541 -1.64936853285329
 1  14.67616416941694 -2.72741164626463  0.74109600260026
 1 -15.15345478047805  1.75975088908891  1.75087329232923
 1  10.12796827882788  2.57133043694369 -0.16404571957196
 1 -8.76301299829983  0.57979007700770 -0.00284509750975
 1  8.72842570457046  4.30098995189519 -0.39770607360736
 1  7.12317570657066  4.46461187008701  0.49163499649965
 1  8.37160187018702  3.93429631653165  1.50804382238224
 1 -8.54334136413641 -3.10942787188719 -0.04023986298630
 1 -7.98781453745375 -2.91636065016502 -1.83393972397240
 1 -6.69245809480948 -3.39687333943394 -0.38387517951795
 1  7.04962662566257  0.57312105500550 -0.76037942994299
 1 -6.46761702370237  0.40983082298230 -0.07102947994799
 1  5.29358874287429  3.04655980388039  0.66025828082808
 1 -4.95437925792579 -2.18475978307831 -0.72934033403340
 1  4.63158625762576  0.31101934783478 -0.93856226722672
 1 -3.85032053605361  0.71916703360336 -0.28177538153815
 1  3.78516630163016  3.01862590449045  1.09653585458546
 1  1.66701335433543  2.88919759065907  1.10948335633563
 1  2.88071209320932  3.84194202810281 -0.27766826282628
 1 -2.76846898389839 -3.06619376647665 -0.82545558955896
 1 -2.76878638663866 -2.16776789688969 -2.44314828182818
 1 -1.14996179517952 -2.35168534363436 -1.56440947694770
 1  2.22415957395740 -0.34190284138414 -0.75221312531253
 1 -1.90670007100710  1.07796771467147 -0.19532614561456
 1  0.33583933093309  1.97426013191319 -0.41287549254926
 1  0.18640141014101 -1.34230418051805 -0.59162674667467

