%nproc=4
%Mem=2GB
# td=(NStates=1) CAM-B3LYP/6-31G(d,p) 

TD

0 1
 8  14.65129334833483 -2.31889936103610 -0.76216506950695
 8 -14.74500109710971  2.07675953195320  0.66349544354435
 6  11.58294158815882 -0.97429806390639  1.29915327632763
 6 -12.34334196619662 -0.90019257925793  0.64204972697270
 6  13.02920165216522 -1.33458649674967  0.95066263826383
 6 -13.69931254025403 -0.17551371137114  0.73619251525153
 6  13.29529152315231 -1.85132065916592 -0.44858974797480
 6 -13.57841018101810  1.33443624162416  0.63171495549555
 6  11.01896042204221 -0.27414163026303  0.11204695869587
 6 -11.33012011301130 -0.29203023202320 -0.27748850285028
 6  13.05094931393139 -0.70234099119912 -1.42792366536654
 6 -12.86264702470247  1.84737271427143 -0.59599664166417
 6  11.63517826482648 -0.24504487758776 -1.16012452845285
 6 -11.48878246824682  0.95464178717872 -0.80789032803280
 6  11.65799652665267 -0.06501565966597  2.51770221122112
 6  10.82051149214922 -2.30876135723572  1.60372849284928
 6 -11.68427062106211 -0.85988781678168  2.15473405340534
 6 -12.83214391639164 -2.36047149014902  0.26247815181518
 6  9.62247707370737  0.46253729062906  0.27080376037604
 6 -10.07935930293029 -1.03691777677768 -0.44105278627863
 6  11.14951771677168  0.45902036693669 -2.45936014301430
 6 -10.58600103910391  1.53536392039204 -1.86153546054605
 6  9.34989495649565  1.67368080598060 -0.07987336133613
 6 -8.87312779777978 -0.55320887788779 -0.28489953595360
 6  8.01832781878188  2.28767850775078  0.17269293829383
 6 -7.64725986798680 -1.24839917301730 -0.37969330133013
 6  7.92508298929893  3.65721392629263  0.55721708770877
 6 -7.79248035403540 -2.73440318841884 -0.85876605160516
 6  6.98104351135114  1.48100809470947 -0.08339834583458
 6 -6.47118892189219 -0.64153962906291 -0.22678568456846
 6  5.60923147514752  1.83980168706871  0.17813272927293
 6 -5.15145626762676 -1.11332120822082 -0.45318749274928
 6  4.49404333533353  1.19919533343334 -0.13053868286829
 6 -4.10212563256326 -0.48125433153315 -0.11771910191019
 6  3.05309791479148  1.48877947584758  0.03901556655666
 6 -2.65753951795180 -0.81843617371737 -0.17433509350935
 6  2.79883016401640  2.84262371127113  0.66014872387239
 6 -2.34941043504350 -2.30528783088309 -0.55508654865487
 6  2.10187976297630  0.64837200110011 -0.26545567056706
 6 -1.62752407540754  0.05775548144814  0.01369954295430
 6  0.69037620662066  0.79596436433643 -0.04601872187219
 6 -0.24763363236324 -0.18971107620762 -0.30153779377938
 1  13.55092436443644 -0.25383881898190  1.19554439243924
 1  13.27435267126713 -1.95276585768577  1.73018315031503
 1 -13.90628340534053 -0.37808796579658  1.76808401440144
 1 -14.54665603260326 -0.65128205120512 -0.07145876587659
 1  12.42323752575258 -2.58241298439844 -0.60775884088409
 1 -12.88024348534853  1.57611212921292  1.62540201320132
 1  13.93847477947795  0.22036931683168 -1.34040992499250
 1  13.09260075307531 -1.17870009710971 -2.39878055405541
 1 -13.26435197919792  1.60349167016702 -1.49762769576958
 1 -12.55873448044805  2.87989005300530 -0.39671655465547
 1  11.92620124012401 -0.80073079917992  3.34418907990799
 1  10.57059292429243  0.29434992489249  2.91253013401340
 1  12.53414268426843  0.70416014891489  2.44360349534954
 1  10.50417942094209 -2.83583416351635  0.78145353135314
 1  11.29701061806181 -2.80126504360436  2.47540746474647
 1  9.85098109910991 -2.10608160126013  2.11157610061006
 1 -11.73523042304230  0.11297686868687  2.48972286528653
 1 -10.63846835583558 -1.44903205820582  2.17092309630963
 1 -12.38659981898190 -1.48765967096710  2.78774137013701
 1 -13.74643442444244 -2.63436468846885  0.82269677867787
 1 -12.22183523152315 -3.35419744774477  0.52761781778178
 1 -13.03334369236924 -2.66109641764176 -0.97052552655266
 1  9.01003282728273 -0.14851317141714  0.82139632363236
 1 -10.39112884488449 -1.93944766876688 -0.77257689068907
 1  10.06525894489449  0.72800289818982 -2.16329103210321
 1  11.85328376337634  1.26270056095610 -2.76489620362036
 1  10.99505374037404 -0.16178666576658 -3.35492262226223
 1 -11.12213322032203  1.96472970197020 -2.70170166316632
 1 -9.81415695469547  0.89098973597360 -2.21127573357336
 1 -9.90130188518852  2.36880549354936 -1.70322391839184
 1  15.13503005600560 -2.71875078017802  0.20657255025503
 1 -15.12833226822682  1.78243315731573  1.62000020502050
 1  10.23621910391039  2.19656296019602 -0.65569488448845
 1 -8.74053075007501  0.39500159815982  0.10624581158116
 1  8.54584744674468  4.19211906480648 -0.09148545154515
 1  6.99585297429743  4.07924333323332  0.35088092109211
 1  8.42337704770477  3.90230311721172  1.56598961696170
 1 -8.47002403240324 -3.47741467056706 -0.28646448544854
 1 -8.17295305130513 -2.58581759585959 -1.99456578657866
 1 -6.81505035403540 -3.19683333543354 -1.09604639663966
 1  7.07588925192519  0.52709645254525 -0.57536092809281
 1 -6.57359762176218  0.32240208010801  0.24577220022002
 1  5.41312069606961  2.74966011391139  0.47974022902290
 1 -4.84002782278228 -2.15274658175818 -0.78585598559856
 1  4.81141424042404  0.29248749464946 -0.64209262026203
 1 -4.19189469346935  0.61857697459746  0.30840363636364
 1  3.18496628162816  2.78352239413941  1.85858205920592
 1  1.73557021002100  3.07751642254225  0.64938734673467
 1  3.34921894389439  3.59138697259726  0.07536704070407
 1 -2.87432956995700 -3.07958510561056 -0.02345538953895
 1 -2.78573808180818 -2.63054417451745 -1.44471843884388
 1 -1.29196599559956 -2.49943011811181 -0.43794683068307
 1  2.35446260426043 -0.24282293339334 -0.99631753575357
 1 -1.79808920992099  1.21562148004801  0.32012539953995
 1  0.36655240224022  1.83272597849785  0.14120991599160
 1  0.06221899189919 -1.14987493759376 -0.59239682368237

