%nproc=4
%Mem=2GB
# td=(NStates=1) CAM-B3LYP/6-31G(d,p) 

TD

0 1
 8  14.75473369236924 -2.16717418851885 -0.49072792579258
 8 -14.79706630363036  2.01633348934893  0.49580867486749
 6  11.49840313431343 -1.20426106020602  1.08860222122212
 6 -12.42063969596960 -1.00714327432743  0.70582610461046
 6  13.05358409040904 -1.45379841794179  1.00688826082608
 6 -13.68011062006200 -0.18662482248225  0.61964086008601
 6  13.34672666666667 -1.92115764286429 -0.39346423542354
 6 -13.56597893789379  1.39813261126113  0.59010079407941
 6  10.99651817781778 -0.30948516461646 -0.02725697169717
 6 -11.40685778677868 -0.36597762676268 -0.23133388738874
 6  13.00928514751475 -0.88957971507151 -1.49775064806481
 6 -12.77534829482948  1.61816979397940 -0.77940498249825
 6  11.71674642164217 -0.18341871497150 -1.21733024902490
 6 -11.61373496349635  0.81174749774978 -0.81433097209721
 6  11.31763249024903 -0.56412557065707  2.45025546654665
 6  10.84959440044004 -2.60047052815282  1.18632675267527
 6 -11.82503469746975 -0.77928975697570  2.18411699169917
 6 -12.71451215321532 -2.41591703470347  0.43781568556856
 6  9.65524035003500  0.29855089198920  0.16448312831283
 6 -10.11866323332333 -1.15715980098010 -0.37468614961496
 6  11.32983574857486  0.64814927982798 -2.42633684068407
 6 -10.64844728372837  1.23314369836984 -1.97483679067907
 6  9.42915288228823  1.58751218911891 -0.19741511551155
 6 -8.93910439543954 -0.59304286128613 -0.33834488048805
 6  8.13318930493049  2.24083382328233  0.16495216421642
 6 -7.60432557455746 -1.33264759785979 -0.47456278827883
 6  8.18110859185919  3.67137534243424  0.53977534353435
 6 -7.58997010301030 -2.90530027812781 -0.64845502050205
 6  6.95289069606961  1.54624461836184 -0.02518252425243
 6 -6.47529933293329 -0.63824930003000 -0.35780878687869
 6  5.56818737073707  1.99913762066207  0.20066498249825
 6 -5.12707382938294 -1.14875475157516 -0.21102327632763
 6  4.42381631263126  1.30912632653265  0.03196756775678
 6 -4.10380580058006 -0.27433363946395 -0.23951128112811
 6  3.06135874087409  1.69839043694369  0.23192485748575
 6 -2.65857962196220 -0.63736806690669 -0.25263292329233
 6  2.87514779577958  3.17981743064306  0.56441915091509
 6 -2.35876137013701 -2.10961826392639 -0.63800484048405
 6  2.03696327132713  0.87859502340234  0.01883275827583
 6 -1.77341866486649  0.33120282618262 -0.02911473847385
 6  0.54524169316932  1.10320508840884  0.24340022002200
 6 -0.28892776177618  0.10212810771077 -0.07528516851685
 1  13.60758003000300 -0.37093052815282  1.14538937693769
 1  13.46684192019202 -2.18821940304030  1.48898903090309
 1 -14.30214299129913 -0.30865102210221  1.58208541454145
 1 -14.51445281228123 -0.50203712671267 -0.15887750775077
 1  12.76570177217722 -3.05233997709771 -0.60724878987899
 1 -12.94408986998700  1.95140965896590  1.41815128812881
 1  13.85990692269227 -0.06958967906791 -1.42589847384738
 1  12.89000049304931 -1.35153738083808 -2.33742441844184
 1 -13.69890543454345  1.49479080008001 -1.69590752375238
 1 -12.56253486048605  2.62954501850185 -0.77261414441444
 1  11.49374799479948 -1.11366209230923  3.51735639663966
 1  10.19790565556556 -0.23183269336934  2.51017989898990
 1  11.80801007100710  0.42982271517152  2.57673680868087
 1  10.92265126812681 -3.02733331343134  0.22220760676068
 1  11.26585750275028 -3.04425934303430  1.94182410641064
 1  9.77631363236324 -2.33292428552855  1.30306524952495
 1 -11.92652955295529  0.21804737573757  2.40057395039504
 1 -10.78898340734074 -1.32578973397340  2.22923892789279
 1 -12.37471863086309 -1.42956386138614  2.93489608560856
 1 -13.43613339433943 -2.68789004100410  1.03600810981098
 1 -11.81944499249925 -3.32813484148415  0.83174823082308
 1 -12.86901725972597 -2.62004231223122 -0.43398187218722
 1  9.19320114411441 -0.16213453355336  0.86062024602460
 1 -10.30487021902190 -2.25718944294429 -0.66940657365737
 1  10.19432185118512  0.80622071997200 -2.75348005100510
 1  12.23635207020702  1.43707799869987 -2.59093880788079
 1  11.58135237023702  0.05541505440544 -3.28268539853985
 1 -11.33844485148515  1.77378060706071 -2.74377587058706
 1 -10.12864840384039  0.47692832983298 -2.37813241924192
 1 -9.93947570257026  2.03008162116212 -1.55514911091109
 1  15.09491604460446 -3.04415332043204  0.00868276127613
 1 -15.21313074807481  1.82137705170517  1.54878308330833
 1  10.02099758175818  2.36857016091609 -0.80911022602260
 1 -8.72086878387839  0.45679777777778 -0.42171698469847
 1  9.13759662166217  4.20329018191819 -0.21799810281028
 1  7.25872926192619  4.30843625252525  0.38448428142814
 1  8.50501521152115  3.93634652155215  1.52286530453045
 1 -7.97931496149615 -3.38490541964196  0.30802496349635
 1 -8.35364112011201 -3.14133314741474 -1.57103343334333
 1 -6.64984383338334 -3.08057170927093 -0.95303209520952
 1  7.25813747674767  0.59034277717772 -0.31209460146015
 1 -6.63142340434043  0.41338117801780 -0.18455083208321
 1  5.62083146714671  3.10042519041904  0.58870112511251
 1 -4.80730455045505 -2.09931123822382 -0.37010441044104
 1  4.63873697269727  0.26711495739574 -0.11763017401740
 1 -4.26456196019602  0.80857597449745  0.01762455845585
 1  3.38537632263226  3.66343038493849  1.43622982398240
 1  1.84991164416442  3.38649732063206  0.68548095609561
 1  3.14075809780978  3.85539337323732 -0.35548604460446
 1 -2.77409954695470 -2.86864401150115  0.08278523452345
 1 -2.91714122212221 -2.25545666576658 -1.57288125512551
 1 -1.37839463846385 -2.34264443954395 -0.62077511351135
 1  2.37005416341634 -0.05815446654665 -0.30856876087609
 1 -1.99332873387339  1.34395431333133  0.28789217621762
 1  0.34688043504350  2.04575728162816  0.48600439543954
 1  0.22643541354135 -0.98659860996100 -0.16934451845185

