%nproc=4
%Mem=2GB
# td=(NStates=1) CAM-B3LYP/6-31G(d,p) 

TD

0 1
 8  14.66411463046305 -2.36406387748775 -0.23634248724872
 8 -14.70043664066407  1.99457131313131  0.92699179317932
 6  11.45902919691969 -1.07056769086909  1.22857621862186
 6 -12.24595222722272 -0.89034159415942  0.92250777277728
 6  12.98417714971497 -1.40897393549355  1.13863143514351
 6 -13.55517812681268 -0.22360852085209  0.87108600460046
 6  13.30708270227023 -1.98029355645565 -0.14969985898590
 6 -13.47591993199320  1.25917871587159  0.81863364736474
 6  10.96789531553155 -0.32035625172517 -0.02560680668067
 6 -11.29415651665166 -0.28692972197220 -0.19475022902290
 6  13.04074829382938 -0.91053181028103 -1.30877175017502
 6 -12.85074583458346  1.65607358435844 -0.49176621862186
 6  11.70977572457246 -0.12733310641064 -1.15555407140714
 6 -11.59560315031503  0.82839916291629 -0.81128066706671
 6  11.34720544754476 -0.18708786688669  2.45685612661266
 6  10.50488992999300 -2.33515399649965  1.41538965896590
 6 -11.54003619761976 -0.66954878287829  2.30731931193119
 6 -12.34177487948795 -2.36272171517152  0.68215011901190
 6  9.66084091009101  0.31309234613461  0.10717739773977
 6 -10.04754612161216 -1.02894697969797 -0.47742642364236
 6  11.11887465246525  0.58507297219722 -2.40947515451545
 6 -10.81963440244025  1.42937332133213 -1.97414672167217
 6  9.32332229922992  1.63096653455346 -0.13104847884788
 6 -8.74601508650865 -0.56868042504250 -0.42232327832783
 6  8.00694668066807  2.22941268116812  0.04966063506351
 6 -7.54975011701170 -1.30621495459546 -0.71694702670267
 6  8.10780126112611  3.65327353225323  0.56191755775578
 6 -7.76184729072907 -2.60526027412741 -1.27370754575458
 6  6.78836424342434  1.65168516241624 -0.09230923692369
 6 -6.45654745774577 -0.70035551065106 -0.45420842684268
 6  5.54025457745775  2.03588129502950  0.11398631463146
 6 -5.13759488148815 -1.23867374347435 -0.67358953295330
 6  4.43744767576758  1.21383679757976 -0.05707133613361
 6 -4.00874629462946 -0.39884609070907 -0.19858718871887
 6  3.02372497749775  1.63838443634363  0.09164082908291
 6 -2.67093085708571 -0.82769709980998 -0.33436109610961
 6  2.77019730073007  3.06333578247825  0.61963467246725
 6 -2.31098659265927 -2.13181048314831 -0.98619965996600
 6  2.03462303730373  0.82610977487749 -0.31542066706671
 6 -1.74106542954295  0.11720142604260 -0.11657348434843
 6  0.59000616961696  0.92470723862386 -0.08774289428943
 6 -0.24490335933593 -0.11989409450945 -0.25123276327633
 1  13.59158843084308 -0.55468890399040  1.39529436743674
 1  12.96000123612361 -1.97418799989999  2.00193032503250
 1 -14.20517329432943 -0.67823798079808  1.75222242824282
 1 -14.14307567456746 -0.49214613761376 -0.12275389538954
 1  12.61611681368137 -2.74225896899690 -0.30405847084709
 1 -12.81127658865887  1.54043856185619  1.73815328832883
 1  14.14249518151815 -0.22852557265727 -1.12314819881988
 1  13.11144263726373 -1.45234746184618 -2.21579225522552
 1 -13.75667121112111  1.29347066806681 -1.20086801980198
 1 -12.63665227222722  2.73302536653665 -0.49321620462046
 1  11.73068168816882 -0.69665039113911  3.41643630463046
 1  10.19261512651265  0.34962545244524  2.50424930593059
 1  11.78725799579958  0.74430416331633  2.45111424642464
 1  10.78390739373937 -3.03367394749475  0.60721610761076
 1  10.89923084008401 -2.70025494259426  2.37045696969697
 1  9.63742974397440 -2.01868286138614  1.80890583358336
 1 -10.98279517951795  0.47798336933693  2.25009890289029
 1 -10.83076758575858 -1.32758991399140  2.27607361136114
 1 -12.19960111911191 -0.79672057705771  3.17741033703370
 1 -12.74456423742374 -3.11044229622962  1.52388689768977
 1 -11.17176022402240 -2.75118714671467  0.45558061406141
 1 -12.88446880488049 -2.76829713771377 -0.16623509750975
 1  8.94128595259526 -0.32369068916892  0.57749193319332
 1 -10.20287001900190 -1.96828055205521 -0.80998063106311
 1  10.22467488648865  0.89866996489649 -2.14638934193419
 1  11.81212964796480  1.30345463636364 -2.52039175317532
 1  11.32258649364937 -0.00542102920292 -3.21423855385539
 1 -11.33747475447545  1.71473470247025 -2.91913340634063
 1 -10.15034057305731  0.70007064406441 -2.26063066906691
 1 -10.20381213621362  2.22910152315232 -1.57123071907191
 1  14.83552010501050 -3.15505441054105  0.26110800380038
 1 -15.29770920592059  1.69672458645865  1.62745095009501
 1  10.06493197519752  2.20446375027503 -0.47826714171417
 1 -8.77996469346935  0.59688178617862 -0.07014182718272
 1  8.42795565756576  4.30686053895390 -0.43780008300830
 1  7.06023941294129  4.06230163906391  1.04228006100610
 1  8.81960667066707  3.81886477337734  1.43946696469647
 1 -8.01831886188619 -3.50388731783178 -0.43082892189219
 1 -8.41887764376438 -2.77150616471647 -1.97031336133613
 1 -6.75159400840084 -2.90077372947295 -1.71391818381838
 1  6.87005866886689  0.53057680058006 -0.48600199219922
 1 -6.50958122012201  0.36546638653865 -0.01384376137614
 1  5.21622100610061  2.92055720362036  0.56315857085709
 1 -4.99854367436744 -2.16210751785179 -1.07867526752675
 1  4.65148824782478  0.12447069296930 -0.59362777377738
 1 -4.23240874487449  0.54427954485449  0.58410120612061
 1  3.14759254425443  3.04911895379538  1.68562476347635
 1  1.70991764476448  3.24015268616862  0.75518792679268
 1  3.08092211421142  3.55923375727573 -0.36515701170117
 1 -2.61971410841084 -3.27197434453445 -0.40431347534753
 1 -2.68717822582258 -2.33858497859786 -2.03207717471747
 1 -1.33181998099810 -2.34342451755176 -0.77884092009201
 1  2.10543770177018 -0.34870352145215 -0.61028893289329
 1 -1.88331773277328  1.23474339223922  0.13756714371437
 1  0.21637738473847  1.86482918881888  0.23015881088109
 1  0.25665843584358 -1.06004595469547 -0.65251283528353

