%nproc=4
%Mem=2GB
# td=(NStates=1) CAM-B3LYP/6-31G(d,p) 

TD

0 1
 8  14.65108332733273 -2.25345281638164 -0.62450130313031
 8 -14.77748434543454  2.16367822382238  0.57493658765877
 6  11.61544483848385 -0.99328996309631  1.14366772777278
 6 -12.38216584858486 -0.87060962096210  0.68543406540654
 6  13.04732346434644 -1.37786082418242  0.88097566956696
 6 -13.71495410441044 -0.12826898689869  0.56004490049005
 6  13.24197619161916 -1.90626615371537 -0.45422031103110
 6 -13.52119445944594  1.38972177017702  0.50440222422242
 6  10.98156668266827 -0.15640985708571 -0.04811905790579
 6 -11.35319242024202 -0.27946897589759 -0.29189994399440
 6  12.87795201420142 -1.00541129822982 -1.62230310331033
 6 -12.76069682968297  1.78570654765477 -0.74542158415842
 6  11.61109585658566 -0.23513388648865 -1.30516903290329
 6 -11.53299688968897  0.86130245324532 -0.95704524352435
 6  11.46519724672467 -0.08190734883488  2.37015745674567
 6  10.72363180418042 -2.27182766386639  1.29678779877988
 6 -11.89391158515851 -0.88799062706271  2.17549612961296
 6 -12.69547024902490 -2.48943438643864  0.38883078707871
 6  9.69410423642364  0.42463350025003  0.17191387138714
 6 -10.12284365136514 -1.09836392139214 -0.45500418141814
 6  11.18587135213521  0.41826629152915 -2.48938314531453
 6 -10.63735617461746  1.32244262826283 -2.09138844584458
 6  9.41455142214221  1.71404484238424 -0.12777815181518
 6 -8.86700718571857 -0.55613917091709 -0.26966801280128
 6  8.01633761976198  2.26250599049905  0.12985865486549
 6 -7.65392053405341 -1.27314164726473 -0.46793212521252
 6  8.02760324132413  3.75903410831083  0.55672703870387
 6 -7.68558966496650 -2.76332608070807 -0.77276745174517
 6  6.92983839083908  1.52275226912691 -0.09061906790679
 6 -6.54430623362336 -0.61412688778878 -0.27582058805881
 6  5.55449600160016  1.91083879077908  0.22068698469847
 6 -5.10080120212021 -1.12283215931593 -0.33815598959896
 6  4.54837876887689  1.14171958585859  0.17281165216522
 6 -3.99117453745375 -0.38435464156416 -0.14459178917892
 6  3.17175978097810  1.52446304420442  0.34087575257526
 6 -2.65158892289229 -0.79468379847985 -0.19544720472047
 6  2.85338561956196  2.91013046194619  0.86446915591559
 6 -2.45494098809881 -2.24105140724072 -0.62961400140014
 6  2.13886346134613  0.65778294219422  0.05374624962496
 6 -1.64393571657166  0.07080678657866  0.16611478447845
 6  0.75865303430343  0.87532230013001  0.29769564956496
 6 -0.13739260826083 -0.13284538963896  0.05152751275128
 1  13.64677394939494 -0.32823625872587  1.03478831683168
 1  13.25841107710771 -2.15085566666667  1.63024315631563
 1 -14.23324610161016 -0.59312946994700  1.31819902590259
 1 -14.08787015401540 -0.39209613261326 -0.40374199419942
 1  12.74975017701770 -2.82230697379738 -0.52931099609961
 1 -13.03353881488149  1.70422494049405  1.45842531553155
 1  13.73356428842884 -0.30338305840584 -1.72119800380038
 1  12.78056954995500 -1.61881410851085 -2.39913058905891
 1 -13.56568211221122  1.52919424042404 -1.56366429942994
 1 -12.40575918291829  3.00210227422742 -0.85121200420042
 1  11.81101972197220 -0.64031475757576  3.37660232123212
 1  10.42037790279028  0.25564605450545  2.62320120112011
 1  12.07119638963896  0.88956868976898  2.34457359235924
 1  10.96810581358136 -3.05487606770677  0.58842422842284
 1  11.22059297629763 -2.76039095619562  2.10508043204320
 1  9.62086808780878 -2.15559655275528  1.67927287028703
 1 -11.92425932593259  0.12051762276228  2.44666855985599
 1 -10.85117962696270 -1.27367452245225  1.97511351535154
 1 -12.35741690069007 -1.41583248824882  2.89001159715972
 1 -13.59814959595960 -2.73538479047905  1.09174368336834
 1 -11.78248129612961 -3.18363039103910  0.75698075407541
 1 -12.91856221422142 -2.56795710371037 -0.58335680968097
 1  8.80857268126813 -0.06949526962696  0.75754993899390
 1 -10.21875160716072 -2.21542526652665 -0.78890852385238
 1  10.11284370337034  0.96648674657466 -2.25962066506651
 1  11.68800723572357  1.45338962986299 -2.78303801780178
 1  11.34727896289629 -0.24726521362136 -3.40953808380838
 1 -11.26639764676468  1.94722795179518 -2.70020151315132
 1 -10.04859039803980  0.54621525852585 -2.46159076507651
 1 -9.96212796779678  2.08178679167917 -1.71575517151715
 1  14.83540009300930 -2.79484838993899  0.03550544354435
 1 -15.17893732873287  2.02222713671367  1.51208941394139
 1  10.01533701570157  2.49100240414041 -0.45207452245225
 1 -8.85653235023502  0.48001009900990 -0.04305911891189
 1  8.46074893689369  4.41909176207621 -0.10331663466347
 1  7.08390177917792  4.06850225912591  0.71010684368437
 1  8.63315802580258  3.88728161506151  1.40606362436244
 1 -8.25668269826983 -3.25050197929793  0.11531569256926
 1 -8.17770352635264 -3.04011302540254 -1.93954028402840
 1 -6.63250209920992 -3.23981763386339 -0.77835462746275
 1  7.22326398939894  0.62322606550655 -0.43746713871387
 1 -6.34136439843984  0.47421726162616  0.13126074907491
 1  5.43370275427543  2.88309345724572  0.52302455745575
 1 -4.99216303630363 -2.09338064516452 -0.67157455745575
 1  4.55867896689669  0.03551179707971 -0.21531994299430
 1 -4.08094359835984  0.68863398029803 -0.00608781278128
 1  3.40365815081508  3.01204524642464  1.86633283428343
 1  1.75427208020802  2.99059773067307  0.96911931993199
 1  3.09783380538054  3.92864069796980  0.30974047804780
 1 -3.20036217321732 -2.70716786388639  0.03900085608561
 1 -2.60684019201920 -2.36435755585559 -1.65685965296530
 1 -1.43758055705571 -2.56082625772577 -0.50830386638664
 1  2.54849200720072 -0.37048569966997 -0.25492339633963
 1 -1.97656705770577  1.15194511241124  0.39658304530453
 1  0.43438918591859  1.91324403030303  0.52156795179518
 1  0.11412418241824 -1.14732468256826 -0.12073965796580

