%nproc=4
%Mem=2GB
# td=(NStates=1) CAM-B3LYP/6-31G(d,p) 

TD

0 1
 8  14.77392561156116 -1.98085555665567 -0.58928778177818
 8 -14.90658725572557  1.87927978397840  0.46441553555356
 6  11.64863815781578 -1.14749538363836  1.13126648764877
 6 -12.39398703070307 -0.97511007100710  0.66457197919792
 6  13.12128086008601 -1.43784682278228  1.03300087208721
 6 -13.73338594759476 -0.24722088208821  0.61579047504750
 6  13.39622161616162 -1.91071659875988 -0.44022891189119
 6 -13.63766610661066  1.27493029102910  0.58148993299330
 6  11.02101062706271 -0.32848706480648  0.06085183918392
 6 -11.35698279927993 -0.37867889688969 -0.29127988198820
 6  12.97037125612561 -0.90740149724973 -1.41452232523252
 6 -12.85571633163316  1.67893587058706 -0.68122516451645
 6  11.62774752175218 -0.23488386148615 -1.13276179217922
 6 -11.62470606060606  0.82274859785979 -0.82110164916492
 6  11.28834956195620 -0.29919907800780  2.49121956295630
 6  10.71451089208921 -2.44933541464146  1.27104522452245
 6 -11.86244843884388 -0.77264909290929  2.16863544354435
 6 -12.62090279227923 -2.44531997499750  0.37306921092109
 6  9.69071389738974  0.16968800570057  0.22520920092009
 6 -10.09258062506251 -1.04038812381238 -0.41639032003200
 6  11.18423118811881  0.48746321122112 -2.52499670667067
 6 -10.62089452845285  1.38693907790779 -1.78649795679568
 6  9.27715768276828  1.50668410631063 -0.17440281428143
 6 -8.88532901790179 -0.52999655665567 -0.35702674867487
 6  8.07753373937394  2.15357509740974 -0.06407073807381
 6 -7.57755289728973 -1.26907124022402 -0.40278561056106
 6  8.10185066606661  3.63926213111311  0.29649101510151
 6 -7.56601770777078 -2.65692544064406 -0.85211538653865
 6  6.91632703970397  1.45288528242824 -0.04113411941194
 6 -6.40587239023902 -0.53882935803580 -0.12712571857186
 6  5.55264581658166  2.02499020592059  0.10245516151615
 6 -5.05510663266327 -1.01074095019502 -0.38944111811181
 6  4.40250418141814  1.24743015691569  0.15271964296430
 6 -3.95133055305531 -0.26606281238124 -0.04974230423042
 6  3.07309991499150  1.63144374227423  0.21348301330133
 6 -2.66064982898290 -0.72668699879988 -0.19189684968497
 6  2.89543982498250  3.14357380628063  0.52828553755376
 6 -2.39806530053005 -2.07503480558056 -0.75012605260526
 6  2.07993756875688  0.83679084298430  0.09172004700470
 6 -1.62321364436444  0.13859356525653  0.15605377837784
 6  0.62852002100210  0.99058382628263  0.29536541654165
 6 -0.27625649464946  0.00534842974297 -0.04777241724172
 1  13.89474874687469 -0.66795023012301  1.34857969596960
 1  13.36367160316032 -2.38394897599760  1.71439157115712
 1 -14.54463724072407 -0.59369952695269  1.28080528652865
 1 -14.18857022402240 -0.43590051305130 -0.49760138013801
 1  12.91439664166417 -2.88307305040504 -0.49535760076008
 1 -12.99484494549455  1.92292681068107  1.50481995499550
 1  13.86987791979198 -0.14193691379138 -1.51568745274527
 1  12.85061655465547 -1.24017624472447 -2.38225890189019
 1 -13.49963550755075  1.58335965696570 -1.66583451645164
 1 -12.52961156815682  2.73481554555456 -0.60515739873987
 1  11.71602022202220 -0.60722144824482  3.38448310931093
 1  10.21982784778478 -0.11288079817982  2.50096897789779
 1  12.00536980698070  0.63697343024302  2.33802293729373
 1  10.67633663666366 -3.13374395449545  0.33032841884188
 1  11.13692460946095 -2.94121903900390  2.14269419341934
 1  9.70075607660766 -2.13576456955696  1.57791273427343
 1 -11.88909580958096  0.45613118411841  2.40819471247125
 1 -10.78114262326233 -1.31641879687969  2.38078408240824
 1 -12.44296545554555 -1.21179208420842  2.95202779877988
 1 -13.43237301830183 -2.87389864186419  0.88935344434443
 1 -11.68345139313931 -2.89741176917692  0.79020407640764
 1 -12.81930228822882 -2.78633894189419 -0.60049852385239
 1  8.78516034003400 -0.53671199129913  0.54923910791079
 1 -10.39830956295630 -2.07226095009501 -0.81650128312831
 1  9.99969238823882  0.56786688458846 -2.39535423842384
 1  11.68275671067107  1.49488377927793 -2.52217193119312
 1  11.59019325432543 -0.04094458155816 -3.52968009800980
 1 -11.17550855785579  1.92629585858586 -2.51388288128813
 1 -10.01252679167917  0.71051168816882 -2.22747735373537
 1 -9.99668142314231  2.28100671367137 -1.62157575357536
 1  15.08531508450845 -2.75446435153515  0.03145503850385
 1 -15.17070650565056  1.81652656665667  1.43017122212221
 1  10.20021550355036  2.06774007790779 -0.25876519151915
 1 -8.69108580558056  0.54539663766377  0.02314750175017
 1  8.81515437743774  4.25177503040304 -0.28129443244324
 1  6.99375276427643  4.09234464336434 -0.00797496449645
 1  8.23704841484148  3.83933682058206  1.50675369336934
 1 -8.02048907890789 -3.43807073617362 -0.13329916891689
 1 -8.12554831083108 -2.65035404950495 -1.89132546254625
 1 -6.50789963896390 -2.96485013711371 -1.08220501250125
 1  6.90505216821682  0.38656239913991 -0.33141653365337
 1 -6.56082634463446  0.57275711561156  0.30737836083608
 1  5.43233261726173  3.14068921682168  0.34501675667567
 1 -4.78119193919392 -2.03509481658166 -0.78485588558856
 1  4.70984408340834  0.19817806370637 -0.16530494149415
 1 -4.06122162616262  0.75865098199820  0.40478327432743
 1  3.53354113911391  3.19133317521752  1.38188438943894
 1  1.74056070907091  3.51740041094109  0.95902831083108
 1  3.17839186118612  3.84565239913991 -0.29484998099810
 1 -3.07028916591659 -2.93902104920492 -0.17636068006801
 1 -2.74256376437644 -2.30513163326333 -1.72715668266827
 1 -1.32094889388939 -2.42158233333333 -0.74678771477148
 1  2.52195935393539 -0.29302795389539  0.29709180518052
 1 -2.00718011901190  1.17329724762476  0.41646503350335
 1  0.19402514951495  1.89647235313531  0.58555435043504
 1  0.18010078007801 -0.90210016011601 -0.67454503850385

