%nproc=4
%Mem=2GB
# td=(NStates=1) CAM-B3LYP/6-31G(d,p) 

TD

0 1
 8  14.80790900990099 -2.11710918201820 -0.19974882788279
 8 -14.45932252925292  2.23813566956696  0.96405549954996
 6  11.35372866686669 -1.07943857795780  1.18995235623562
 6 -12.27362499449945 -0.79055161516152  0.96474199619962
 6  12.82988172017202 -1.36870990909091  1.24434200620062
 6 -13.53092570157016  0.02241608160816  1.08445734173417
 6  13.35847784178418 -1.83693922102210 -0.17760264926493
 6 -13.25459779977998  1.56296909490949  0.98895067906791
 6  10.95757428342834 -0.18962317841784  0.03369912391239
 6 -11.27337443844384 -0.28750977997800 -0.06642739673967
 6  13.05545976497650 -0.74161491859186 -1.14885575857586
 6 -12.69155991599160  1.79028700570057 -0.40606764876488
 6  11.77268201520152 -0.05987636073607 -1.02891140714071
 6 -11.49497308730873  0.93395971897190 -0.72652219121912
 6  11.15480620762076 -0.41174033213321  2.68045848684868
 6  10.55775521652165 -2.42485296639664  1.26879499949995
 6 -11.49089128312831 -0.79759158715872  2.27502608260826
 6 -12.57817851985199 -2.24491993499350  0.56708861286129
 6  9.63862868886889  0.35710674757476  0.15823250325032
 6 -10.26725809280928 -1.15762984798480 -0.44830351135114
 6  11.25681844684468  0.75196966186619 -2.23923813081308
 6 -10.60751319031903  1.35226561056106 -1.90395970297030
 6  9.28536850385038  1.57627106500650 -0.24266964096410
 6 -8.91143162816282 -0.69368292529253 -0.36732777877788
 6  8.01055704170417  2.26633637353735 -0.02692702370237
 6 -7.68491363336334 -1.41626595969597 -0.65791112311231
 6  7.95613609460946  3.78437664256426  0.31906327232723
 6 -7.79497060306031 -2.83743349144915 -1.13353352835284
 6  6.82756816381638  1.55933592749275 -0.01087109310931
 6 -6.44398620162016 -0.80842631773177 -0.49962296829683
 6  5.54738529052905  2.04858256515652  0.11594651065107
 6 -5.12672379437944 -1.18515839193919 -0.74874704870487
 6  4.45689962096210  1.25011042494249 -0.01715734473447
 6 -4.02192761276128 -0.48167437353735 -0.38515584558456
 6  2.92740534553455  1.56254685258526  0.11841350635064
 6 -2.68878264226423 -0.94616894699470 -0.61361902190219
 6  2.63442372337234  3.03950339923992  0.44931764076408
 6 -2.36289178317832 -2.37903520562056 -1.08924996499650
 6  2.06977655265527  0.62193935783578 -0.20174929992999
 6 -1.57890921392139 -0.15811610571057 -0.31243307030703
 6  0.60839800880088  0.72105687358736 -0.13762788278828
 6 -0.13960282928293 -0.25981808690869 -0.53083072307231
 1  13.38780805280528 -0.30717415251525  1.58355319331933
 1  13.08305354135414 -2.17469805090509  1.89557968996900
 1 -14.18105088208821 -0.20536069306931  1.95049225522552
 1 -14.17643901090109 -0.16007293029303  0.05890427042704
 1  12.85688089008901 -2.64766951005101 -0.59830789578958
 1 -12.56280174117412  2.06503102110211  1.80331980498050
 1  13.92697362936294 -0.07633035313531 -1.04604048804881
 1  13.07431892489249 -1.12877510461046 -2.05975665166517
 1 -13.51697724172417  1.71656297729773 -1.25596352935294
 1 -12.35695430243024  2.74260632463246 -0.68689557255726
 1  11.31709032903290 -1.03991471757176  3.55119978097810
 1  10.03312917791779 -0.36002551265126  2.79196807780778
 1  11.68495776577658  0.54259399229923  2.45178431343134
 1  10.58829783278328 -3.06281686178618  0.37921330733073
 1  10.84726564356436 -2.94282920002000  2.12107203120312
 1  9.60056605760576 -2.10658165126513  1.41104604760476
 1 -11.21313821382138  0.19679525052505  2.57667156015602
 1 -10.49016352535254 -1.30663781878188  2.04447045104510
 1 -12.07559871887189 -1.44147505250525  3.16227882388239
 1 -13.37534731573157 -2.72391364336434  1.15477998699870
 1 -11.75790883888389 -2.91219324732473  0.47049210521052
 1 -13.25492585058506 -2.59018932693269 -0.35904437843784
 1  8.96321814581458 -0.21715003510351  0.66005018901890
 1 -10.58954868686869 -2.17358108210821 -0.64486411941194
 1  10.16643906290629  0.77784788268827 -2.23832853585359
 1  11.67098553355336  1.77610190109011 -2.23934364836484
 1  11.54455869086909  0.31291080398040 -3.28118524852485
 1 -11.13749475647565  1.66312954195420 -2.62192368536854
 1 -9.84222976197620  0.59587022402240 -2.40888549454946
 1 -10.02982473747375  2.08650726372637 -1.42551614761476
 1  15.06062261526153 -2.68717762286229  0.49611150415041
 1 -15.12178161316131  1.92047696169617  1.72167037203720
 1  9.99673515551555  2.21009431333133 -0.43804311931193
 1 -8.92662935993599  0.38400049804980  0.20555574257426
 1  8.81323418541854  4.37697755065507 -0.39045534853485
 1  6.97107049604961  4.18390379927993  0.18105393839384
 1  8.12444715471547  3.66801968886889  1.36687970597060
 1 -8.43384041404140 -3.26442337143714 -0.44937077607761
 1 -8.07619337533753 -2.96720573467347 -2.28229455945594
 1 -6.71063991299130 -3.27885153725373 -1.11208800080008
 1  6.83321498449845  0.56021976487649 -0.40106349834984
 1 -6.61362162416242  0.22656249614961  0.00410803380338
 1  5.30157954195420  3.17553270117012  0.33632588758876
 1 -4.92930675067507 -2.21233254035404 -1.45132253225322
 1  4.57747084608461  0.17206545244524 -0.40519893089309
 1 -4.30632613661366  0.50868598549855  0.14711750775078
 1  3.17219500450045  3.28584262616262  1.38768496949695
 1  1.47926457945795  3.06340501140114  0.69640204820482
 1  2.79480350235023  3.80023785768577 -0.50987148314832
 1 -2.85186732373237 -3.07091423852385 -0.40555359935994
 1 -2.89969947794780 -2.52817393749375 -1.97047101410141
 1 -1.29587638663866 -2.58525870097010 -1.42826586258626
 1  2.41180833883388 -0.42501115221522 -0.45593349734973
 1 -1.98244764576458  0.84053397129713  0.10287367436744
 1  0.23487923492349  1.66278898479848  0.04201999699970
 1  0.13337610761076 -1.25812576267627 -1.04584216821682

