%nproc=4
%Mem=2GB
# td=(NStates=1) CAM-B3LYP/6-31G(d,p) 

TD

0 1
 8  14.73334155315532 -2.22215968706871 -0.47302615561556
 8 -14.84501109810981  1.90044190019002  0.61123021702170
 6  11.65376867086709 -1.06038667276728  1.15889925092509
 6 -12.27708534053405 -0.92621518151815  0.74689021102110
 6  13.07518625062506 -1.39578261636164  0.95012258425843
 6 -13.62521513051305 -0.22424858485849  0.71313020902090
 6  13.40464245824582 -1.88945447254725 -0.35053994299430
 6 -13.55467780778078  1.28837163516352  0.77780956495650
 6  11.05111363736374 -0.29850406650665  0.01994774877488
 6 -11.41594869586959 -0.30978200720072 -0.22998375237524
 6  13.11158537753775 -0.81502225932593 -1.37896876987699
 6 -12.84730549054906  1.72957093409341 -0.62687972997300
 6  11.63599834683468 -0.29888026112611 -1.23293180918092
 6 -11.60874446444644  0.90608693169317 -0.85111465046505
 6  11.49137986498650 -0.25002416051605  2.48266870787079
 6  10.66804624562456 -2.27355783688369  1.44038215821582
 6 -11.78110030403040 -0.81078290629063  2.24521310131013
 6 -12.57813851585159 -2.42064750775077  0.37337924192419
 6  9.78227305330533  0.35435647254725  0.30527720772077
 6 -10.09190055705571 -1.02255634063406 -0.39901858285829
 6  11.02326509150915  0.39497396229623 -2.39872407940794
 6 -10.69044148314832  1.49238962296230 -1.89585889288929
 6  9.34474444144414  1.65769920782078 -0.06256163016302
 6 -8.84899538453845 -0.48038159515952 -0.31420246624662
 6  8.01520750675067  2.24843458335834  0.08641431043104
 6 -7.60554569656966 -1.22899723282328 -0.43286861886189
 6  8.12726320732073  3.68560676557656  0.43064443044304
 6 -7.80753185918592 -2.55812556065607 -0.91495167016702
 6  6.87068247524752  1.59043903780378  0.00174016801680
 6 -6.43738554155416 -0.63669914501450 -0.34888789478948
 6  5.52443299529953  2.03057076397640  0.14642955895590
 6 -5.11735285728573 -1.25336521262126 -0.38403057705771
 6  4.47171110211021  1.16432184608461 -0.04839046804680
 6 -4.04566998699870 -0.43354956105611 -0.19268659865987
 6  3.07294989999000  1.61243184108411  0.13664532953295
 6 -2.62888665266527 -0.74580891099110 -0.34256191619162
 6  2.74334461546155  3.04645409430943  0.57850055905591
 6 -2.45470096409641 -2.17890519261926 -0.84661570157016
 6  2.09333890889089  0.70580774467447 -0.06173529852985
 6 -1.69582090509051  0.07996770267027 -0.06426825382538
 6  0.69237640664066  0.86415118301830  0.09576545654565
 6 -0.20301917091709 -0.09707181228123 -0.21604924492449
 1  13.83443271527153 -0.44352778787879  1.12938777677768
 1  13.15641087708771 -2.12131271237124  1.92452258425843
 1 -14.21261403840384 -0.55590574757476  1.50129733573357
 1 -14.15333670067007 -0.45901282428243 -0.23062468246825
 1  12.81743694569457 -2.74742948604860 -0.47093515851585
 1 -13.05348080908091  1.79012353035304  1.51274074707471
 1  13.78619955195520  0.00950823072307 -1.50879676367637
 1  13.02162365536554 -1.53042526962696 -2.29934061006101
 1 -13.84693023702370  1.85613693469347 -1.25956388938894
 1 -12.78060666766677  2.94889695369537 -0.50243712671267
 1  11.90197881788179 -0.98300902700270  3.32768742974297
 1  10.44543040804080 -0.23764327442744  2.63812269326933
 1  11.76825609560956  0.81195092799280  2.31661079607961
 1  10.78395739873987 -2.99156973707371  0.69032441844184
 1  11.05471638863886 -2.98758367546755  2.29484940894089
 1  9.66739274027403 -1.83196418951895  1.69111405440544
 1 -11.46186308630863  0.20474604560456  2.56431032403240
 1 -10.71028553755376 -1.42531968696870  2.30550655465546
 1 -12.55754691369137 -1.24171507650765  2.77624022002200
 1 -13.57267704870487 -2.50849210121012  1.09609411841184
 1 -11.77565061306131 -2.99925195319532  0.92752780878088
 1 -12.61153151115112 -2.52966327432743 -0.81600007400740
 1  8.95439726372637 -0.31810013011301  0.79055323932393
 1 -10.29047877987799 -2.08391211521152 -0.34206383938394
 1  9.99910232923292  1.10123022092209 -2.15007971097110
 1  12.20137857285729  0.99976426732673 -2.71117083108311
 1  10.87980221522152 -0.22053254035404 -3.29127625762576
 1 -11.35123613061306  2.07140036903690 -2.60159165216522
 1 -9.98933447244725  0.67405804280428 -2.37927253325332
 1 -10.00611236623662  2.33780239323932 -1.63479707570757
 1  14.92414896789679 -2.98581748684869  0.06894878787879
 1 -15.64257369236924  1.40345525952595  1.24040224522452
 1  10.17179266126613  2.19121242514251 -0.73607292229223
 1 -8.66003270027003  0.60916301430143  0.15446063306331
 1  8.75673853585358  4.27541739463946 -0.34738104110411
 1  7.25717910691069  4.15925133403340  0.48260409340934
 1  8.52601731173117  4.05644853175318  1.39111212921292
 1 -8.13618064806480 -3.32622955205521 -0.14924076307631
 1 -8.55371112711271 -2.70822983708371 -1.71736806680668
 1 -6.91892074107411 -3.11704535663566 -1.19123591559156
 1  6.91129279227923  0.54899864276428 -0.38516190819082
 1 -6.45349561156116  0.32079191909191  0.17117474047405
 1  5.31821120512051  2.92225737363736  0.48835109010901
 1 -4.90115393539354 -2.19242054915492 -0.69316671667167
 1  4.54423752275228  0.12431067696770 -0.43127153815382
 1 -4.17907341134113  0.66756187308731  0.08501129712971
 1  3.45837362236224  2.99089313121312  1.39693589458946
 1  1.69276592959296  3.14218288918892  0.85739814781478
 1  3.23483750575057  3.68076591049105 -0.12837333333333
 1 -2.57740987798780 -2.87848499559956 -0.14038708270827
 1 -3.03759326732673 -2.14255537563756 -1.70749471647165
 1 -1.29822662166217 -2.36080625572557 -1.19901293729373
 1  2.48517567556756 -0.23634228532853 -0.39367727172717
 1 -1.90187958895890  1.06591650955096  0.27506089308931
 1  0.35104085108511  1.82451515741574  0.41224701970197
 1  0.13928669866987 -1.19773972407241 -0.67687527152715

