%nproc=4
%Mem=2GB
# td=(NStates=1) CAM-B3LYP/6-31G(d,p) 

TD

0 1
 8  14.62819103810381 -2.38117558865887 -0.56838569156916
 8 -14.67047364436444  2.07989984598460  0.87058615261526
 6  11.53320661466147 -1.05643627772777  1.16446980798080
 6 -12.33340097209721 -0.93424598459846  0.84164968696870
 6  12.93489222122212 -1.49607264536454  1.02677024902490
 6 -13.62961557055706 -0.16400256025603  0.83579247524752
 6  13.28365035903590 -2.01359688678868 -0.34178906790679
 6 -13.42978531853185  1.40010280828083  0.76925870987099
 6  10.97352587858786 -0.27520173627363  0.04771052505251
 6 -11.30439754075407 -0.32277330633063 -0.17386814081408
 6  12.97669188818882 -0.97444820192019 -1.30048092109211
 6 -12.71018177817782  1.73850182718272 -0.51873891589159
 6  11.62600734773477 -0.21496186928693 -1.12216073207321
 6 -11.59087267726773  0.73772009500950 -0.90515005400540
 6  11.45400612761276 -0.26586574467447  2.57744818581858
 6  10.63271271227123 -2.31963244434443  1.43466158615862
 6 -11.69859205320532 -0.90699252725273  2.32038061806181
 6 -12.73137383938394 -2.32206764976498  0.29853175717572
 6  9.70489531553155  0.35519655655566  0.13827050705071
 6 -10.06247761476148 -1.13598768376838 -0.38909759075908
 6  11.14795756075608  0.40903536843684 -2.40698490549055
 6 -10.69058149714972  1.24135451945195 -2.03695300230023
 6  9.37193716071607  1.66935037293729  0.01401602760276
 6 -8.87191767676768 -0.67441099809981 -0.17622866886689
 6  8.10783676967697  2.30491023092309  0.13724939393939
 6 -7.63406854885489 -1.30263459655966 -0.56418175017502
 6  8.04161464246425  3.85169337423742  0.51259262526253
 6 -7.57867897389739 -2.86564631273127 -0.83235341034103
 6  6.90820622762276  1.67012700660066 -0.05549555555556
 6 -6.41842364536454 -0.63685916101610 -0.35665867186719
 6  5.40816136813681  2.03601130803080  0.23516843284328
 6 -5.10571169316932 -1.16476635273527 -0.42435460946095
 6  4.41962589358936  1.27789320322032 -0.05215084408441
 6 -4.08877429742974 -0.41463766986699 -0.35796312631263
 6  3.08376098109811  1.70471106900690  0.15240690569057
 6 -2.57464122812281 -0.78529285938594 -0.53439109910991
 6  2.84226450745075  3.06996644554455  0.66034874387439
 6 -2.42784827882788 -2.20937823992399 -0.77403844384438
 6  2.02857243224322  0.89422658655866 -0.20725985098510
 6 -1.65557688068807  0.17673737963796 -0.26059788678868
 6  0.63096026502650  1.07572234013401 -0.16087020702070
 6 -0.23236210521052  0.04125202010201 -0.38594623462346
 1  13.80814008600860 -0.98559199429943  1.28415325332533
 1  13.01048628462846 -2.50546112721272  1.73292342434243
 1 -14.21831460846085 -0.44081423842384  1.51153835983598
 1 -14.07162852985299 -0.19184610761076 -0.22939455945595
 1  12.66840204220422 -2.86703144624462 -0.48998706370637
 1 -12.84454991599160  1.77960247824782  1.52660213321332
 1  13.87359829182918 -0.30812353245325 -1.23436932093209
 1  13.23368486148615 -1.34047627472747 -2.49156983298330
 1 -13.56030157415742  1.55664698569857 -1.38140607360736
 1 -12.56631523852385  2.63942600660066 -0.73363024602460
 1  12.04080270027003 -0.72538326442644  3.35138979998000
 1  10.59024488948895 -0.06110562066207  3.10384926592659
 1  11.94535380538054  0.77536726962696  2.37169630463046
 1  10.83432243524352 -3.10773135323532  0.72726811281128
 1  10.67932884988499 -2.82421733883388  2.34837476147615
 1  9.61168716971697 -2.04828582168217  1.31925686868687
 1 -11.56827372737274  0.16126169716972  2.65451934493449
 1 -10.67304181318132 -1.14793194819482  2.23009901390139
 1 -12.26526768576858 -1.54317522252225  2.94056665266527
 1 -13.52682246324632 -2.73741499349935  0.75386989598960
 1 -11.82654570257026 -2.98023005100510  0.35771082708271
 1 -12.95642600060006 -2.22709301730173 -0.71913038703870
 1  8.77729955395539 -0.22104042414241  0.70026421042104
 1 -10.09292902490249 -2.02433615761576 -0.66759639263926
 1  10.08840125912591  0.84490458835884 -2.47304200720072
 1  11.75274370937094  1.32365665656566 -2.57456717071707
 1  11.43483771877188 -0.22528301540154 -3.26297342734273
 1 -11.39029003600360  1.53965719471947 -2.93535502850285
 1 -9.99647518651865  0.44991562856286 -2.40859546554655
 1 -10.18363011801180  1.99713832683268 -1.61881547754775
 1  14.89900645364536 -3.07481638673867  0.07044893789379
 1 -15.04065350035003  1.72682759675968  1.73904210921092
 1  10.13236871887189  2.50205350925092 -0.05076439143914
 1 -8.54361105810581  0.36867896589659  0.18902408940894
 1  8.81948481048105  4.25147500040004  0.03359705670567
 1  7.04600798979898  4.43126853575358  0.14064989798980
 1  8.08460317031703  3.77448033493349  1.66588960696070
 1 -8.48421545154515 -3.16298322742274 -0.37731357035704
 1 -7.64722047804781 -2.99481849594960 -1.92395872587259
 1 -6.65060390939094 -3.38497214931493 -0.78495528752875
 1  6.99841150415041  0.61466520942094 -0.31892528452845
 1 -6.47663792579258  0.54381422132213 -0.21598397539754
 1  5.44378376237624  3.09992514041404  0.72073432843284
 1 -4.75166898689869 -2.10648195529553 -0.92130953095310
 1  4.65623872287229  0.36378462436244 -0.46738514951495
 1 -4.12431793579358  0.55828094499450 -0.22841004500450
 1  3.73411119611961  3.53343738563856  1.47465366636664
 1  1.85090174317432  3.22963163406341  1.12531493949395
 1  2.93901792379238  4.05666350025002 -0.15507600360036
 1 -2.65815795279528 -2.72059920702070  0.12877983398340
 1 -2.86630613861386 -2.58644976507651 -1.58140210721072
 1 -1.43236003500350 -2.35083525862586 -1.11506454245425
 1  2.28832599059906 -0.01334998609861 -0.56027393139314
 1 -2.01480088108811  1.25142506040604 -0.25976258925893
 1  0.20277602460246  1.94227693359336  0.24423021802180
 1  0.06539930993099 -0.87003695379538 -0.55532311631163

