%nproc=4
%Mem=2GB
# td=(NStates=1) CAM-B3LYP/6-31G(d,p) 

TD

0 1
 8  14.52828104710471 -2.19168663976398 -0.53455230823082
 8 -14.64752134913491  2.12230408640864  0.55812490649065
 6  11.39551284528453 -1.05856649074907  1.21654501550155
 6 -12.30448808080808 -0.92788534853485  0.82104762676268
 6  12.94759349134914 -1.43958699679968  1.01762933493349
 6 -13.70950355935594 -0.11728788878888  0.72287118311831
 6  13.18554054805480 -1.89318484558456 -0.31405629462946
 6 -13.42938527852785  1.42193499149915  0.69043082708271
 6  10.89104763076308 -0.24196841294129  0.05241099509951
 6 -11.24374147514751 -0.35871690069007 -0.17896865086509
 6  12.91394561356135 -0.89970072717272 -1.45760663366337
 6 -12.64450521052105  1.71509948694869 -0.61883892589259
 6  11.54369911691169 -0.23565393849385 -1.17784630063006
 6 -11.37663125312531  0.90013633663366 -0.63834337333733
 6  11.30296102310231 -0.17377653575358  2.45386582758276
 6  10.61313075407541 -2.35063554465447  1.46580470047005
 6 -11.78712090609061 -0.74789661766177  2.24111269126913
 6 -12.59433013501350 -2.38567401040104  0.51812371637164
 6  9.55982080808081  0.48109914681468  0.22423910391039
 6 -10.04901626862686 -1.14116820182018 -0.35097377837784
 6  11.05286805180518  0.47908237313731 -2.42131633863386
 6 -10.40410284928493  1.48554893889389 -1.69874918191819
 6  9.34142410941094  1.72885632353235 -0.17790316431643
 6 -8.78399888488849 -0.63941749874987 -0.39299034503450
 6  7.96680266626663  2.27921766166617  0.19037470647065
 6 -7.49387452945295 -1.28810314341434 -0.57120245224522
 6  8.04625510651065  3.76138434333433  0.54076544254425
 6 -7.68998010401040 -2.84005375347535 -0.83776395139514
 6  6.89143455045505  1.52983297719772  0.07973796779678
 6 -6.29606140914091 -0.65815129022902 -0.35237824382438
 6  5.49852040404040  1.97889559645965  0.26276119211921
 6 -4.96358748074807 -1.14560443654365 -0.55453762776278
 6  4.41067499849985  1.24831024492449  0.04302867386739
 6 -3.95821124112411 -0.40133633973397 -0.31067839783978
 6  3.05945855085509  1.65335593349335  0.17319898489849
 6 -2.54052781678168 -0.85624995509551 -0.48164582458246
 6  2.67579786078608  3.03689313821382  0.58103081208121
 6 -2.38988448244825 -2.21049835193519 -0.93406444644464
 6  2.06575615061506  0.66369353325333 -0.13816294129413
 6 -1.59179050205021  0.05400510641064 -0.23609543654365
 6  0.66526369536954  0.74402917081708  0.02974885488549
 6 -0.17053592259226 -0.20447255235524 -0.22591023102310
 1  13.62514178617862 -0.47785122022202  1.15859069706971
 1  13.26939217521752 -2.37074765586559  1.77052718471847
 1 -14.43715649264926 -0.38565872287229  1.54510171617162
 1 -14.08566993399340 -0.46188311131113 -0.28355997599760
 1  12.47363256525653 -2.79763450655065 -0.54675274027403
 1 -12.69521498249825  1.65965048304830  1.53932340534053
 1  13.81138207020702 -0.16752947304730 -1.62232811681168
 1  12.79670116311631 -1.71104333143314 -2.31012168816882
 1 -13.22422796679668  1.56484780578058 -1.53490142314231
 1 -12.45250385738574  2.86159822382238 -0.68092497549755
 1  11.68325694569457 -0.49414014011401  3.50062472347235
 1  10.39894575957596  0.18205869576958  2.58898777977798
 1  11.86881615161516  0.73478321122112  1.98644777977798
 1  10.69017802080208 -2.93502408250825  0.60664605060506
 1  10.94919583658366 -2.98029294639464  2.35173509750975
 1  9.48855485648565 -2.16186717981798  1.46056099909991
 1 -11.46890379037904  0.18036360736074  2.53516740974097
 1 -10.97453196219622 -1.49293644864486  2.24159016301630
 1 -12.49727088608861 -1.11333223822382  3.00943353935394
 1 -13.43962374337434 -2.82317356935694  0.99946445544554
 1 -11.75464851285128 -2.91572360036004  0.75171022702270
 1 -12.62157251525153 -2.53069337733773 -0.64133260726073
 1  8.91892371637164 -0.08713703380338  0.95884006800680
 1 -10.35206493849385 -2.14254797879788 -0.41795142814281
 1  9.96989940894089  0.57132723062306 -2.32776747974797
 1  11.35960439543955  1.56762105300530 -2.55046476047605
 1  11.23312754775478 -0.11922240934093 -3.41296842684268
 1 -10.91197220422042  1.86875010401040 -2.54857635063506
 1 -9.58692423142314  0.59564020102010 -2.02515712171217
 1 -9.81811356635664  2.43395200820082 -1.26782037803780
 1  14.73432998599860 -3.06866577167717  0.06391828482848
 1 -15.27248668366837  1.94023893789379  1.31717992299230
 1  9.86548203020302  2.57063036693669 -0.51025034003400
 1 -8.69781647864787  0.39612171017102 -0.14068888188819
 1  8.57768063006301  4.28466831973197 -0.30641694469447
 1  7.03140652965296  4.15039044794479  0.50754658765877
 1  8.48168287828783  3.95204809170917  1.46919993799380
 1 -8.11863889388939 -3.32438936803680 -0.00469630863086
 1 -8.57368312431243 -2.91243025712571 -1.61850818081808
 1 -6.83000184918492 -3.43170682278228 -1.22410920292029
 1  6.74876653965397  0.47737148004801 -0.29487287928793
 1 -6.45026528852885  0.45621546144614 -0.03111548854885
 1  5.53155253925393  3.17380252815282  0.50086234123412
 1 -4.95376919691969 -2.05061636873687 -1.30760816081608
 1  4.69147224622462  0.13928217411741 -0.12858126912691
 1 -4.06586209020902  0.44952006890689  0.39317211321132
 1  2.59269705470547  3.23966800870087  1.74806100710071
 1  1.58387504050405  3.28230690159016  0.23593600160016
 1  3.34191821382138  3.70657849174917  0.15602510651065
 1 -3.00822295929593 -2.97010415751575 -0.19741278527853
 1 -2.94464397239724 -2.41030215031503 -1.83517748474847
 1 -1.33590038903890 -2.64624479957996 -0.95053808980898
 1  2.54747190519052 -0.33066171727173 -0.36254415841584
 1 -1.91927132813281  0.95880579847985  0.07841122812281
 1  0.30758650565057  1.67563026892689  0.49266506150615
 1  0.18476124612461 -1.32049199929993 -0.57347493149315

