%nproc=4
%Mem=2GB
# td=(NStates=1) CAM-B3LYP/6-31G(d,p) 

TD

0 1
 8  14.65820403940394 -2.38843631473147 -0.47968682168217
 8 -14.85244184118412  1.92578443444344  0.50350944494449
 6  11.46206950095010 -1.05616625072507  1.13736709770977
 6 -12.37003463546355 -1.01262382238224  0.64321984398440
 6  12.89251798379838 -1.49704274237424  0.99783735573557
 6 -13.69021163016301 -0.15460162016202  0.62952184818482
 6  13.28963095709571 -2.00511603870387 -0.36931182018202
 6 -13.55160750075007  1.36575937393739  0.55657744174417
 6  11.00269879587959 -0.30971518761876 -0.09039328532853
 6 -11.31556865786579 -0.38429945894589 -0.26326708070807
 6  13.08266248524852 -0.89880063716372 -1.32933380638064
 6 -12.77721848184819  1.70879885688569 -0.64979202120212
 6  11.76484123112311 -0.31834220732073 -1.14718323432343
 6 -11.49484307430743  0.88408473147315 -0.71412095109511
 6  11.40514124112411 -0.21200035813581  2.48489893089309
 6  10.54390383138314 -2.21561204230423  1.17665578557856
 6 -12.01588378237824 -0.84716654465447  2.12180076007601
 6 -12.62226292829283 -2.43069851285129  0.35186709070907
 6  9.68075290129013  0.44132516941694  0.14817149714972
 6 -10.05720708770877 -1.08616270127013 -0.44507318831883
 6  11.24861762676268  0.41949641454145 -2.32035624262426
 6 -10.58563100210021  1.54769515351535 -1.79061836883688
 6  9.45313528052805  1.78750218811881 -0.11561693569357
 6 -8.81669215421542 -0.51046460346035 -0.24767581358136
 6  8.06263224922492  2.35290503040304  0.16959262826283
 6 -7.61953709570957 -1.24527886098610 -0.40496582858286
 6  7.97231771277128  3.79020722562256  0.59707107310731
 6 -7.65046615261526 -2.75913566166617 -0.67718789378938
 6  6.94084949194919  1.65846584048405 -0.11822182818282
 6 -6.46133793679368 -0.58055353045305 -0.08205121112111
 6  5.55083563556356  2.07787549444945  0.16465138113811
 6 -5.06573769576958 -1.14188406450645 -0.11887406140614
 6  4.52028595959596  1.29716513041304 -0.15246087508751
 6 -3.95089050905091 -0.36883308940894 -0.10864819481948
 6  3.01063366836684  1.63935453335334  0.10859252425243
 6 -2.64508827282728 -0.80742507260726 -0.32602026202620
 6  2.87649793079308  3.04769421832183  0.67162987198720
 6 -2.45839133313331 -2.27574487658766 -0.76619765976598
 6  2.15963553855386  0.62764992889289 -0.15612473747375
 6 -1.59432075507551  0.13456316221622 -0.16615844284428
 6  0.70105727472747  0.89362413031303  0.02985886588659
 6 -0.12383125212521 -0.15011711681168 -0.25527316731673
 1  13.62744201620162 -0.75309874497450  0.99518435643564
 1  13.36520175617562 -2.19325990709071  1.76272640464046
 1 -14.40114289128913 -0.20043020002000  1.44343154915492
 1 -14.50873224022402 -0.34936185918592 -0.13929554955496
 1  12.49018422042204 -2.84837958105811 -0.70211827682768
 1 -13.03422888388839  1.82369688768877  1.50705017801780
 1  13.71567249924992 -0.01477419751975 -1.10823670767077
 1  13.24892638563856 -1.30049227632763 -2.25728640464046
 1 -13.34038958295830  1.65793711471147 -1.57704563756376
 1 -12.54381298829883  2.72786485048505 -0.41325820882088
 1  11.88365698569857 -0.75468619471947  3.30524518551855
 1  10.39723558855886  0.08276876677668  2.89127800880088
 1  12.01105037503750  0.65914564746475  2.60956009100910
 1  10.72607161016101 -2.85501608170817  0.25276066206621
 1  10.62662357935794 -2.94024894199420  1.88546847084708
 1  9.57413341434143 -1.86496748984898  0.99584452745274
 1 -11.87767466746675  0.13590916191619  2.45097899089909
 1 -11.04262877187719 -1.46304345934593  2.51437744174418
 1 -12.63321448044804 -1.64357526252625  2.88280087608761
 1 -13.66196597759776 -2.87583883588359  0.99387389638964
 1 -11.53840688868887 -2.97176920492049  0.54022907890789
 1 -13.06411676967697 -2.42521282928293 -0.60476895089509
 1  8.94022584658466 -0.19491781188119  0.52640682468247
 1 -10.19453918591859 -2.22897662166217 -0.43942357535754
 1  10.31814423342334  0.93049314721472 -2.39352405540554
 1  11.68065650065007  1.39846413731373 -2.72703241724172
 1  11.22102633763376 -0.29021950905091 -3.15900303030303
 1 -11.24152515951595  1.89852308130813 -2.53259475247525
 1 -9.84618015701570  1.06566720372037 -2.08218282428243
 1 -10.17995975097510  2.45267388038804 -1.12897649364936
 1  14.66926347934793 -3.46837574267427 -0.13796190319032
 1 -15.42991242624262  1.56108102210221  1.18473667866787
 1  10.15517099909991  2.38965226912691 -0.60466978197820
 1 -8.92592928992899  0.38900099809981  0.07563275027503
 1  8.41860472247225  4.41834168706871 -0.26340264326433
 1  6.98679206820682  4.28859426832683  0.79632546554655
 1  8.69088379837984  3.81192407930793  1.47762078007801
 1 -8.24916194619462 -3.21192812191219  0.07095125612561
 1 -8.09427518351835 -2.70255927002700 -1.66460279027903
 1 -6.63386223522352 -3.32125577767777 -0.57265405740574
 1  7.20983264626463  0.67172091499150 -0.48272166416642
 1 -6.41277153915392  0.46911675157516  0.10200782378238
 1  5.41253063706371  3.07612276017602  0.74334658965897
 1 -5.01182500250025 -2.07368867596760 -0.38566596659666
 1  4.56397949694970  0.28667691359136 -0.58319673067307
 1 -4.03033853785379  0.63637875477548 -0.06275347934794
 1  3.56191397639764  3.09679372127213  1.54665086608661
 1  1.84517117011701  3.24618328922892  1.15537794579458
 1  3.01581560356036  3.82910074397440 -0.05300579657966
 1 -2.96615875287529 -3.09261640874087 -0.13701674567457
 1 -2.65494500250025 -2.48028914901490 -1.88847281428143
 1 -1.39010580958096 -2.44376455155516 -0.88384142014201
 1  2.33679083708371 -0.28824747584758 -0.55861376537654
 1 -1.87905730673067  1.19885980388039  0.01760514751475
 1  0.12408815581558  1.75160786668667  0.25265106010601
 1  0.09304207420742 -1.25803575367537 -0.71472905690569

