%nproc=4
%Mem=2GB
# td=(NStates=1) CAM-B3LYP/6-31G(d,p) 

TD

0 1
 8  14.54615283428343 -2.45896336743674 -0.19634848784878
 8 -14.91843844084408  1.78607046304630  0.72239133313331
 6  11.37528082208221 -1.06692732683268  1.25157851885189
 6 -12.29904753675367 -0.92853541354135  0.79373489548955
 6  12.77414614661466 -1.51552459055906  1.24836240824082
 6 -13.67774038303830 -0.33879003900390  0.75324422042204
 6  13.21597359135914 -2.02184771187119 -0.19619450845085
 6 -13.61824416441644  1.24523732173217  0.86288807280728
 6  10.97901642764277 -0.17454167026703 -0.00591483748375
 6 -11.35630273127313 -0.32400342934293 -0.12295304930493
 6  13.04485870487049 -0.97186794389439 -1.23096396939694
 6 -12.78675943594360  1.76771474847485 -0.34859190119012
 6  11.75164991199120 -0.20285065816582 -1.09779829582958
 6 -11.59778336833683  0.95110143314331 -0.67560709970997
 6  11.15716644364437 -0.33949310741074  2.56111655265527
 6  10.31869131013101 -2.28721920302030  1.29256737673767
 6 -11.76716891089109 -0.81080290829083  2.26794537453745
 6 -12.43462416441644 -2.49474491749175  0.46976888088809
 6  9.61731655765577  0.44954599149915  0.20328700870087
 6 -10.08877024402440 -0.91914599959996 -0.26480516151615
 6  11.35664842984298  0.54714917981798 -2.31183539053905
 6 -10.68237067606761  1.59447983198320 -1.74666397339734
 6  9.41423139013901  1.73364680258026 -0.26121149514951
 6 -8.75020550555056 -0.57434099109911 -0.18698974497450
 6  8.11592757875787  2.39913965386539  0.00978664766477
 6 -7.47028217021702 -1.24121845494549 -0.55323065506551
 6  8.15270575157516  3.82264046894689  0.43697506350635
 6 -7.59041014701470 -2.73081282938294 -0.94062423742374
 6  6.94999040604060  1.73455344924492 -0.22836284228423
 6 -6.37077888088809 -0.54327980308031 -0.38343134913491
 6  5.52260281228123  2.03995170207021  0.07814273027303
 6 -5.05924704670467 -1.03073294939494 -0.59029120312031
 6  4.48583251425142  1.22280769466947 -0.13268889788979
 6 -3.91063648364837 -0.30701690779078 -0.36109343934393
 6  3.10603320832083  1.62317291519152  0.04554621962196
 6 -2.54393815781578 -0.78389271937194 -0.50491815181518
 6  2.67039732073207  2.95651510041004  0.60796350535054
 6 -2.23047854185419 -2.10354765686569 -0.98492953295330
 6  2.14735431043104  0.67220438433843 -0.24863398839884
 6 -1.58218954195420  0.07291699759976 -0.21792361936194
 6  0.71035820482048  0.81073584148415 -0.17717183718372
 6 -0.17852672167217 -0.18730083518352 -0.46947458745875
 1  13.35143441544155 -0.65895933103310  1.49463430143014
 1  12.97739297529753 -2.32889347044704  2.12565269726973
 1 -14.29688246524652 -0.87831798879888  1.45467267326733
 1 -14.15323669066907 -0.44979190219022 -0.08681030103010
 1  12.79752495449545 -2.93037778087809 -0.62396046104610
 1 -12.93702916391639  1.69942446044604  1.70961043404340
 1  14.07218815081508 -0.37369008910891 -1.28451433543354
 1  13.05515700870087 -1.33953618071807 -2.30954163016302
 1 -13.48791433543354  1.76003732473247 -1.28023595659566
 1 -12.52705131213121  2.75687775177518 -0.18409529252925
 1  11.62438105810581 -0.57850857695770  3.57532219321932
 1  10.01395726072607 -0.27107661776178  2.73852273327333
 1  11.53566283628363  0.82041177407741  2.37350648564856
 1  10.51062006500650 -3.00219079917992  0.57844323032303
 1  10.28398931593159 -2.80079499659966  2.35547547154715
 1  9.32916891789179 -1.73171416451645  1.22726766976698
 1 -11.77263416341634  0.10979655065507  2.98076196919692
 1 -10.75143965296530 -1.15454260926093  2.31952795679568
 1 -12.58438959795980 -1.36406731173117  3.04382697869787
 1 -13.01913169416942 -3.09211046304631  1.18667317631763
 1 -11.64582763076308 -2.82902493049305  0.69232428842884
 1 -12.66726708470847 -2.81523183118312 -0.39811828582858
 1  8.85543736773677 -0.13361168126813  0.88758294229423
 1 -10.23187291929193 -1.91222494649465 -0.89451908490849
 1  10.21954437343734  1.02381247914791 -2.34232893589359
 1  12.05083351835184  1.36635092599260 -2.66757647164717
 1  11.47900213521352 -0.30378086518652 -3.14473160316032
 1 -11.16070707770777  1.91309453845384 -2.66404789778978
 1 -9.91604714371437  1.00773141014101 -2.16297090309031
 1 -10.19973172817282  2.59853846684668 -1.41450504650465
 1  14.60276682968297 -3.29254815991599  0.34534642764276
 1 -15.21055049004900  1.43433834783478  1.56811501650165
 1  10.23344882688269  2.32222552645265 -0.73939325432543
 1 -8.56114281128113  0.34606670467047  0.20471565856586
 1  8.70831369336934  4.43923377627763 -0.37614391739174
 1  7.11009439843984  4.17163257215722  0.39196502950295
 1  8.68806351635163  3.82610549744974  1.41437445544555
 1 -8.13787081708171 -3.33528045714571 -0.12030786978698
 1 -8.31245700170017 -2.75684469856986 -1.83417974797480
 1 -6.41803065206521 -3.12722637473747 -1.12358915091509
 1  7.01716337933793  0.73093683658366 -0.64985837783778
 1 -6.27844810681068  0.43923376327633 -0.14819719671967
 1  5.41035041904190  2.95839098699870  0.35238749374937
 1 -4.93573739373937 -2.04880618771877 -1.09151655165517
 1  4.75502860186019  0.02915116101610 -0.45249366036604
 1 -4.11819732373237  0.84959007590759 -0.18637584158416
 1  3.33783156815682  3.16153019491949  1.43802000300030
 1  1.55677233023302  2.99248791969197  0.64848725672567
 1  2.90857487948795  3.55266310021002 -0.25345584158416
 1 -2.92001413841384 -2.68729587668767 -0.44107715171517
 1 -2.62591209920992 -2.16264738483848 -2.04276824382438
 1 -1.12962976197620 -2.63478365346535 -0.88942197819782
 1  2.56045320332033 -0.13595224632463 -0.93623152715272
 1 -1.75551495249525  0.93098301620162  0.15170855785579
 1  0.47451319831983  1.88566127202720  0.54282007700770
 1  0.28432120212021 -1.16002595269527 -0.64031161516152

