%nproc=4
%Mem=2GB
# td=(NStates=1) CAM-B3LYP/6-31G(d,p) 

TD

0 1
 8  14.76196441544155 -2.22938040914091 -0.22322117511751
 8 -14.86581317831783  1.94119597559756  0.85228432243224
 6  11.29619291329133 -1.09826046014601  1.20758411941194
 6 -12.30284791679168 -0.91290385038504  0.78973449544954
 6  12.89337806980698 -1.55552859095910  1.11914948694869
 6 -13.73649625862586 -0.12697885788579  0.82978187418742
 6  13.39723171717172 -1.96951247834783 -0.26281117011701
 6 -13.54544688468847  1.42076487448745  0.87757954195420
 6  10.95336386238624 -0.28949316541654 -0.01471571757176
 6 -11.30304740574057 -0.34339536853685 -0.20553130713071
 6  13.16053027202720 -0.82500325742574 -1.29278015101510
 6 -12.84242500250025  1.64903288028803 -0.41571861386139
 6  11.75445019201920 -0.24580495359536 -1.10414893089309
 6 -11.64097768776878  0.77143346634663 -0.85985552455246
 6  11.20137086408641 -0.39279843794379  2.53974441544154
 6  10.54191363236324 -2.42262274337434  1.25317343734373
 6 -11.64326652065206 -0.74754658265827  2.27936651665167
 6 -12.51074177617762 -2.38849429242924  0.57050895489549
 6  9.57556238223822  0.44793583048305  0.18592527252725
 6 -10.04608597559756 -1.07425151015102 -0.52300098109811
 6  11.34633739873987  0.59416388128813 -2.26633084008401
 6 -10.80803324232423  1.57621800580058 -1.78257756475648
 6  9.36780674767477  1.70789422732273  0.01309593559356
 6 -8.86534701970197 -0.60683424042404 -0.32868391439144
 6  8.01662764876488  2.41591133103310  0.00020568956896
 6 -7.56244138613861 -1.27197153025303 -0.61059639163916
 6  8.10838131913191  3.88270647554755  0.40860222622262
 6 -7.70818192419242 -2.67573732183218 -1.16935711071107
 6  6.89630503750375  1.63936393029303 -0.10534054005401
 6 -6.35501730473047 -0.60336581168117 -0.43687669366937
 6  5.54784533653365  1.99613732063206 -0.03772885688569
 6 -5.03491461346135 -1.20400027612761 -0.47667984198420
 6  4.49668359935994  1.22363777767777 -0.08747437643764
 6 -3.96806222622262 -0.39366557265727 -0.35616294629463
 6  3.05813841884188  1.60319091699170  0.05064672967297
 6 -2.64454821882188 -0.80369469956996 -0.40077773777378
 6  2.84184446544654  3.00929037793779  0.39555226422642
 6 -2.33486898089809 -2.22135943804380 -0.68194923492349
 6  2.18916849184918  0.64823198709871 -0.17393651865187
 6 -1.66092741574157  0.08455816171617 -0.13105493249325
 6  0.69559672867287  0.83864863276328 -0.09188330833083
 6 -0.26646551555156 -0.20817292239224 -0.24830247024702
 1  13.28308758075808 -0.52303573867387  1.24586942494249
 1  13.19643487948795 -2.27649823092309  1.94435456745675
 1 -14.37720049704970 -0.25595575257526  1.60122732873287
 1 -14.36514788178818 -0.26082300530053 -0.01745336533653
 1  12.90282548454845 -2.74251899499950 -0.63950201520152
 1 -12.72863832483248  1.71802632063206  1.72499197219722
 1  13.98031896389639 -0.04825754585459 -1.28056394039404
 1  13.18927042004200 -1.19862208930893 -2.28745942194219
 1 -13.78808435243524  1.68053937493749 -1.12926085908591
 1 -12.57112571957196  2.86407847184718 -0.44742162516252
 1  11.66830545054506 -0.80864159025903  3.30150481148115
 1  10.06018188318832 -0.08367787788779  2.82149103010301
 1  11.63270254025402  0.63498323122312  2.47175631063106
 1  11.05688469146915 -3.21880246034603  0.52350773677368
 1  10.44145506250625 -2.97948286538654  2.28495841984198
 1  9.27280328132813 -2.24166515961596  0.94902984598460
 1 -11.58910581058106  0.18479405040504  2.69611350435043
 1 -10.74724923392339 -1.33849100410041  2.26961296529653
 1 -12.35595675467547 -1.10205111011101  2.98568116411641
 1 -13.23005278627863 -2.69456070807081  1.34589909890989
 1 -11.47495054305431 -2.92830485848585  0.69600465646565
 1 -12.81409176717672 -2.48302861086109 -0.47946642064206
 1  8.88221004500450 -0.19135745584558  0.60372455645565
 1 -10.02233196519652 -2.05665938993899 -0.96447608060806
 1  10.30015243424342  0.61165126302630 -2.21795649864987
 1  12.03557199219922  1.68905319621962 -2.44547426142614
 1  11.51265550055006 -0.10073056015602 -3.30120725072507
 1 -11.44496550355036  1.95258848784878 -2.64737623062306
 1 -10.27932347134714  0.84432506950695 -2.40184479047905
 1 -10.14876663166317  2.21981059405941 -1.20381397739774
 1  14.84864141714171 -3.24706361146115  0.19937183018302
 1 -15.33807324232423  1.33842875687569  1.47470567556756
 1  10.07420290229023  2.39835313921392 -0.09833914891489
 1 -8.68448514551455  0.27346944494449  0.27771295829583
 1  8.77551041304130  4.42489234213421 -0.26273257625763
 1  6.98906229522952  4.28412382128213  0.47629346234623
 1  8.57503221322132  3.98844173107311  1.51608462646265
 1 -8.38775580558056 -3.33433036213621 -0.57949378837884
 1 -8.24581033703370 -2.88270728482848 -2.07535386538654
 1 -6.74775362436244 -3.15985963806381 -1.38735552755276
 1  7.24023568656866  0.57743148604860 -0.43988738073807
 1 -6.47424768676868  0.46574641454145 -0.31832420942094
 1  5.32842222622262  3.14660980888089  0.22219447444744
 1 -4.92273609360936 -2.20076138323832 -0.68796619661966
 1  4.76355945494550  0.21796004190419 -0.47013542454245
 1 -4.02862836683668  0.62927804470447 -0.05748295229523
 1  3.37767555255525  3.18332237413741  1.31106730773077
 1  1.71383803680368  3.22306097699770  0.56362877087709
 1  3.16901092309231  3.68060589448945 -0.37827832383238
 1 -3.03088522552255 -2.82106925402540  0.00777773377338
 1 -2.63276278427843 -2.54992611271127 -1.59334330133013
 1 -1.17716451545154 -2.46184635973597 -0.53392642864287
 1  2.48668582658266 -0.28944759585959 -0.36374427842784
 1 -1.91594099509951  1.06612653055305 -0.01351796479648
 1  0.21813756075608  1.86505921182118  0.20280607560756
 1  0.10782355235523 -1.16441639173917 -0.51448903290329

