%nproc=4
%Mem=2GB
# td=(NStates=1) CAM-B3LYP/6-31G(d,p) 

TD

0 1
 8  14.79471769076908 -2.10803827492749 -0.29860871387139
 8 -14.66047264426443  2.12486434243424  0.93065215921592
 6  11.36539983398340 -1.01736237033703  1.26646000700070
 6 -12.25637326932693 -0.81195375537554  0.90321584358436
 6  13.00485921792179 -1.29444248234824  1.09518709070907
 6 -13.50291290029003 -0.12734889488949  0.91954085008501
 6  13.32454444844484 -1.82276780388039 -0.25527041604160
 6 -13.34168650865086  1.38734153215322  0.92572435643564
 6  10.93129165516552 -0.24600881698170  0.05286104010401
 6 -11.35343244424442 -0.27386841584158 -0.25720647464746
 6  13.01696591559156 -0.86369712681268 -1.30064093709371
 6 -12.69095985598560  1.84485246224622 -0.44336137813781
 6  11.59546429342934 -0.26806717981798 -1.10822933893389
 6 -11.50695428542854  0.91010733373337 -0.84321386038604
 6  11.29450017701770 -0.24548370647065  2.62263270427043
 6  10.58259770077008 -2.36571705280528  1.40010813081308
 6 -11.47559975397540 -0.71309313731373  2.20840942094209
 6 -12.58213891589159 -2.22942838583858  0.52684458845885
 6  9.57918274427443  0.38950998789879  0.18445512551255
 6 -10.05982734973497 -1.13414749974997 -0.49834851585159
 6  11.17638040304030  0.46404086898690 -2.38096230323032
 6 -10.68682112111211  1.53954433843384 -1.93553286028603
 6  9.24392435943594  1.70018345624562  0.03735836183618
 6 -8.75628611361136 -0.64699825682568 -0.34954600060006
 6  7.95105109110911  2.33161290119012  0.22192786178618
 6 -7.61532667466747 -1.34913924702470 -0.54212954495450
 6  7.87531801280128  3.73573177807781  0.70997236323632
 6 -7.81711281728173 -2.80926067416742 -1.12381255625563
 6  6.89953536053605  1.56666666056606 -0.19478948494850
 6 -6.39856165916592 -0.69503497859786 -0.39487249324932
 6  5.50623117511751  1.98271597849785  0.00116503250325
 6 -5.12381350335033 -1.30678055415542 -0.45367754175418
 6  4.40777470847085  1.27192260616062 -0.18802443144314
 6 -4.02530795079508 -0.58915512161216 -0.30889821982198
 6  3.01515412041204  1.59905050295030 -0.11261959695970
 6 -2.66748051205120 -0.95404973507351 -0.40995865586559
 6  2.83774405540554  3.02403185208521  0.45736844584458
 6 -2.46702219621962 -2.34924222632263 -1.10336137613761
 6  2.14577415241524  0.57685484938494 -0.35855498049805
 6 -1.69470079307931 -0.11332162626263 -0.18922074907491
 6  0.69233640264026  0.78884365226523 -0.06940106010601
 6 -0.23639250825083 -0.20047215231523 -0.27825546554655
 1  13.39562883488349 -0.20457389248925  1.04583942194219
 1  13.28898413441344 -1.96241682278228  2.00563069506951
 1 -13.90867364436444 -0.49662981998200  1.93066027202720
 1 -14.22297366436644 -0.51515843884388  0.23921230123012
 1  12.53987918991899 -2.74085882898290 -0.45958402340234
 1 -12.79189465046505  1.61267578557856  1.73883335633563
 1  13.65948688068807 -0.01196391649165 -1.09647553155316
 1  13.13346483948395 -1.17245947304730 -2.30581125712571
 1 -13.64151969596960  1.63524484548455 -1.11487942094209
 1 -12.45863447044704  2.93067513151315 -0.59624650765077
 1  11.68030665066507 -0.69582030813081  3.39189385038504
 1  10.11431729672967 -0.13360287038704  2.87647652865287
 1  11.80409967996800  0.75848558145815  2.53283241824182
 1  10.76915591859186 -3.26979755985599  0.73319870587059
 1  10.79701061806181 -2.71807672477248  2.41858178217822
 1  9.44467046804681 -2.25597659075908  1.16179112211221
 1 -11.17777467746775  0.26627219821982  2.40777467046705
 1 -10.48446295529553 -1.43405056005601  2.10930693469347
 1 -12.10706186518652 -1.04397530253025  3.05436803280328
 1 -13.47421720272027 -2.53230448244824  1.15129963896390
 1 -11.77457050505051 -2.94179620762076  0.74936999299930
 1 -13.02660301830183 -2.37353766176618 -0.43348182218222
 1  8.82047387138714 -0.32028034813481  0.52402658665867
 1 -10.23660339233924 -2.19780350435043 -0.59604923792379
 1  10.09173159215922  0.85357545544554 -2.41054575757576
 1  11.78488692369237  1.28635292619262 -2.65007472147215
 1  11.30439467446745 -0.13490397749775 -3.41708883888389
 1 -11.38590959795980  1.65210843984399 -2.74198569156916
 1 -9.89204474347435  0.85892652965297 -2.34068867486749
 1 -10.31874362936294  2.56662527552755 -1.61366496249625
 1  15.00884743774377 -2.93719262436244  0.04926681968197
 1 -15.20482991799180  1.90972588658866  1.78192639763976
 1  10.12841832383238  2.38618192209221 -0.22572188718872
 1 -8.75357205420542  0.56039813781378 -0.17142195519552
 1  8.23269613161316  4.20798065096510 -0.17007331033103
 1  6.91676506550655  4.24210961986199  1.17663349634964
 1  8.67278198819882  3.62176506340634  1.62210522852285
 1 -8.37727475747575 -3.43071000010001 -0.51378721772177
 1 -8.08984474047405 -2.69200821492149 -2.30087641764176
 1 -6.84170301930193 -3.27841149324932 -1.11038783078308
 1  7.11670333333333  0.58035177807781 -0.68330172217222
 1 -6.44671493349335  0.28916875677568  0.08794641764176
 1  5.45940532453245  3.08060320822082  0.28818107310731
 1 -5.10068388838884 -2.38150945804580 -0.85553295329533
 1  4.63764686368637  0.29531777767777 -0.63031144214421
 1 -3.94297980198020  0.43422853975398  0.11603439943994
 1  3.39331711671167  3.48531257315732  1.27505370637064
 1  1.74917157015702  3.31254992589259  0.68284069206921
 1  3.14907892989299  3.72928076197620 -0.50338083408341
 1 -2.82621475847585 -3.02532968006801 -0.34999804380438
 1 -3.11226073407341 -2.25776689678968 -2.09534350135013
 1 -1.43430022902290 -2.64313448854885 -1.30878391439144
 1  2.41075823382338 -0.39873852495250 -0.77983588758876
 1 -1.84207360836084  0.83669358725873  0.30432381938194
 1  0.36932267926793  1.77648035393539  0.13698949394940
 1  0.26168893889389 -1.14364431453145 -0.65799338333833

