%nproc=4
%Mem=2GB
# td=(NStates=1) CAM-B3LYP/6-31G(d,p) 

TD

0 1
 8  14.68666688568857 -2.16979445054505 -0.59696854985499
 8 -14.87798439543954  1.99386124212421  0.67874696869687
 6  11.48687198119812 -1.10090072417242  1.25965932693269
 6 -12.33028066006601 -0.83908646864686  0.90538606060606
 6  13.04405313731373 -1.38132117021702  1.04018159015902
 6 -13.64156676567657 -0.11793795379538  0.90668956495650
 6  13.43501549554956 -1.92566809390939 -0.34483937293729
 6 -13.56884922492249  1.44848764676468  0.64921670567057
 6  10.97554608060806 -0.34233844994499  0.00286604060406
 6 -11.34946204720472 -0.25054608360836 -0.16826758075808
 6  12.98321254025402 -0.84686544364436 -1.37698857185719
 6 -12.79925068506851  1.68384636163616 -0.66007304930493
 6  11.64552929992999 -0.17210758385839 -1.13564208020802
 6 -11.63823741374137  0.81055737873787 -0.89801934093409
 6  11.32894362136214 -0.26653581168117  2.47249769076908
 6  10.74313375437544 -2.46072655375538  1.38841696169617
 6 -11.67301949594959 -0.79105093309331  2.30190877087709
 6 -12.56240694269427 -2.35863130613061  0.69369127312731
 6  9.69902472847285  0.31961299819982  0.18804548454845
 6 -10.09667103410341 -1.12329641464146 -0.37066574757476
 6  11.27868063306331  0.64052851775178 -2.34568877587759
 6 -10.78129056805681  1.30648103210321 -2.06024533153315
 6  9.33980394739474  1.63686712461246 -0.01385675967597
 6 -8.84728521352135 -0.57663122012201 -0.25948699469947
 6  8.00362634863486  2.18905864576458  0.23423909290929
 6 -7.60021516351635 -1.27340167326733 -0.46070140214021
 6  7.98706918791879  3.62866107100710  0.68719008500850
 6 -7.65119622562256 -2.78630837893789 -0.84471464646465
 6  6.85018042504250  1.46638663256326  0.11498149214921
 6 -6.51951375437544 -0.61436691179118 -0.25278828482848
 6  5.54339489148915  1.90724843174317  0.37054197019702
 6 -5.13969509150915 -1.09192906900690 -0.50065223922392
 6  4.46953088408841  1.18008342224222  0.00792516351635
 6 -4.02362778277828 -0.30404661076108 -0.35533286328633
 6  3.07252985798580  1.57280787868787  0.03109477447745
 6 -2.60924468846885 -0.77485181528153 -0.52036969696970
 6  2.82397267826783  3.03562301120112  0.50620332933293
 6 -2.32658815281528 -2.21466876897690 -0.86809784978498
 6  2.05672524752475  0.79935709960996 -0.17681680668067
 6 -1.58733005600560  0.21522122802280 -0.41213304030403
 6  0.65713288228823  0.87028179607961 -0.20691481148115
 6 -0.22748161716172 -0.15277738283828 -0.45714335433543
 1  13.47669694169417 -0.18411184628463  1.20318515651565
 1  13.32624786078608 -2.03305388648865  1.94309444144414
 1 -14.35867864486449 -0.29526968396840  1.73403060906091
 1 -14.20637200420042 -0.49256617961796 -0.05426704670467
 1  12.98318352035204 -2.88465320842084 -0.59487755275528
 1 -12.97142260326033  1.68313283128313  1.46034550755075
 1  13.85332626462646 -0.03208592869287 -1.25735161916192
 1  13.29235072807281 -1.13134536163616 -2.43035371137114
 1 -13.28533407740774  1.53968528952895 -1.53836176917692
 1 -12.54198280528053  2.75298736273627 -1.05344222722272
 1  11.71182980298030 -0.80221094719472  3.33584824582458
 1  10.36597246224622 -0.10030954105410  2.71612049304931
 1  11.88345761576157  0.57141687458746  2.40524965996600
 1  10.98754775777578 -3.00927150725073  0.47199258525853
 1  11.33176409340934 -3.00302521962196  2.27927785178518
 1  9.69871587258726 -2.32144313741374  1.58509345234523
 1 -11.51316821682168  0.30250582158216  2.53027692069207
 1 -10.63011752075208 -1.39396655165516  2.50935693969397
 1 -12.13355451445145 -1.30489139413941  3.02114471047105
 1 -13.29991977297730 -2.76829808180818  1.43657816681668
 1 -11.74993804180418 -2.94930695869587  1.04610966696670
 1 -12.85227558555856 -2.54636494449445 -0.31140961496150
 1  8.83785560956096 -0.22741106120612  0.56445062906291
 1 -10.20579031103111 -2.09372309630963 -0.83149278227823
 1  10.38770118911891  1.09238933683368 -2.33553825682568
 1  11.92579101410141  1.62933722462246 -2.40912062606261
 1  11.32120635563556  0.13680319321932 -3.29666679667967
 1 -11.32764377137714  1.41780500950095 -3.04701619461946
 1 -9.86547208620862  0.64143478047805 -1.97898250425043
 1 -10.53283503850385  2.45294390739074 -1.94941853785379
 1  15.12375892889289 -2.68932783788379  0.14807670067007
 1 -15.07078651365137  1.72502741674167  1.49700790579058
 1  10.15337081908191  2.31786509040904 -0.41709102410241
 1 -8.96047274427443  0.44528662666267 -0.04650946394639
 1  8.73092595459546  4.30289014191419  0.09275297229723
 1  7.04864825382538  4.14170957985799  0.66945277827783
 1  8.62178688868887  3.55214810171017  1.62007502550255
 1 -8.22403943394339 -3.29248617771777  0.06538069906991
 1 -8.15376113211321 -2.73690270437044 -1.86454278427843
 1 -6.55491434043404 -3.05573922602260 -0.85451224322432
 1  6.86956861986199  0.42882662556256 -0.24077746974697
 1 -6.63416367836784  0.44023386328633  0.00322794579458
 1  5.36696608060806  3.03777892579258  0.75469772477248
 1 -4.98716253625363 -2.08684999209921 -0.64421182118212
 1  4.53521662066207  0.23367161306131 -0.59147755875587
 1 -4.08190369436944  0.71264638153815 -0.14777198119812
 1  3.03961174617462  3.27622166406641  1.55890209120912
 1  1.85584223722372  3.24517318821882  0.44921732973297
 1  3.13415743774377  3.72822065596560 -0.22071256725673
 1 -2.65178731573157 -2.91869901700170  0.03615057105711
 1 -3.02451195919592 -2.45898701880188 -1.83492745974598
 1 -1.31229802880288 -2.31139131423142 -1.26896993299330
 1  2.57074423242324 -0.13694234533453 -0.34844274827483
 1 -2.00147954895490  1.27237715561556 -0.30516712971297
 1  0.42633838083808  2.00483318921892 -0.14644884988499
 1  0.01262403240324 -1.04302425252525 -0.52306989098910

