%nproc=4
%Mem=2GB
# td=(NStates=1) CAM-B3LYP/6-31G(d,p) 

TD

0 1
 8  14.76549476847685 -2.07858532963296 -0.29605845884588
 8 -14.72312890989099  1.92847470347035  0.83273236723672
 6  11.28125141914191 -1.16873750785079  1.20823418441844
 6 -12.23597122912291 -0.93366592659266  0.85963148514851
 6  12.85606433843384 -1.31547458555856  1.13599117111711
 6 -13.64129673867387 -0.23698985898590  0.80449934593459
 6  13.35769776377638 -1.91718724582458 -0.19402429142914
 6 -13.47705004500450  1.25711850985099  0.82209399339934
 6  10.91188971497150 -0.31545576167617  0.16058181218122
 6 -11.35334243524352 -0.20495152415242 -0.16625737973797
 6  12.95836005500550 -0.92668342544254 -1.21924279727973
 6 -12.77615837583758  1.82820079707971 -0.34456149814981
 6  11.56728147514752 -0.20789116221622 -1.05965448144814
 6 -11.58722231223122  1.03022934593459 -0.74451399039904
 6  11.15175590259026 -0.36396555465547  2.56942738373837
 6  10.59459890089009 -2.45855633673367  1.27390551055106
 6 -11.72594478847885 -0.95431725972597  2.18616719671967
 6 -12.57388809080908 -2.38919436243624  0.30971287528753
 6  9.63784861086109  0.35042607950795  0.23240992099210
 6 -10.11830319731973 -0.93792787778778 -0.37811649264926
 6  11.08167093209321  0.47292175707571 -2.35987019401940
 6 -10.72892533153315  1.61629201320132 -1.82440174717472
 6  9.40169013601360  1.62860629852985 -0.08200357435744
 6 -8.82283276827683 -0.56083964096410 -0.28624967096710
 6  8.04985097109711  2.36267600750075  0.01482715171517
 6 -7.61657679967997 -1.32972730583058 -0.51164649664967
 6  8.18689917091709  3.83354155905591  0.24658602460246
 6 -7.73231433743374 -2.72230197829783 -0.78110828582858
 6  6.90548595559556  1.64229422332233 -0.09236924292429
 6 -6.43159496249625 -0.66398187328733 -0.38103110911091
 6  5.54362491449145  2.15119282618262  0.08844376037604
 6 -5.06664778677868 -1.23025290139014 -0.52629480348035
 6  4.43596752775277  1.26254166806681  0.00127449844984
 6 -3.98880430043004 -0.40478668476848 -0.38811614161416
 6  3.14755736073607  1.65551614951495  0.07570923592359
 6 -2.65152891689169 -0.82143647374737 -0.59848750875087
 6  2.76840712171217  3.05875532443244  0.38055076407641
 6 -2.32358785278528 -2.29480678277828 -0.95813685368537
 6  2.19955953095310  0.69019618351835 -0.18140726572657
 6 -1.56408773177318  0.09745945184518 -0.30316214321432
 6  0.74860202920292  0.79017378527853 -0.07978209820982
 6 -0.11035990499050 -0.18529063416342 -0.42277991799180
 1  13.34414368636864 -0.19619305440544  1.17198203620362
 1  13.42058729472947 -2.04236481758176  1.88995912791279
 1 -14.07509028602860 -0.69082923992399  1.79662686868687
 1 -14.20371173817382 -0.57214413741374 -0.20144176417642
 1  12.64906010801080 -2.71922666576658 -0.27553561856186
 1 -12.84696015701570  1.41908642664266  1.68079755275528
 1  13.78072900490049 -0.18872159225923 -1.30742662666267
 1  12.90004149714972 -1.41899412651265 -2.20827150315032
 1 -13.68162370637064  1.65300662166217 -1.06663459645965
 1 -12.36216482348235  2.91209327332733 -0.17266414941494
 1  11.24364298429843 -1.08095882198220  3.38649331033103
 1  10.20851671667167 -0.12691220132013  2.70793967496750
 1  11.94178344834483  0.61853158605861  2.66705584058406
 1  10.80576957995799 -3.01726230633063  0.37603298929893
 1  11.06455737273727 -3.06573149024903  2.09191911591159
 1  9.68736473747375 -2.20990198329833  1.35295023802380
 1 -11.40732763276328 -0.00179460846085  2.57860175317532
 1 -10.81014552355236 -1.38622577757776  2.26371237523752
 1 -12.49678083708371 -1.36480738573857  2.95883847984798
 1 -13.37213699469947 -2.60261151315132  0.96341085008501
 1 -11.89258230623062 -3.25646767476748  0.69259431543154
 1 -12.87918827682768 -2.49208951695169 -0.66070454445445
 1  8.71533335733573 -0.18710703080308  0.65065924992499
 1 -10.41944167616762 -1.99336306030603 -0.56057569056906
 1  9.99247166616662  0.40422051995200 -2.28902360536054
 1  11.65533396839684  1.44200849174917 -2.32126184018402
 1  11.50133436843684 -0.17260774787479 -3.16372350235024
 1 -11.21833284028403  2.29927315631563 -2.68266975997600
 1 -9.92935847484748  0.95687632463246 -2.29430403640364
 1 -9.94246600160016  2.36574518751875 -1.25778937493749
 1  14.79360591359136 -2.65349425452545  0.45541743474347
 1 -15.05477491249125  1.68394330833083  1.70429863486349
 1  10.27738322032203  2.31316462036204 -0.38965828082808
 1 -8.72126882388239  0.46469856785679  0.15274046104610
 1  8.95604846684668  4.12728258115812 -0.57960426342634
 1  7.26162955195520  4.28580398929893  0.34491032403240
 1  8.55231994199420  3.88971185808581  1.36376939493949
 1 -8.26119314931493 -3.30405733483348 -0.16003184218422
 1 -8.26117187318732 -2.92548156225623 -1.72115844584458
 1 -6.82034088308831 -3.16325997809781 -1.02433922592259
 1  6.87539920292029  0.54479822272227 -0.39417280928093
 1 -6.49499976197620  0.39839967986799  0.06008363136314
 1  5.39406879087909  3.14490963886389  0.28680093509351
 1 -4.81776559655966 -2.20433174027403 -0.78939633963396
 1  4.61502460146015  0.21878012391239 -0.24408281928193
 1 -4.33126863086309  0.65732084898490 -0.04484168816882
 1  3.53066085108511  3.34700874277428  1.17213341434143
 1  1.62747940094009  3.01942061296130  0.83271567956796
 1  2.91043506550655  3.82982081598160 -0.24826532253225
 1 -2.88596073307331 -3.24758190529053 -0.29444248824882
 1 -2.58206771477148 -2.48302942304230 -2.01636560356036
 1 -1.29709650865087 -2.62138231333133 -0.94972800880088
 1  2.52675983398340 -0.30603925502550 -0.44420232423242
 1 -1.81626102710271  0.99259917781778 -0.06365297829783
 1  0.30382612961296  1.66058876477648  0.20805660066007
 1  0.36792956295630 -1.22085203530353 -0.45991357535754

