%nproc=4
%Mem=2GB
# td=(NStates=1) CAM-B3LYP/6-31G(d,p) 

TD

0 1
 8  14.65323354235424 -2.12311978307831 -0.35490434343434
 8 -14.53742033903390  2.28757061306131  0.66666576057606
 6  11.43026632063206 -1.10572120622062  1.18459182018202
 6 -12.28374600660066 -0.83963652365237  0.83703922592259
 6  12.88972770477048 -1.41991502960296  0.99290686268627
 6 -13.61785439443944 -0.03006916691669  0.63680257625763
 6  13.30811280528053 -1.91313684078408 -0.38100298929893
 6 -13.34909724972497  1.49298209620962  0.75527731173117
 6  10.86009453545355 -0.25025924202420 -0.00109435543554
 6 -11.24252135313531 -0.29998102710271 -0.25665641964196
 6  12.90608482748275 -0.94642539963996 -1.39747062006201
 6 -12.47248800880088  1.78830680768077 -0.47754479647965
 6  11.53544829182918 -0.21727210031003 -1.17297581358136
 6 -11.35769935993599  0.93956027902790 -0.79628916791679
 6  11.28540926792679 -0.25642480058006  2.47510795179518
 6  10.43682312331233 -2.27280776187619  1.29552767276728
 6 -11.57590978497850 -0.70907273527353  2.23386196619662
 6 -12.71928263026303 -2.32392783578358  0.63574547854785
 6  9.48487331333133  0.46539757665767  0.15248192819282
 6 -10.06869823682368 -1.14101818681868 -0.48728740974097
 6  11.22679544454445  0.56808127302730 -2.42317652465247
 6 -10.51321376037604  1.48580896489649 -1.83008231523152
 6  9.28586855385539  1.69017245514551 -0.05784115811581
 6 -8.85092557755776 -0.72494605160516 -0.31864291029103
 6  7.90602658865886  2.34341408130813  0.08049371837184
 6 -7.58757389938994 -1.41418575167517 -0.53383871587159
 6  8.01529201020102  3.89312751765177  0.29469083508351
 6 -7.61550265626563 -2.87393714181418 -1.04310448544855
 6  6.80222562956296  1.63525351925193  0.16710670467047
 6 -6.36709851285129 -0.80580605570557 -0.32523552955296
 6  5.42004255625563  2.12014972187219  0.36541145714571
 6 -5.12913403540354 -1.41900177627763 -0.45877805180518
 6  4.41691562256226  1.23845925982598  0.19216358735874
 6 -3.98004342434243 -0.64072027812781 -0.37106443644364
 6  2.98387099209921  1.64783538143814  0.24735640064006
 6 -2.66282004600460 -0.94082841294129 -0.41065872587259
 6  2.77161744274427  3.08064751365136  0.67934064306431
 6 -2.32324781878188 -2.43443074517452 -0.92324336433643
 6  2.10861043604360  0.68591575547555 -0.07363648864886
 6 -1.63895521852185 -0.09746004010401 -0.21963379037904
 6  0.62899006800680  0.83851861976198 -0.11604572457246
 6 -0.21487035603560 -0.23254535963596 -0.35172281228123
 1  13.60882015401540 -0.53823725882588  1.09636447444745
 1  13.02819805580558 -2.08218879998000  1.78086821882188
 1 -14.27412018901890 -0.42388254525453  1.57573477947795
 1 -13.98381974897490 -0.27812473547355 -0.22560418041804
 1  12.65421062306231 -2.87088183128313 -0.72316038103810
 1 -12.62516797779778  1.48613313131313  1.47267674067407
 1  13.47665859785979  0.03458073797380 -1.20330621462146
 1  13.11484297729773 -1.22439466656666 -2.45978665466547
 1 -13.11595713971397  1.77433875487549 -1.10742867586759
 1 -12.10295890289029  2.80703276727673 -0.44991187418742
 1  11.65967458745875 -0.83952467856786  3.14396905790579
 1  10.21442730773077  0.00951144104410  2.73592247324733
 1  11.92504177417742  0.59000873377338  2.23723285828583
 1  10.57666666966696 -3.00066064616462  0.41205659165917
 1  10.72720363736374 -2.98050296739674  2.05692561656166
 1  9.48472447344735 -2.06810780388039  1.36092103510351
 1 -11.56955385538554  0.29366493749375  2.40962485548555
 1 -10.67150165916592 -1.42895005000500  2.15747175117512
 1 -12.24606576557656 -1.09019992499250  2.87594019001900
 1 -13.59544932593259 -2.47065831783178  1.38509301830183
 1 -12.05929897789779 -3.04788681668167  0.76252130813081
 1 -13.30645100310031 -2.49399970797080 -0.40979945394539
 1  8.84221604560456 -0.21480980108011  0.40242442644264
 1 -10.20523025502550 -2.21570529452945 -0.95834546754675
 1  10.28840125912591  1.16595669356936 -2.13474817781778
 1  12.38473690869087  1.22899719061906 -2.61805151915192
 1  11.02186642164216 -0.18434892199220 -3.37366449644965
 1 -11.01938294529453  1.92354558355836 -2.52423391639164
 1 -9.72297783678368  0.79769040604060 -2.20943554955496
 1 -10.05786754175418  2.25860447344734 -1.34454805080508
 1  14.77600415341534 -3.04656356145615  0.22042393539354
 1 -15.27969740474047  2.15937085108511  1.40948915391539
 1  10.21045652765276  2.45522882678268 -0.36341565656566
 1 -8.82923962096210  0.19273137113711  0.38159334633463
 1  9.04606746874687  4.08765861876188 -0.47145344834483
 1  6.94261765076508  4.60281569046905  0.07397323032303
 1  8.20693540354035  4.19730261716172  1.37420043804380
 1 -8.09516654665467 -3.61905883498350 -0.34392023102310
 1 -8.31791754775478 -3.06729574367437 -1.82993932393239
 1 -6.45194404340434 -3.06759041114111 -1.15397218921892
 1  6.89833149614961  0.61158490139014 -0.18733212521252
 1 -6.38758902090209  0.24254409430943  0.12415003800380
 1  5.39720910491049  3.03615876377638  0.83998625362536
 1 -5.03799761976198 -2.55557686478648 -0.76564396439644
 1  4.77802090109011  0.24765301120112 -0.11834024502450
 1 -4.33390889488949  0.42894801170117 -0.01269847384739
 1  3.19274705970597  3.15205924782478  1.56071227222722
 1  1.69616626962696  3.42858152905290  0.65534794279428
 1  3.32869689168917  4.04188202210221  0.22423192719272
 1 -2.71430356735674 -2.98593574067407 -0.06946999099910
 1 -3.10453996199620 -2.71229234933493 -1.69370333733373
 1 -1.32529932893289 -2.65233540864086 -1.15521855785579
 1  2.50607776577658 -0.44613326442644 -0.17944584858486
 1 -1.87706710771077  0.92316223412341 -0.06123273627363
 1  0.50479622662266  1.93341604750475  0.30016581158116
 1  0.24911768176818 -1.22822277237724 -0.54155173917392

