%nproc=4
%Mem=2GB
# td=(NStates=1) CAM-B3LYP/6-31G(d,p) 

TD

0 1
 8  14.79578779777978 -2.27786525762576 -0.38557741074107
 8 -14.77613421042104  2.08264012001200  0.82833192719272
 6  11.52155544954496 -1.05541617571757  1.23848720972097
 6 -12.33596122812281 -0.88699125912591  0.93595911791179
 6  13.05191392339234 -1.32950598869887  1.15254282628263
 6 -13.68778138713871 -0.17263342334233  0.80988988498850
 6  13.44008600260026 -1.82515804290429 -0.23472836183618
 6 -13.49376171617162  1.32675547354735  0.74792657665767
 6  11.02042056805681 -0.24675889198920  0.00705645964596
 6 -11.31608870987099 -0.30636166516652 -0.08883963796380
 6  13.10243446244624 -0.76166692379238 -1.32204307730773
 6 -12.90535129512951  1.74599257625763 -0.53698074007401
 6  11.67884263126313 -0.20167054015402 -1.18691720772077
 6 -11.59255284528453  0.84077040004000 -0.74384392339234
 6  11.17706843384338 -0.28522768086809  2.56033647464746
 6  10.84176361736174 -2.43374385548555  1.35432355235524
 6 -11.81733392739274 -0.91027285528553  2.35389396939694
 6 -12.62753345534554 -2.36287173017302  0.46134803880388
 6  9.66304113011301  0.32851388828883  0.11055773577358
 6 -10.07436880388039 -1.10307439243924 -0.45143382438244
 6  11.23036580158016  0.37971243614361 -2.46452065906591
 6 -10.91590402940294  1.50967135113511 -1.92663197019702
 6  9.36967693469347  1.62331576947695 -0.04191956595660
 6 -8.84052453745375 -0.54037759475948 -0.39958100410041
 6  8.00049603560356  2.30743048294829  0.17010267926793
 6 -7.63463860586059 -1.18401273437344 -0.56294162616262
 6  8.16659714071407  3.69919812471247  0.59770113611361
 6 -7.73244435043504 -2.79115886398640 -0.88314848984898
 6  6.95933134013401  1.54602459635964 -0.07460746674667
 6 -6.41265306830683 -0.58627410251025 -0.37575058105811
 6  5.59743029502950  2.04431213811381  0.09573448944894
 6 -5.10405152715272 -1.14355423152315 -0.68368054205421
 6  4.45972990399040  1.24480989488949  0.00259463046305
 6 -4.07776319631963 -0.30242644874487 -0.39227655765577
 6  3.06250885588559  1.63362396029603  0.12292395739574
 6 -2.65222898689869 -0.80730506060606 -0.45483314331433
 6  2.71128140914091  3.08882833173317  0.43537624662466
 6 -2.47746324032403 -2.18776607870787 -0.87737877787779
 6  2.11087066206621  0.64141130503050 -0.11747087208721
 6 -1.63351467446745  0.09286899279928 -0.21816364336434
 6  0.69807697669767  0.75427019491949 -0.08100222022202
 6 -0.18430729972997 -0.18543064816482 -0.36157379737974
 1  13.61346061806181 -0.51795523062306  1.24175901390139
 1  13.29031426742674 -2.14103468456846  1.76409654165417
 1 -14.54817759475948 -0.80083024002400  1.41959916591659
 1 -13.94038540554055 -0.51133805680568 -0.06499811981198
 1  12.71268647064706 -2.76035077817782 -0.33043110811081
 1 -12.66125158615862  1.78161267926793  1.45067454045405
 1  13.82637356935694 -0.08183090319032 -1.17682356635664
 1  13.43929542254225 -1.03298552565257 -2.44796547254725
 1 -13.62324786878688  1.51163248424842 -1.30206813981398
 1 -12.72702130913091  2.74313637763776 -0.52716959996000
 1  11.45984460446045 -0.82350307640764  3.61855651665167
 1  10.13524938993899 -0.05647515761576  2.65686456745675
 1  11.69194846484648  0.74031376427643  2.81966110111011
 1  11.10446944994499 -2.98185876597660  0.39394478047805
 1  11.30767168416842 -3.02687760486049  2.02857278127813
 1  9.92404840584058 -2.24900589368937  1.51477642064206
 1 -11.71686858685869  0.09133470447045  2.61489538253825
 1 -10.74015852485249 -1.47176433143314  2.36699270327033
 1 -12.33844500350035 -1.33078398339834  3.04593718971897
 1 -13.56957673867387 -2.84533578557856  1.03055756475648
 1 -11.73812686068607 -3.08386041404140  0.83960901690169
 1 -12.94021437943795 -2.60494080208021 -0.52918139213921
 1  8.70441226522652 -0.17032535263526  0.32986717071707
 1 -10.35886561856186 -2.28949267326733 -0.58701833483348
 1  10.07462988198820  0.60145024292429 -2.49952465546555
 1  11.68471690669067  1.40495478637864 -2.60200991499150
 1  11.44842907790779 -0.41142162926293 -3.30078720872087
 1 -11.68450945794580  1.46753998299830 -2.87192868586859
 1 -9.81464700370037  0.84293493049305 -2.11962656865687
 1 -10.36834858985899  2.42785139813981 -1.64084768076808
 1  14.90598715171517 -2.83400230533053  0.54088598159816
 1 -15.18830826582658  1.79291420542054  1.69505771077108
 1  10.04608009000900  2.26741004490449 -0.15454476947695
 1 -9.05101179817982  0.63372547054705 -0.11507632063206
 1  8.71925478747875  4.30518037093709 -0.14728103110311
 1  7.20941433043304  4.29504491339134  0.23172900590059
 1  8.52082679267927  3.84391727862786  1.67690070807081
 1 -8.05322235223522 -3.34687161626163  0.08807296829683
 1 -8.43025878187819 -2.64670368446845 -1.70565689568957
 1 -6.86175502450245 -3.08040169226923 -1.16943373537354
 1  7.08321998499850  0.52895663856386 -0.32061545354535
 1 -6.40146040804080  0.58870871077108 -0.33645602260226
 1  5.29876926092609  3.01958710661066  0.37169942494249
 1 -4.85344916491649 -2.16199750685068 -1.02783018301830
 1  4.59534263326333  0.15131337723772 -0.03453186418642
 1 -4.40965646964696  0.50596571347135  0.00379317531753
 1  2.91484926992699  3.48929297119712  1.39152535353535
 1  1.63044969796980  3.37676634753475  0.30553296129613
 1  3.53815783778378  3.88939677357736 -0.16563705970597
 1 -2.97710984798480 -2.92407955505551 -0.30880392439244
 1 -2.76270577857786 -2.41885300540054 -1.90175414241424
 1 -1.36243304230423 -2.37971814691469 -0.89937297329733
 1  2.63636079407941 -0.28259691079108 -0.30414831883188
 1 -2.11881128212821  1.01758167606761 -0.13821043404341
 1  0.36541228822882  1.69525223112311  0.32055785078508
 1  0.20301307130713 -1.23983393349335 -0.54981256525653

