%nproc=4
%Mem=2GB
# td=(NStates=1) CAM-B3LYP/6-31G(d,p) 

TD

0 1
 8  14.75966418541854 -2.20162763386339 -0.37477633063306
 8 -14.70323692069207  1.85981783778378  0.85582467646765
 6  11.38557185118512 -1.08092872697270  1.18830219121912
 6 -12.17261489348935 -0.93569612961296  0.80515603760376
 6  12.89677840984098 -1.46691973007301  1.04798237023702
 6 -13.52688529752975 -0.13456961696170  0.95142403840384
 6  13.29287128112811 -1.90236576367637 -0.22765765476548
 6 -13.48205054505451  1.30810360836084  0.78183996799680
 6  10.93393191919192 -0.28419263536354 -0.05982022802280
 6 -11.28767586858686 -0.23268429742974 -0.31463221722172
 6  12.92488670767077 -0.93600435753575 -1.37565843884388
 6 -12.90468122812281  1.62256023302330 -0.53637067906791
 6  11.64581932893289 -0.20546091919192 -1.18725724172417
 6 -11.64977856785679  0.89277560056006 -0.99235877487749
 6  11.17202792979298 -0.32524168226823  2.45286572757276
 6  10.60388982998300 -2.36794727582758  1.31340946094609
 6 -11.48582077607761 -0.91687351535154  2.20254883488349
 6 -12.58933963596360 -2.26328177117712  0.46103800780078
 6  9.56676150215022  0.35505654255426  0.14320100010001
 6 -10.11336270327033 -0.93728781378138 -0.59224790579058
 6  11.12732549754976  0.53598806370637 -2.44530873787379
 6 -10.90383282228223  1.58993937793779 -2.15758506550655
 6  9.38203817081708  1.67920135803580 -0.13661903590359
 6 -8.77125761076108 -0.51934549154915 -0.50068111411141
 6  8.03087907390739  2.29508924882488  0.09724539353935
 6 -7.51906704870487 -1.28225255835584 -0.59877520952095
 6  8.10585106610661  3.81887009190919  0.37634900090009
 6 -7.64549565556556 -2.81954170227023 -0.93399357435744
 6  6.88918432543254  1.53486348024802  0.04690468446845
 6 -6.36240804380438 -0.56181165626563 -0.37503050905091
 6  5.51140169216922  2.15625333223322  0.10495541154115
 6 -5.02310343234323 -1.04874475057506 -0.45380755475548
 6  4.42318624962496  1.24074948884888  0.06782115311531
 6 -3.91807722772277 -0.42388859495950 -0.07505483548355
 6  3.03979658465847  1.56600719861986  0.14895656065607
 6 -2.56292005600560 -0.81121545164516 -0.28153581358136
 6  2.73567384838484  3.08124757365737  0.43466617561756
 6 -2.27613310731073 -2.17901520362036 -0.73463450345035
 6  2.12137171217122  0.55732289618962 -0.02372149714972
 6 -1.61009233223322  0.12530223612361 -0.02007383438344
 6  0.74179134813481  0.78571333923392  0.11862774277428
 6 -0.26015488448845 -0.18569067416742 -0.11905954595460
 1  13.37027629962996 -0.54164759985999  1.15218005600560
 1  13.08668390439044 -2.11135171627163  1.93383351535153
 1 -13.88972174917492 -0.60942109910991  1.92708991499150
 1 -14.34120548754876 -0.81327825082508  0.46927530753075
 1  12.51346654865486 -2.87358210131013 -0.26226429142914
 1 -12.59410487148715  1.46056057405741  1.50548002100210
 1  13.64145507750775 -0.21730445054505 -1.25178106210621
 1  13.00250174317432 -1.60306253335334 -2.18592926892689
 1 -13.76088163216322  1.60497181818182 -1.25571350435043
 1 -12.45267387438744  2.72230429442944 -0.54335121812181
 1  11.72272089208921 -0.90308103420342  3.28686334733473
 1  10.06132199719972 -0.24636414651465  2.83432231323132
 1  11.69856912691269  0.71814154705471  2.61322045704570
 1  10.75212421542154 -3.01538211831183  0.48540392639264
 1  10.94460537753775 -3.06411132823282  2.19732965696570
 1  9.49122512351235 -2.32168316141614  1.31314625762576
 1 -11.41583848384838  0.20089566056606  2.57402129512951
 1 -10.43424793379338 -1.43775093009301  2.24755075907591
 1 -11.99024018301830 -1.41343224822482  2.97002959895990
 1 -13.22684246524652 -2.73587483948395  1.10717522652265
 1 -11.82158520652065 -3.05302733073307  0.24446950295030
 1 -13.06015637363736 -2.06097640564056 -0.64183265726573
 1  8.74732655665566 -0.25984430453045  0.64420860486049
 1 -10.19981971397140 -2.02025574957496 -0.73896352935294
 1  10.13272569156916  0.80616071397140 -2.24120882388239
 1  11.40325876087609  1.48593288418842 -2.44747446144614
 1  11.15068930393039 -0.15465595269527 -3.30269739973997
 1 -11.60602160916092  2.04917814681468 -2.88488998199820
 1 -10.16240177917792  0.86095673267327 -2.61485609160916
 1 -10.36698845384539  2.41666027902790 -1.91072466846685
 1  14.81590814381438 -2.87385629072907  0.15990788378838
 1 -15.02477191219122  1.84861977597760  1.86496470147015
 1  10.22633811581158  2.25315861976198 -0.70083939893989
 1 -8.68452514951495  0.49808190619062 -0.31041585458546
 1  8.85176803880388  4.07563741664166 -0.34380068306831
 1  7.33314670367037  4.49087449634963 -0.01578574557456
 1  8.41355606560656  3.80891377827783  1.42368538653865
 1 -8.32383941394139 -3.22350928002800 -0.10749658865887
 1 -8.23258901490149 -2.80195921002100 -1.95294162416242
 1 -6.60678952795279 -3.28017166926693 -1.12185897789779
 1  6.96550821382138  0.48001174407441 -0.35139853185318
 1 -6.54041430343034  0.41140097999800  0.36171379437944
 1  5.17383676767677  3.21000614851485  0.38587084208421
 1 -5.03096691669167 -2.20734204130413 -0.81451885188519
 1  4.75833893289329  0.23709195509551 -0.32686109710971
 1 -4.05337084108411  0.73186830373037  0.04867766376638
 1  3.21792957795780  3.69835387728773  1.26623282428243
 1  1.70051670467047  3.17785645654565  0.70378278627863
 1  2.88704272627263  3.85253308720872 -0.19569006500650
 1 -2.58788092509251 -3.16142328942894  0.03893084908491
 1 -2.97734724272427 -2.28382950305030 -1.63294726172617
 1 -1.29390618961896 -2.36574674977498 -0.90278331433143
 1  2.66994415241524 -0.41808045914591 -0.21027893189319
 1 -2.09134853585359  1.11977189508951  0.19739312631263
 1  0.51210695769577  1.73107581348135  0.52557835283528
 1  0.16045881588159 -1.11454140424042 -0.53909149314932

