%nproc=4
%Mem=2GB
# td=(NStates=1) CAM-B3LYP/6-31G(d,p) 

TD

0 1
 8  14.63680189918992 -2.37449492059206 -0.39090794379438
 8 -14.82138873587359  1.94893674967497  0.65819491349135
 6  11.52247554155415 -1.15756639073907  1.23894725572557
 6 -12.31817944994499 -0.94976753675368  0.90672619461946
 6  12.99256798879888 -1.53509654775478  1.13197076907691
 6 -13.70600320932093 -0.34405056505651  0.80973986998700
 6  13.39802179617962 -1.98595412251225 -0.35532042104210
 6 -13.58833117311731  1.20007280528053  0.65077686168617
 6  11.03023154915492 -0.34383859996000  0.07931368536854
 6 -11.38314541554155 -0.27096812581258 -0.17309806380638
 6  13.11305552455245 -0.72396315341534 -1.24718559155916
 6 -12.93279403940394  1.58800677767777 -0.57851489348935
 6  11.66073082008201 -0.30637101020102 -1.11845036103610
 6 -11.49751334133413  0.83476979998000 -0.77363690269027
 6  11.42139286628663 -0.43162232033203  2.56574701570157
 6  10.56698613961396 -2.40457093819382  1.22158027802780
 6 -11.74879707370737 -0.72815464346435  2.27104568456846
 6 -12.48196889888989 -2.48925436843684  0.74431633563356
 6  9.67207203320332  0.28792982988299  0.28712539253925
 6 -10.15277664466447 -1.13939802480248 -0.31348002900290
 6  11.14371713671367  0.49260372527253 -2.35765997299730
 6 -10.76636907590759  1.35128551255126 -1.91764107110711
 6  9.31101106810681  1.58328176607661 -0.04762013601360
 6 -8.88074855985599 -0.68344190119012 -0.19841088708871
 6  8.05746173217322  2.18331807170717  0.26584225322532
 6 -7.63574871687169 -1.32055638873887 -0.40507583958396
 6  8.28718919991999  3.64254245914591  0.67085845184518
 6 -7.55884699069907 -2.63651339943994 -0.93545372037204
 6  6.86474188118812  1.59758975287529 -0.14086409240924
 6 -6.49314111711171 -0.60068554365437 -0.33631663766377
 6  5.51535208720872  2.15064277117712  0.18554347034703
 6 -5.09805092709271 -1.08141801790179 -0.50671284528453
 6  4.48526245724572  1.35933134703470 -0.25945157415742
 6 -4.02284770477048 -0.22560876697670 -0.42087941794179
 6  3.05916852185219  1.73638423632363 -0.01545988098810
 6 -2.66730049404940 -0.72137646774677 -0.50998865886589
 6  2.79548982998300  3.19022847174717  0.61883459245925
 6 -2.28063355735574 -2.18038534063406 -0.81790283028303
 6  2.12480205520552  0.97159432333233 -0.34473359835984
 6 -1.72455377837784  0.32181188708871 -0.34866669366937
 6  0.62731990099010  1.09652442034203 -0.31072519251925
 6 -0.24381325032503  0.09802769766977 -0.47092473247325
 1  13.49320859285929 -0.66027946304630  1.42527736573657
 1  13.19518475447545 -2.30553113421342  1.89846997899790
 1 -14.34264704170417 -0.60465062206221  1.54292149814981
 1 -14.06471783878388 -0.72711963496350 -0.07345896589659
 1  12.60322552455245 -2.84194893799380 -0.48740680568057
 1 -12.97359282028203  1.35395991399140  1.70903037603760
 1  13.89801073307331 -0.10137285738574 -0.97955383938394
 1  13.15977747074707 -0.91208343544354 -2.43375405140514
 1 -13.55639118311831  1.40164148514852 -1.53511144414441
 1 -12.62496110311031  2.75576764076408 -0.65407229022902
 1  11.80371899189919 -0.95492621872187  3.37748240924092
 1  10.33247911291129 -0.33686319641964  2.83331221222122
 1  11.78473774377438  0.40749048194820  2.45915505050505
 1  10.62506150915091 -2.88146872697270  0.27088247424742
 1  10.81879279627963 -2.97628254535454  2.03034295829583
 1  9.69888588958896 -1.90631162426243  1.42727767076708
 1 -11.87853475347535  0.44338990999100  2.74156804980498
 1 -10.65510001900190 -1.06168332333233  2.55796180018002
 1 -12.23283444244425 -1.32886379137914  3.04712730873087
 1 -13.29161894289429 -2.76972822482248  1.51751626062606
 1 -11.62524557255725 -2.94258628662866  0.97036209220922
 1 -12.96020637863787 -2.97015732373237 -0.24143261726173
 1  8.95363718771877 -0.31227954805481  0.75016920092009
 1 -10.31934166616662 -2.03188691269127 -0.75380501350135
 1  10.12796521552155  0.77120721862186 -2.23154785778578
 1  11.61882031703170  1.56999129002900 -2.50369008300830
 1  11.43450768576858 -0.22464295139514 -3.14929205920592
 1 -11.43959496649665  1.65965919491949 -2.79611110411041
 1 -10.11338687768777  0.63823446044604 -2.25940054605461
 1 -10.22538429342934  2.29409802280228 -1.86182977897790
 1  14.79745629862986 -2.87549645474548  0.58878077107711
 1 -15.36754618961896  1.71852676667667  1.47220542554255
 1  10.25722120412041  1.99940324422442 -0.43150246524652
 1 -8.87628432543254  0.43691578957896 -0.01103591659166
 1  9.06033889588959  4.12629248214822  0.09067276427643
 1  7.46639002800280  4.33605901480148  0.66031186418642
 1  8.72858756875688  3.53610649754976  1.58160117811781
 1 -8.17679470947095 -3.39763669276928 -0.29016485548555
 1 -8.16178193419342 -2.75976499059906 -1.93542987298730
 1 -6.43806265526553 -2.96784043614361 -1.11897868986899
 1  7.01612327532753  0.55112885578558 -0.67493088508851
 1 -6.67302756475647  0.32334217411741 -0.01406378337834
 1  5.45655503950395  2.94882002990299  0.65453770877088
 1 -4.91892571257126 -2.09088039513951 -0.66209360936094
 1  4.65856895589559  0.31585983188319 -0.74392280328033
 1 -4.02522802680268  0.74053917081708 -0.05176238023802
 1  3.07137492249225  3.25995003690369  1.76501270227023
 1  1.79969662266227  3.22259092999300  0.44897730573057
 1  3.50343436543654  3.99084691859186  0.23752325632563
 1 -2.90002213921392 -2.85928307540754 -0.07795083908391
 1 -2.58421792979298 -2.39316043614361 -1.81294526152615
 1 -1.16711351035103 -2.48785896099610 -0.65152818881888
 1  2.39104626262626  0.03236458535854 -0.80758866286629
 1 -2.07911731273127  1.34983490139014 -0.25116172917292
 1  0.46013176017602  2.17150985688569 -0.22536674167417
 1  0.35584835483548 -0.86008595869587 -0.47368495249525

