%nproc=4
%Mem=2GB
# td=(NStates=1) CAM-B3LYP/6-31G(d,p) 

TD

0 1
 8  14.82712093109311 -2.14563203430343 -0.40956980998100
 8 -14.89078567556756  1.87097895389539  0.55702479647965
 6  11.35577887188719 -1.23200383448345  1.09018237923792
 6 -12.34206183818382 -0.92612517251725  0.79880540254025
 6  12.93962269426943 -1.44023706180618  1.12764033603360
 6 -13.73894650365036 -0.19718587858786  0.78922781878188
 6  13.43678567256726 -1.98534406150615 -0.23863875287529
 6 -13.70603294329433  1.26834963296330  0.57487927192719
 6  10.97226575257526 -0.35471968806881 -0.08923316931693
 6 -11.35084218521852 -0.27619864886489 -0.18266902090209
 6  13.05642986198620 -1.02685344244424 -1.28418929192919
 6 -12.89415017501750  1.64799277627763 -0.59106614861486
 6  11.69525427242724 -0.26861723482348 -1.26261477747775
 6 -11.65158874887489  0.76664298729873 -0.87602714171417
 6  11.15301602860286 -0.44954411251125  2.43812425342534
 6  10.55530497149715 -2.54749523062306  1.14592271227123
 6 -11.63864605860586 -0.83420524852485  2.26968554855486
 6 -12.57620832283228 -2.46156159915992  0.44147605160516
 6  9.58691351735174  0.26198723562356  0.13103978397840
 6 -10.10613198019802 -1.01878596359636 -0.41871055205521
 6  11.31179394439444  0.60243470837084 -2.34404861186119
 6 -10.70768320732073  1.57915829982998 -1.80791009800980
 6  9.36166613361336  1.57032046994699 -0.06107148114811
 6 -8.81983246824683 -0.59181273827383 -0.17066811281128
 6  8.07427341334133  2.32108184808481  0.17230289928993
 6 -7.62657779977998 -1.29588392149215 -0.43507883988399
 6  8.17098757975798  3.82021022592259  0.47597896389639
 6 -7.79436054205421 -2.76332608070807 -0.86118629362936
 6  6.92216762376238  1.64539453335334  0.07890788478848
 6 -6.42803460646065 -0.67874334943494 -0.25754876087609
 6  5.59946049804981  2.07344505140514  0.17995291129113
 6 -5.02659378137814 -1.08676855295530 -0.41979415341534
 6  4.41349528052805  1.32712812671267  0.00288465946595
 6 -3.98240366036604 -0.37550375647565 -0.27125445544554
 6  3.00803340834083  1.81396199409941 -0.02818115311531
 6 -2.52328609260926 -0.75630996109611 -0.27342500250025
 6  2.78843912491249  3.17730717961796  0.41346405540554
 6 -2.31612710671067 -2.20569787188719 -0.72200324032403
 6  2.10695027002700  0.84272143604360 -0.08650777577758
 6 -1.49365068806881  0.17745745164516 -0.23090491749175
 6  0.62776994599460  1.06237100500050 -0.06503062306231
 6 -0.12781165016502 -0.03318542364236 -0.24044168416842
 1  13.54640391239124 -0.45258869396940  1.31597643564356
 1  13.23005824182418 -2.16142672377238  1.85393552555256
 1 -14.33142591959196 -0.42817297429743  1.87090429642964
 1 -14.29700106710671 -0.75568249124913  0.08111649164917
 1  13.06075127712771 -2.94659940304030 -0.47152521752175
 1 -13.18749421042104  1.56440095809581  1.48996846984698
 1  13.92110304230423 -0.42257497759776 -1.61455733973397
 1  12.97893938693869 -1.48584081118112 -2.20242091809181
 1 -13.56716226022602  1.55325664666467 -1.53307124012401
 1 -12.68770737773777  2.66742880688069 -0.56365324832483
 1  11.87466608660866 -0.97520824692469  3.15608026902690
 1  10.17303316831683 -0.18610812091209  2.68027690869087
 1  11.59337860786079  0.53087282018202  2.26031516651665
 1  10.50085908890889 -3.03112369246925  0.20780616661666
 1  11.29250016701670 -3.16396131323132  1.80713063706371
 1  9.60703670467047 -2.36077707080708  1.54232917591759
 1 -11.44109100910091  0.22847841884188  2.44211810481048
 1 -10.57139164816482 -1.34341149614962  2.24311031503150
 1 -12.09878103710371 -1.51417232223222  2.94895749174918
 1 -13.53881366236624 -2.73707495949595  1.11022553155316
 1 -11.64335738373837 -3.06329835783578  0.73862891889189
 1 -12.89595995399540 -2.43823413141314 -0.44271274527453
 1  8.76628845284528 -0.29685800590059  0.80485466946695
 1 -10.11154088608861 -2.08012173617362 -0.77258689168917
 1  10.33217563656366  0.83387348524852 -2.02747745074507
 1  11.84956339133914  1.50347463836384 -2.21858157215722
 1  11.65515975097510  0.22060157305731 -3.29875700570057
 1 -11.29479048604860  1.56742997199720 -2.79374086708671
 1 -9.57028256725673  0.99611024802480 -1.87790239623962
 1 -10.61775353035304  2.67634624762476 -1.44974857085709
 1  15.10590714371437 -2.78459736483648  0.35027692069207
 1 -15.06940637563756  2.01141605560556  1.55350355535554
 1  10.28082356435644  2.19233253715372 -0.09378869386939
 1 -8.64562125912591  0.47827992599260  0.08375356235624
 1  8.89315217721772  4.38672852575258 -0.17511381438144
 1  7.13818720772077  4.08070347924793  0.56316214921492
 1  8.48296300630063  4.18655154205421  1.46993001100110
 1 -8.47530456045605 -3.45227215631563 -0.10446628562856
 1 -8.32725848184818 -2.87060607470747 -1.77282361236124
 1 -6.82848169716972 -3.21676532863286 -0.78918571057106
 1  6.86077774077408  0.68118186108611 -0.15721911391139
 1 -6.54683494549455  0.37049688958896 -0.03344572157216
 1  5.39836922092209  3.20242539043904  0.57828008300830
 1 -4.74476829682968 -2.12926423352335 -0.28318571857186
 1  4.48775187418742  0.13796204210421 -0.12708111911191
 1 -4.07427293129313  0.70572568946895  0.09233202920292
 1  3.52668045304530  3.47385142704270  1.36158235923592
 1  1.87606425942594  3.65483415431543  0.49852226022602
 1  3.06940096209621  3.71502933683368 -0.47474797079708
 1 -2.72807494449445 -2.87354450155016 -0.00833387738774
 1 -2.44423393139314 -2.36119723982398 -1.85599956695670
 1 -1.32683948294830 -2.27422759785979 -0.56901993799380
 1  2.38988614661466 -0.24744339543954 -0.17605550955096
 1 -1.85185458645865  1.14600451835183 -0.01265787878788
 1  0.29976572357236  2.07197990389039  0.17785358035804
 1  0.34788755875588 -0.84784473457346 -0.72769035303530

