%nproc=4
%Mem=2GB
# td=(NStates=1) CAM-B3LYP/6-31G(d,p) 

TD

0 1
 8  14.79954817381738 -2.17364483558356 -0.41742059505951
 8 -14.79264586158616  1.97918977497750  0.74943403740374
 6  11.51257455145515 -1.00938157225723  1.12257561856186
 6 -12.31930956295630 -0.91940450045004  0.63666918891889
 6  13.03909264126413 -1.38741177927793  1.11513908590859
 6 -13.64671728072807 -0.13181934193419  0.54867376337634
 6  13.35844783878388 -1.88793432053205 -0.24295918491849
 6 -13.53555589558956  1.36255905390539  0.75669745374537
 6  10.97359588558856 -0.28960317641764  0.01109686368637
 6 -11.30576767776778 -0.23975500450045 -0.17981873587359
 6  12.94726894589459 -0.81677243434343 -1.37049792279228
 6 -12.59171993199320  1.88133611061106 -0.35042208420842
 6  11.66998174517452 -0.16875724882488 -1.10092860886089
 6 -11.41647523752375  0.95894221722172 -0.64407394639464
 6  11.31290201720172 -0.09452861096110  2.42353279427943
 6  10.64726416741674 -2.23840432153215  1.57852597259726
 6 -11.81807400140014 -1.01662349034903  2.10944952495250
 6 -12.61043174517452 -2.29562500550055  0.10688259225923
 6  9.62567739373937  0.37405844274427  0.09306598659866
 6 -10.09640100710071 -1.14710879587959 -0.46370505150515
 6  11.25091785678568  0.47830229512951 -2.41900610761076
 6 -10.52711515051505  1.77974835883588 -1.53467277427743
 6  9.40649061606161  1.66015945384538 -0.16219159315932
 6 -8.90699118411841 -0.57412096909691 -0.39096014201420
 6  8.13052903890389  2.27992773267327 -0.07031136213621
 6 -7.68468361036104 -1.29126345944594 -0.55329066106611
 6  8.04270475147515  3.67404560946095  0.33109447544754
 6 -7.75331643764376 -2.76456620472047 -0.89987016201620
 6  6.92061746874688  1.58104809870987 -0.16402640864086
 6 -6.55415721872187 -0.61806728182818 -0.35076808280828
 6  5.53275382738274  2.02153986088609 -0.03732881688169
 6 -5.18220934293429 -1.13653352945295 -0.33549572357236
 6  4.45443937493749  1.16111152505251 -0.05509113811381
 6 -4.09138455845585 -0.33655986208621 -0.21004833483348
 6  3.08188079307931  1.48323892179218  0.21441310631063
 6 -2.71204496849685 -0.86684101420142 -0.31586924692469
 6  2.80094037503750  3.00645009390939  0.53089579857986
 6 -2.51623711771177 -2.36808411051105 -0.71576261626163
 6  2.17433700870087  0.50530769466947  0.02346322132213
 6 -1.67680900390039 -0.04140443454345 -0.06524835183518
 6  0.70081725072507  0.68766353425343  0.07434331433143
 6 -0.28313718271827 -0.26431853695370 -0.12739037903790
 1  13.68012728472847 -0.32530596569657  1.34743958195820
 1  13.22034727072707 -2.13943452455246  1.83516364836484
 1 -14.33510628762876 -0.61564172117212  1.30520772677268
 1 -14.20440180718072 -0.27378430143014 -0.43022464246425
 1  12.77818302030203 -2.82729747284729 -0.22628069306931
 1 -12.97748320932093  1.37369188718872  1.67569704270427
 1  13.78540947294729 -0.02726544664466 -1.38509439343934
 1  12.81538303130313 -1.31504373147315 -2.38007868386839
 1 -13.17020256425643  1.76024734573457 -1.31731966496650
 1 -12.34023263026303  2.88440050405041 -0.24155103810381
 1  11.67538615861586 -0.61525225132513  3.36545120612061
 1  10.36627249224923  0.22383287318732  2.47337621862186
 1  11.99430870087009  0.84761449434944  2.57137627262726
 1  10.83126212921292 -2.84875545564556  0.72258764476448
 1  11.02835375237524 -2.70900581768177  2.43881380538054
 1  9.60079608060806 -1.84257525062506  1.59808475147515
 1 -11.75967286728673 -0.10837526652665  2.60135402840284
 1 -10.89750425942594 -1.41011816681668  1.92433843784378
 1 -12.40912207120712 -1.64513541854185  2.72979557555756
 1 -13.53808358935894 -2.98476972897290  0.44828933793379
 1 -11.76623967196720 -2.85609763776378  0.32609766576658
 1 -12.70977133513351 -2.40314062206221 -0.91676015001500
 1  8.79823164716472 -0.32153047314731  0.58555273927393
 1 -10.44112384438444 -2.12375609960996 -0.38281791479148
 1  10.31877429642964  0.75136523442344 -2.46521122412241
 1  11.80575901090109  1.34419871077108 -2.61697141114111
 1  11.32446668166817 -0.39016950405040 -3.25931306130613
 1 -10.94999600660066  1.98497172617262 -2.36710820382038
 1 -9.67492303130313  0.90499113611361 -1.88070267626763
 1 -10.11135289028903  2.71003961696170 -1.01886548254825
 1  14.97603415641564 -2.91961086618662  0.12686457945795
 1 -15.36340577557756  1.90626554055406  1.53265147014701
 1  10.25636111811181  2.33123642754275 -0.53065238023802
 1 -8.87339403640364  0.49746184418442 -0.13134794779478
 1  8.31274413641364  4.38085793869387 -0.62485878887889
 1  7.01619500850085  4.02116752565257  0.58913474647465
 1  8.83258796879688  3.92843573047305  1.35391840984098
 1 -8.32232926292629 -3.30596752585259 -0.22538837783778
 1 -8.21529728572857 -2.85504451855185 -1.82215854585459
 1 -6.87729657865787 -3.26481013311331 -1.14479127112711
 1  7.07724938793879  0.50664440734073 -0.50220361236124
 1 -6.66011627362736  0.41848168806881 -0.06961933893389
 1  5.28026741074107  3.17572272017202  0.16772902790279
 1 -4.97495131513151 -2.13765507260726 -0.53389078907891
 1  4.58117121612161  0.14715296119612 -0.36415482648265
 1 -3.96333183718372  0.77284240114011 -0.27049425342534
 1  3.22351013601360  3.44810885278528  1.42530873187319
 1  1.65875252825283  3.22188085898590  0.54575698369837
 1  3.17670169216922  3.55367320122012 -0.17261775777578
 1 -2.99057119411941 -3.02450959805981  0.06867382338234
 1 -2.77226673467347 -2.49350047014701 -1.52546651365137
 1 -1.33918071707171 -2.54660483558356 -0.86440947694770
 1  2.43242040004000 -0.43555220632063 -0.49984788878888
 1 -2.04551395239524  0.98131804970497  0.21125451245124
 1  0.41615736273627  1.58256096199620  0.42729852485249
 1  0.21384415441544 -1.29339929002900 -0.29361694569457

