%nproc=4
%Mem=2GB
# td=(NStates=1) CAM-B3LYP/6-31G(d,p) 

TD

0 1
 8  14.61503972297230 -2.23219069016902 -0.63304215721572
 8 -14.52844944194419  2.22574443044304  0.56060515451545
 6  11.46951024502450 -1.05140577467747  1.11174453545355
 6 -12.34687231923192 -0.83928648864887  0.79654517651765
 6  12.94562329432943 -1.34241727982798  0.91316888888889
 6 -13.64589719871987  0.08417225722572  0.74499339533953
 6  13.32857485148515 -1.96632215931593 -0.47345223422342
 6 -13.38425076507651  1.52288508650865  0.60610239423942
 6  10.89299782578258 -0.32440665676568 -0.15954020002000
 6 -11.27255435643564 -0.35769679867987 -0.29093984798480
 6  12.90783500250025 -1.02104286138614 -1.53344421742174
 6 -12.62678343834384  1.67574555155516 -0.71456849884989
 6  11.63111785878588 -0.22461283438344 -1.28874739073907
 6 -11.50701429142914  0.76057238023802 -1.05326486548655
 6  11.32014274127413 -0.07145630373037  2.27617805880588
 6  10.60601004200420 -2.38654913601360  1.38664678467847
 6 -11.70382257625763 -0.68253008100810  2.11660024002400
 6 -12.72587328932893 -2.30984642764276  0.45568747274727
 6  9.57627245324533  0.33939497639764  0.07972465246525
 6 -10.10938230523052 -1.22555664066407 -0.41244992599260
 6  11.14419718471847  0.44055852075208 -2.53057726472647
 6 -10.46364880388039  1.47668805280528 -1.93366267326733
 6  9.24372433943394  1.64105754365437  0.04924955095510
 6 -8.84991547654766 -0.76772032903290 -0.41834288028803
 6  7.91071705770577  2.30519025892589  0.27949361836184
 6 -7.59371451345135 -1.44728906200620 -0.48650398239824
 6  8.03143362436244  3.76225443034303  1.00920228622862
 6 -7.67295840184018 -2.89061880998100 -0.87946812181218
 6  6.82299770677068  1.56855684958496  0.18156815081508
 6 -6.41759356235624 -0.82842831793179 -0.26913991999200
 6  5.53597414941494  2.14665237213721  0.25626054205421
 6 -5.08696981898190 -1.36839671577158 -0.38464063806381
 6  4.39943387438744  1.34799021292129  0.16790116111611
 6 -3.92875829582958 -0.58067427352735 -0.07374470447045
 6  3.01075368036804  1.76941753965397  0.18518018301830
 6 -2.52961672567257 -0.90789511961196 -0.20199785978598
 6  2.76889717071707  3.23197264616462  0.44318702770277
 6 -2.26208170217022 -2.39314661676168 -0.67734877487749
 6  2.08249782478248  0.77336450035004  0.05441631663166
 6 -1.67838916191619 -0.02713300740074  0.09705787878788
 6  0.67042421142114  0.91928669656966  0.17737361736174
 6 -0.24133300230023 -0.02737484258426 -0.12693033303330
 1  13.41553082508251 -0.21820525562556  0.77928276627663
 1  13.29001423742374 -2.01716229732973  1.76363649564956
 1 -14.15316809380938 -0.14991514851485  1.62983018901890
 1 -14.37824919191919 -0.45485240824082  0.12416079607961
 1  12.57628283028303 -2.64285902900290 -0.73191125612561
 1 -12.65416087708771  1.89902442044204  1.33172264526453
 1  13.57352828482848 -0.24244696479648 -1.68565444944494
 1  12.91411290429043 -1.55285751285129 -2.63967464346435
 1 -13.36924246824682  1.70872219321932 -1.46945487848785
 1 -12.35305391239124  2.84411647564757 -0.83000988398840
 1  11.98464708470847 -0.68206893299330  3.20074473547355
 1  10.33028889388939 -0.07188669876988  2.45410429142914
 1  11.82888215821582  0.86423615651565  2.02807194219422
 1  10.87332633563356 -3.08724930503050  0.58381376737674
 1  10.99776069306931 -2.78578349544954  2.29161908590859
 1  9.52640864186419 -2.22949394249425  1.66150109310931
 1 -11.50075697569757  0.39359493049305  2.21840573357336
 1 -10.65765027402740 -1.25158231323132  2.29766577057706
 1 -12.48628978797880 -1.06795770077008  2.95682827882788
 1 -13.52117189818982 -2.87736898889889  1.05580008900890
 1 -11.87509055705570 -3.09543157115712  0.66045110111011
 1 -13.25695605360536 -2.47644795279528 -0.51567004100410
 1  8.89002082608261 -0.42198051815181  0.42745692969297
 1 -10.27126685868587 -2.16542026602660 -0.60458009100910
 1  10.07244966396640  0.66538663656366 -2.67458216121612
 1  11.71414984998500  1.50996528742874 -2.70550026402640
 1  11.43794802980298 -0.02253274037404 -3.59394652465247
 1 -10.65486649364937  1.86896012501250 -3.07378887188719
 1 -9.76293183218322  0.62963360036004 -2.21144575057506
 1 -10.00243199819982  2.20212882588259 -1.60820441644164
 1  15.13527008000800 -2.81212011711171  0.07986987998800
 1 -14.98978841384138  2.09761467546755  1.55438364336434
 1  10.02133761576158  2.11035433933393 -0.42320163516352
 1 -8.65615231223122  0.34408650665067 -0.27565237823782
 1  8.84558742074207  4.30394024692469  0.48171186818682
 1  7.16040942994299  4.50095550445045  0.97183301630163
 1  8.47507221722172  3.66622950985098  2.05817883588359
 1 -8.41190822082208 -3.45875280438044 -0.22518835783578
 1 -8.13109886588659 -3.04408342244224 -2.00785711571157
 1 -6.68095694469447 -3.51400505260526 -0.71323811581158
 1  6.91593325632563  0.74068781168117 -0.22076546854685
 1 -6.37280754275428  0.35239507940794 -0.04708708570857
 1  5.14629401340134  3.00688583648365  0.51577383238324
 1 -5.03445726572657 -2.33267457455746 -0.89671707170717
 1  4.50683378237824  0.32131037693769 -0.17001541254125
 1 -4.01848735273527  0.31372648954895  0.54233702970297
 1  2.79556734173417  3.85401944384438  1.55539174017402
 1  1.52690934393439  3.46562523342334  0.30767317531753
 1  3.07099112111211  3.85667350125012 -0.38518901490149
 1 -2.82211434843484 -3.02947009410941 -0.18017106110611
 1 -2.45629513751375 -2.42736385648565 -1.81119508650865
 1 -1.16683348234824 -2.74544471957196 -0.42387542354235
 1  2.53283044104410 -0.01699035013501 -0.33168107210721
 1 -2.24658405940594  0.95075499339934  0.47710109710971
 1  0.32443819081908  1.94212691859186  0.54908070307031
 1  0.22740551055106 -0.99515946604660 -0.49029661366137

