%nproc=4
%Mem=2GB
# td=(NStates=1) CAM-B3LYP/6-31G(d,p) 

TD

0 1
 8  14.77480569956996 -2.07444491559156 -0.36808566156616
 8 -14.69334593159316  2.09091094709471  0.93598269226923
 6  11.35390868486849 -1.17461809590959  1.31197455845585
 6 -12.33290092209221 -0.89081164116412  0.82485800780078
 6  12.93482221422142 -1.46066910501050  1.08257582958296
 6 -13.64808741774177 -0.05854201420142  0.87310620662066
 6  13.36934892889289 -1.79293482058206 -0.28154304330433
 6 -13.44936727672767  1.38696149414941  0.85856764076408
 6  10.90528905490549 -0.33112732883288  0.11909766376638
 6 -11.31093819481948 -0.27350837983798 -0.15342609660966
 6  13.07651187018702 -0.68789954705471 -1.12182305530553
 6 -12.71863262326233  1.78591656865687 -0.37538458045805
 6  11.66680142714272 -0.09930030313031 -1.00307882388239
 6 -11.45393898389839  0.91370769376938 -0.72781232023202
 6  11.10150087708771 -0.30668982708271  2.48406884788479
 6  10.57725716671667 -2.50692117321732  1.33053117311731
 6 -11.72987518151815 -0.98443027102710  2.28692727272727
 6 -12.68657935993599 -2.31246668966897  0.26233813781378
 6  9.61236606260626  0.34981601850185  0.23124980498050
 6 -10.06484785178518 -0.92809689468947 -0.39246792779278
 6  11.23879664466447  0.73747821272127 -2.28498270527053
 6 -10.66573901290129  1.63961434543454 -1.70794010101010
 6  9.39502946994699  1.61269470737074  0.05171979797980
 6 -8.71873235823582 -0.44336789378938 -0.39280032603260
 6  7.99806579257926  2.27822756265627  0.15485115411541
 6 -7.62968811081108 -1.31723605670567 -0.59842517451745
 6  8.06966744774478  3.74318252315232  0.24479584558456
 6 -7.73714482048205 -2.83804355245525 -0.67481765676568
 6  6.91650705770577  1.58564855875588 -0.01832183818382
 6 -6.44444624762476 -0.70182565766577 -0.43073607960796
 6  5.48085863786379  2.08416612351235 -0.00065514951495
 6 -5.07011813381338 -1.28032790889089 -0.54208638263826
 6  4.38251218221822  1.26729214311431 -0.06756238523852
 6 -3.95829124912491 -0.47925413151315 -0.51960929092909
 6  3.01732433743374  1.65049564746475  0.00642230723072
 6 -2.59159292329233 -1.00352468256826 -0.64635229522952
 6  2.67205748674868  3.07899734863486  0.16819952895290
 6 -2.29519501350135 -2.46103340544054 -0.82407344734473
 6  2.13710328532853  0.58137530143014 -0.18968809380938
 6 -1.57243856685669 -0.14492478657866 -0.42055388238824
 6  0.68927609660966  0.77346211411141  0.01144702470247
 6 -0.17188605760576 -0.19814191929193 -0.35760340034003
 1  13.53532280428043 -0.55542897799780  1.35942078007801
 1  13.01392662866287 -2.31042162326233  1.92537266926693
 1 -14.09999277627763 -0.25013517051705  1.70464767076708
 1 -14.08381974897490 -0.22773969696970 -0.10692231223122
 1  12.64602980498050 -2.63001774487449 -0.60671873687369
 1 -12.86675213621362  1.58139265726573  1.78741821482148
 1  13.77073800580058  0.19748702860286 -0.91110699469947
 1  13.13405489848985 -1.16120834793479 -2.10819149514952
 1 -13.39385492949295  1.84531585258526 -1.24581251425142
 1 -12.56982558955896  2.77867993199320 -0.30669755275528
 1  11.52494111411141 -1.01981270737074  3.23895855685569
 1  10.28088395339534  0.00864135403540  2.64318319931993
 1  11.73642291229123  0.55792552545255  2.47266640164016
 1  10.49299830283028 -3.06057663776378  0.37499288528853
 1  11.05053597059706 -3.29842475957596  2.15929585358536
 1  9.44930093109311 -2.20261125422542  1.54326926992699
 1 -11.52846974697470  0.05777134813481  2.60391428442844
 1 -10.71231574057406 -1.45741289628963  2.27657366136614
 1 -12.44975613461346 -1.31140204520452  3.06223881988199
 1 -13.64084386538654 -2.50220147214722  0.91732624162416
 1 -11.71893494149415 -2.97992002000200  0.24033908990899
 1 -13.27639799779978 -2.17221752975298 -0.73531200520052
 1  8.84622644664466 -0.21465978607861  0.54665884988499
 1 -10.12343207520752 -2.14120784478448 -0.51261089408941
 1  10.22664508350835  0.79064916281628 -2.35538024102410
 1  11.72676111111111  1.59147343824382 -2.48901861586159
 1  11.40780501550155  0.19841935483548 -3.05353248324833
 1 -11.26417742474247  2.12602583158316 -2.42171366436644
 1 -10.02887842684268  0.97624826182618 -2.17094170017002
 1 -10.17780953595360  2.52162077507751 -1.40011360736074
 1  14.75464201720172 -2.89164806990699  0.22507440044004
 1 -15.05553498849885  1.75618053205320  1.77177538253825
 1  10.07529301130113  2.40130343424342 -0.22872218721872
 1 -8.57250394739474  0.59065116311631 -0.31092590559056
 1  8.51159402140214  4.18104795769577 -0.70214651765177
 1  6.97154054305431  4.29673508240824  0.28044387738774
 1  8.65654036403640  3.99836272317232  1.09301231923192
 1 -8.27815484548455 -3.49680660976098  0.07231139213921
 1 -8.37955371137114 -2.94331334543454 -1.55550188018802
 1 -6.70878972797280 -3.16592024412441 -0.92848964096410
 1  6.97412907590759  0.30343408630863 -0.17562095409541
 1 -6.36762702470247  0.42432227212721 -0.34456683368337
 1  5.15126451045105  3.11152630053005  0.05764801980198
 1 -4.87729154915492 -2.31509281638164 -0.79722712271227
 1  4.57644074307431  0.14192243814381 -0.10093850485048
 1 -3.82009751375138  0.59164428132813 -0.18476568056806
 1  3.23808159315932  3.30790483238324  1.10114631563156
 1  1.67413406640664  3.22114078497850  0.39972238023802
 1  3.17750177217722  3.73073090699070 -0.70252074807481
 1 -2.55733787078708 -3.08749589668967  0.28201515751575
 1 -3.04541404940494 -2.80980210031003 -1.62592655965597
 1 -1.23553035203520 -2.66115629072907 -1.05709874587459
 1  2.37029418741874 -0.49468811991199 -0.16043394739474
 1 -2.02428182918292  1.02319223712371 -0.37007362036204
 1  0.30027577457746  1.68870157605761  0.30032582758276
 1  0.21441421142114 -1.21980193029303 -0.81372895689569

