%nproc=4
%Mem=2GB
# td=(NStates=1) CAM-B3LYP/6-31G(d,p) 

TD

0 1
 8  14.62567078607861 -2.28918638973897 -0.25743459645965
 8 -14.91416801380138  1.83426528252825  0.68248734273427
 6  11.48511180518052 -1.10336097019702  1.13469683068307
 6 -12.38088572057206 -1.01131369136914  0.71527704970497
 6  12.98794752675268 -1.43963700180018  1.07000457245725
 6 -13.69264187318732 -0.37264342434243  0.67298619461946
 6  13.27434942894289 -2.03055858295830 -0.24089897889789
 6 -13.57311965196520  1.16496929492949  0.80637242124212
 6  10.97005553155316 -0.29940415651565 -0.04648889488949
 6 -11.26217331833183 -0.36301733073307 -0.30411116511651
 6  12.87667188618862 -1.07681843894389 -1.35868674167417
 6 -12.78822958295830  1.62113009000900 -0.40780782278228
 6  11.62612735973597 -0.26949732283228 -1.19416793279328
 6 -11.57956154615461  0.83899022202220 -0.83741328032803
 6  11.27448817581758 -0.26770592869287  2.49529997099710
 6  10.79012845384539 -2.49515999709971  1.38724684468447
 6 -11.76343853785379 -0.95584741274127  2.02654123412341
 6 -12.56018672067207 -2.45266070907091  0.38058996299630
 6  9.63479830583058  0.36434747164716  0.18857553755376
 6 -10.13685505250525 -1.08725281028103 -0.58669735073507
 6  11.28249101410141  0.43395786068607 -2.48937314431443
 6 -10.72694513351335  1.52556294029403 -1.92066137313731
 6  9.32831279827983  1.64396783468347 -0.25229060306031
 6 -8.85143562856286 -0.57752130913091 -0.25953699969997
 6  8.07190317631763  2.24695443534353 -0.00387471847185
 6 -7.52215735773577 -1.30069440254025 -0.44103943594359
 6  8.22597307830783  3.75408361326133  0.24837620362036
 6 -7.43600470647065 -2.73007275537554 -0.95072524752475
 6  6.93540894789479  1.52848284218422 -0.12000200620062
 6 -6.50126192919292 -0.48127360246025 -0.18618162416242
 6  5.60241079307931  2.02611031793179  0.02383729972997
 6 -5.11287240924092 -0.90612048814882 -0.36846902090209
 6  4.51424535553555  1.25136054995500 -0.16257188618862
 6 -4.02780820082008 -0.20928713481348 -0.04526185618562
 6  3.19919252425243  1.72241283918392  0.22668433343334
 6 -2.63439720372037 -0.59235356545655 -0.18581624162416
 6  2.85339562056206  3.06843629252925  0.63030573957396
 6 -2.34967046104610 -1.99842714481448 -0.69793083308331
 6  2.14912448744874  0.81664882878288 -0.01013013801380
 6 -1.76848817181718  0.25807551345135 -0.07526935393539
 6  0.67238440744074  1.02404717261726  0.12364824482448
 6 -0.27576644564456  0.12999089398940 -0.30341798179818
 1  13.65520479247925 -0.46359979507951  1.31346618461846
 1  13.19873510951095 -2.07574815591559  1.96017614961496
 1 -14.43838661566157 -0.65148530553055  1.42255946194619
 1 -14.16438780578058 -0.74159108210821 -0.27680930093009
 1  12.58739394139414 -2.88994373747375 -0.43229129412941
 1 -13.15079054005400  1.27188170617062  1.77029650265027
 1  13.70532146414642 -0.33234595469547 -1.31994787878788
 1  13.03670516351635 -1.63932615971597 -2.23412408840884
 1 -13.59985552955295  1.83658497949795 -1.15686361936194
 1 -12.75081368836884  2.67100916491649 -0.19373625662566
 1  11.73092171217122 -0.86620734683468  3.39335399639964
 1  10.13693955895590 -0.38186769686969  2.79811869286929
 1  11.67909717971797  0.76050578347835  2.52210134513451
 1  10.88054705770577 -3.02276285638564  0.57373275927593
 1  11.24682559955996 -3.14527944504450  2.11660158415842
 1  9.84220022102210 -2.21334232733273  1.33926886988699
 1 -11.69935683568357  0.01375694669467  2.55727962096210
 1 -10.78630313931393 -1.46235339033903  2.07786379037904
 1 -12.49780093909391 -1.51969287428743  2.76318891489149
 1 -13.27906768776878 -2.93000425242524  1.01402591159116
 1 -11.55542859085909 -2.89779180718072  0.44007906390639
 1 -12.91858221622162 -2.30635094309431 -0.68386686068607
 1  8.92014383838384 -0.23123144324432  0.72317650165017
 1 -10.04947467946795 -2.00929465346535 -1.06701633463346
 1  10.14671709070907  0.62789288718872 -2.69390409340934
 1  11.64063249824983  1.48573286418642 -2.38629834383438
 1  11.59571380638064 -0.24024451155115 -3.39630676067607
 1 -11.49359036603660  1.70257348634864 -2.90142163516352
 1 -9.74359989898990  1.14516515351535 -1.98701330733073
 1 -10.39053080808081  2.60705931893189 -1.66423001900190
 1  14.75396194919492 -3.21337024212421  0.18718061106111
 1 -15.42672210721072  1.62599751375138  1.53818202320232
 1  10.17635311731173  2.18513181708171 -0.82817213221322
 1 -8.98616531353135  0.46264836283628  0.26506169316932
 1  9.08619148114811  4.21417127002700 -0.31614791779178
 1  7.31693508250825  4.21602701160116  0.34536036903690
 1  8.47246195619562  3.85254814171417  1.39388240624062
 1 -8.06036306630663 -3.24732166126613 -0.23106894589459
 1 -7.79495525152515 -2.95667468156816 -1.95557188718872
 1 -6.44625347434743 -3.05766941904190 -0.84020081208121
 1  6.99419108210821  0.50654439733973 -0.35936932893289
 1 -6.83821408340834  0.63223306320632  0.23637126012601
 1  5.63118250225022  3.26581172907291  0.13429568456846
 1 -4.99663348334834 -1.95476678377838 -0.82321972197220
 1  4.62211531053105  0.28301654755476 -0.59757816881688
 1 -4.16671217521752  0.79105422232223  0.40801359735974
 1  3.80290807580758  3.20577461936194  1.40046624762476
 1  1.81179783278328  2.90393906480648  1.34925733373337
 1  2.73564758675868  3.84728256215622 -0.11161165716572
 1 -2.96420855785579 -2.63525067216722 -0.13883692769277
 1 -2.86933644164416 -2.13986510661066 -1.74825879287929
 1 -1.29277607660766 -2.27812798789879 -1.11417445344534
 1  2.43666082408241 -0.18038668976898 -0.24863276727673
 1 -2.10402980398040  1.37025694359436  0.06815020202020
 1  0.23866961396140  1.89022172807281  0.79440523552355
 1  0.22805557555756 -0.76796674677468 -0.61483906790679

