%nproc=4
%Mem=2GB
# td=(NStates=1) CAM-B3LYP/6-31G(d,p) 

TD

0 1
 8  14.60497871687169 -2.35111258235824 -0.56850570357036
 8 -14.85377197419742  2.03694555055506  0.50318941294129
 6  11.43821711571157 -1.03832446654665  1.09867322832283
 6 -12.35342297429743 -0.91029358935894  0.70863638563856
 6  12.89829856185619 -1.37909094719472  0.90930850285029
 6 -13.74324693369337 -0.21276743674367  0.61474037003700
 6  13.30274226822682 -2.04581010811081 -0.45893078207821
 6 -13.55993833383338  1.35493829182918  0.61515329932993
 6  10.93384191019102 -0.26869108520852 -0.07243148914891
 6 -11.35672277327733 -0.34321535053505 -0.30237099109911
 6  12.87792201120112 -0.98634939203920 -1.52285315831583
 6 -12.73953471347135  1.67874585158516 -0.69221626362636
 6  11.49880462746275 -0.28224859795980 -1.31978049404941
 6 -11.58808239823982  0.88451477447745 -0.81448098709871
 6  11.29738046504650 -0.18190734883488  2.36224666566657
 6  10.60895033603360 -2.31831231233123  1.45754387438744
 6 -11.93468566256626 -0.87345917391739  2.08863744374437
 6 -12.70779148114812 -2.36902234523452  0.30349225322532
 6  9.55418024402440  0.43702473937394  0.24704138413841
 6 -10.06360772777278 -1.17609169416942 -0.39094777577758
 6  10.95007777277728  0.40502496739674 -2.52542674967497
 6 -10.57737017601760  1.36610699469947 -1.82322162916292
 6  9.44545451245124  1.67282071997200 -0.16636201020102
 6 -8.85145563056306 -0.59571312831283 -0.15763680968097
 6  8.09161514751475  2.29701944184418  0.01555722472247
 6 -7.54511965396540 -1.36299063216322 -0.41873720572057
 6  8.16444692569257  3.78314651955196  0.41256262226223
 6 -7.57365847184718 -2.82262201030103 -0.67863803880388
 6  6.97870327732773  1.54850484438444  0.14673466746675
 6 -6.40629243224322 -0.64114959005901 -0.33316632263226
 6  5.60371092309231  1.99048675557556  0.35611052705271
 6 -4.96202732473247 -1.04375425152515 -0.40236241024102
 6  4.48511244224422  1.27664307820782  0.14294866586659
 6 -3.89744516451645 -0.34508071417142 -0.24369169916992
 6  3.11331393639364  1.63985458335834  0.31097276227623
 6 -2.56393015701570 -0.74475880598060 -0.33076073607361
 6  2.80450073107311  3.09428887778778  0.83143585258526
 6 -2.31639713371337 -2.16512381448145 -0.72480352035204
 6  2.13862343734373  0.73057022092209  0.09375025002500
 6 -1.51319264226423  0.16679638553855 -0.18152997999800
 6  0.79940710971097  0.97337210511051  0.24772065206521
 6 -0.15951482048205  0.01922981788179 -0.09304694469447
 1  13.60353962596260 -0.49764319941994  0.77875271327133
 1  13.33745898189819 -1.90305088618862  1.75393552555256
 1 -14.22544532153215 -0.55442559955996  1.43324053005301
 1 -14.39409077607761 -0.45941286428643 -0.40995261526153
 1  12.66361156315632 -2.95058980208021 -0.65764382938294
 1 -13.03188864986499  1.78435295329533  1.50936040904090
 1  13.71853278527853 -0.32529524962496 -1.58187407140714
 1  13.02989448244824 -1.58451067816782 -2.43448412441244
 1 -13.35525106910691  1.76199752075207 -1.59330726372637
 1 -12.36949555655566  2.75723778777878 -0.85485236823682
 1  11.79288790879088 -0.70362108820882  3.32365702670267
 1  10.36862272727273  0.13690418031803  2.56073495449545
 1  11.86671594159416  0.60640037293729  2.33828296329633
 1  10.62383138613861 -3.03495407550755  0.58994438043804
 1  10.95875679267927 -2.79318423552355  2.31026095009501
 1  9.70442644364436 -1.95218621172117  1.57458240124012
 1 -11.66029292929293  0.12939851085109  2.60436432943294
 1 -10.67528203720372 -1.04586174117412  1.97737374137414
 1 -12.41700285928593 -1.62984388938894  2.69538213421342
 1 -13.66299608060806 -2.79851110311031  0.79410391939194
 1 -12.03230627862786 -3.15371739973997  0.59307436343634
 1 -12.89353971197120 -2.35794610261026 -0.76453492749275
 1  8.93053487748775  0.04201588148815  1.07982216621662
 1 -10.08428816081608 -2.22925664966497 -0.77039667266727
 1  9.92673509250925  0.80513061096110 -2.51513621662166
 1  11.71518995399540  1.19175346624662 -2.60907062106211
 1  11.02469670467047 -0.17191767886789 -3.41297842784278
 1 -11.19778078507851  1.81062429142914 -2.64784627762776
 1 -10.14880041904190  0.45209584658466 -2.11657626362636
 1 -9.60228198319832  2.06983559655966 -1.57819141514151
 1  14.85881243424342 -3.07613651875188  0.03472536553655
 1 -15.20522995799580  1.96827174117412  1.32571077607761
 1  10.24364984698470  2.19980328422842 -0.60526984198420
 1 -8.87484418141814  0.29130122812281  0.11851703870387
 1  8.70507336933693  4.24955480838084 -0.40296659965997
 1  7.09797318631863  4.24928033693369  0.54092992599260
 1  8.90770548054805  4.07591047794779  1.25073809180918
 1 -8.38941597159716 -3.19234616371637 -0.01718755775578
 1 -7.95760151615162 -3.07304631873187 -1.85024135413541
 1 -6.56905575457546 -3.50351400350035 -0.45596238823882
 1  7.12703436643664  0.48039178207821 -0.18909230123012
 1 -6.36274653665367  0.36477631753175  0.20884850785079
 1  5.25100448444844  3.18626377427743  0.59989224422442
 1 -4.79079289928993 -2.12393370047005 -0.62447984798480
 1  4.62101520052005  0.15536378227823 -0.16189460046005
 1 -4.00255575957596  0.70083520042004  0.09646244224422
 1  3.52545033003300  3.15649969186919  1.69127532853285
 1  1.79627628062806  3.24010268116812  1.27688009600960
 1  3.06496051805181  3.93226106000600 -0.04722521852185
 1 -2.61695383238324 -2.83419056615662  0.12418937493749
 1 -2.71051055905591 -2.39626074617462 -1.71720568756876
 1 -1.28355515451545 -2.46345652075208 -0.81859489548955
 1  2.56370352835284 -0.19675832693269 -0.33962186618662
 1 -1.79064846584658  1.26171608950895  0.15470885788579
 1  0.50920666766677  1.70026273217322  0.54850064506451
 1  0.34043681368137 -1.02637258735874 -0.10899848384839

