%nproc=4
%Mem=2GB
# td=(NStates=1) CAM-B3LYP/6-31G(d,p) 

TD

0 1
 8  14.79867808680868 -2.24072154325433 -0.54054290729073
 8 -14.80434703170317  2.13995585158516  0.55898499249925
 6  11.49232252625263 -1.09902053615362  1.17225058605861
 6 -12.25881351335133 -0.87998055805581  0.83236875887589
 6  12.99620835283528 -1.28269130723072  1.10956852885289
 6 -13.64207681668167 -0.15079123912391  0.82173106910691
 6  13.42465445944594 -1.88537406450645 -0.30508539753975
 6 -13.53446578657866  1.34274707270727  0.69658144214421
 6  10.94432295829583 -0.26900111621162  0.02166792079208
 6 -11.26475357635763 -0.22771380038004 -0.08256901090109
 6  13.11177539653965 -0.77293805090509 -1.27138801180118
 6 -12.83961472147215  1.65782375937594 -0.58150519251925
 6  11.71312605960596 -0.15477585068507 -1.04635315131513
 6 -11.60764435443544  0.80601692469247 -0.82791233023302
 6  11.13119384638464 -0.33954311241124  2.56996743774377
 6  10.80620006100610 -2.41090157125713  1.15166328632863
 6 -11.75849804380438 -0.82158398639864  2.34705328532853
 6 -12.57075777777778 -2.30208565156516  0.50380228422842
 6  9.63183800980098  0.32440347724772  0.23582026202620
 6 -10.09542090909091 -1.07814189918992 -0.37749643064306
 6  11.24960772577258  0.57104156905691 -2.42591679867987
 6 -10.68346078507851  1.44251463546355 -1.89330863786379
 6  9.31225119211921  1.60666410431043 -0.07672304630463
 6 -8.89608009300930 -0.53206676367637 -0.24375542154215
 6  7.98243422942294  2.29125886578658  0.02963863286329
 6 -7.66161130313031 -1.26594092719272 -0.50258559055906
 6  8.09122960396040  3.79254745964596  0.41609297529753
 6 -7.72914402040204 -2.71489123722372 -0.96651682668267
 6  6.85715112211221  1.57634762866287  0.01038103210321
 6 -6.44022582558256 -0.65415089018902 -0.50778378437844
 6  5.50853140514051  2.02548025492549  0.14890980698070
 6 -5.06503762576258 -1.21004088018802 -0.52504467846785
 6  4.48477240824082  1.15935134903490  0.02050642164216
 6 -4.02203762376238 -0.39177538363836 -0.33899122912291
 6  3.04835744074407  1.59322992089209  0.14836650165016
 6 -2.67142090609061 -0.88799312941294 -0.43792145214521
 6  2.81507178817882  3.06077552645265  0.58670137913791
 6 -2.38680417441744 -2.31323862596260 -0.74583562356236
 6  2.07329690469047  0.69456662056206 -0.00303942894289
 6 -1.66624794779478 -0.01219151325133 -0.18183001000100
 6  0.66589375837584  0.87202197009701  0.07823370337034
 6 -0.20993986298630 -0.18821092619262 -0.38571621162116
 1  13.46979625162516 -0.44287772287229  1.09991482948295
 1  13.25288052405240 -2.03233381448145  1.83105323732373
 1 -14.26224900190019 -0.33885404240424  1.73733093909391
 1 -14.29876124312431 -0.64328125112511  0.01605998599860
 1  12.86122132413241 -2.77648239133913 -0.64616268126813
 1 -12.95571103210321  1.76508102610261  1.61560103310331
 1  13.82895382738274  0.10689796969697 -1.14594047804780
 1  13.07983947694770 -1.30984321142114 -2.24542521852185
 1 -13.62400794479448  1.71572289328933 -1.34057199019902
 1 -12.61583019001900  2.75899796379638 -0.70063694669467
 1  11.84217283728373 -0.88478920502050  3.30944560556056
 1  10.10824668966897 -0.23157266736674  2.76062494349435
 1  11.70854012401240  0.67573730663066  2.67534666966697
 1  11.14499350235023 -3.00479105920592  0.34916030203020
 1  11.15513643064306 -3.00980589768977  2.02109203320332
 1  9.72367836883688 -2.44888588168817  1.13929887288729
 1 -11.92227912791279  0.28149372037204  3.00470436343634
 1 -10.62323683268327 -1.08720587558756  2.22069807380738
 1 -12.24434559355936 -1.31020192519252  3.01901449744975
 1 -13.65871565256526 -2.63833508550855  0.84794930393039
 1 -11.81528457645764 -3.12992502050205  0.95812086808681
 1 -12.53708406640664 -2.45246555455546 -0.61364983898390
 1  8.92334415841584 -0.19224754485449  0.74343852785279
 1 -10.26797652965297 -2.07750147414742 -0.60505013801380
 1  10.00520293929393  0.64405450335034 -2.53354805780578
 1  11.81912034703470  1.46658094899490 -2.46423613761376
 1  11.53940817581758 -0.11167165426543 -3.19370650065006
 1 -11.25757676467647  1.42705593459346 -2.95446693969397
 1 -9.64498003700370  0.97927856485649 -2.06827143314331
 1 -10.51443319831983  2.45081369436944 -1.25843943994399
 1  14.98556510951095 -3.11251015611561 -0.05357346434643
 1 -15.55446488148815  1.67842275627563  1.24726293129313
 1  10.16581206320632  2.04630793469347 -0.32405172017202
 1 -8.85699239623962  0.49302140014001 -0.00466527952795
 1  8.64041690369037  4.31859171207121 -0.26122242524252
 1  7.17267065606561  4.39153456235624  0.47080291329133
 1  8.90446515651565  3.81799468636864  1.26607962596260
 1 -8.34932196219622 -3.28195512461246 -0.29428526752675
 1 -8.10871662766277 -2.67730674477448 -1.77155348534854
 1 -6.93208205720572 -3.21251490359036 -1.01149794179418
 1  6.87562922592259  0.49236297919792 -0.30500389238924
 1 -6.40795105710571  0.41315115501550 -0.20257263426343
 1  5.33029241324132  3.12727787568757  0.46174842984298
 1 -4.88473229322932 -2.18296960406041 -0.64366176617662
 1  4.70296339533953  0.20815906180618 -0.12807121812181
 1 -4.03693919791979  0.77586270317032 -0.27021422542254
 1  3.32651043604360  3.11773581548155  1.63864006500650
 1  1.71084773777378  3.26075474637464  0.43526593459346
 1  3.37016103810381  3.45311314521452 -0.21523201920192
 1 -3.03334547154715 -3.00551769886989 -0.04617766176618
 1 -2.57058656665667 -2.48256937703770 -1.76646061306131
 1 -1.22469926892689 -2.54858503360336 -0.40330336633663
 1  2.27170432843284 -0.39909856095610 -0.14875277927793
 1 -2.12201160216022  0.89439935783578  0.32504589158916
 1  0.08012375937594  1.75757846374637  0.44930072507251
 1  0.24581735173517 -1.19854980508051 -0.71233881788179

