%nproc=4
%Mem=2GB
# td=(NStates=1) CAM-B3LYP/6-31G(d,p) 

TD

0 1
 8  14.66412463146315 -2.38968643974397 -0.31750060306031
 8 -14.89529612661266  1.86402825882588  0.34655374937494
 6  11.38530182418242 -1.15326596069607  1.19272263326333
 6 -12.37314494649465 -0.93489604960496  0.78498402040204
 6  12.77858659065907 -1.55474851295130  1.05521309330933
 6 -13.73447605660566 -0.23692985298530  0.65230412641264
 6  13.26788878287829 -1.99362488958896 -0.33891878087809
 6 -13.60007234723472  1.25601839983998  0.55295707970797
 6  10.86072459845985 -0.28120233633363 -0.03680792679268
 6 -11.21856895789579 -0.32382341134113 -0.09890064406441
 6  13.02508672767277 -0.92969372647265 -1.26738761176118
 6 -12.59788054805481  1.76516449344934 -0.45782282428243
 6  11.64857960496050 -0.20346071917192 -1.18087660366037
 6 -11.38897248724872  0.92921924492449 -0.72001154015402
 6  11.07673840084009 -0.47880703880388  2.49765020602060
 6  10.61602104310431 -2.48414889598960  1.16599471947195
 6 -11.97373956795679 -0.88520034803480  2.25462404240424
 6 -12.53476417841784 -2.41785722872287  0.42842474647465
 6  9.60469529552955  0.35425646254625  0.18317499749975
 6 -10.01029239623962 -1.16092017701770 -0.38114679567957
 6  11.27118988398840  0.53983844874487 -2.44565877287729
 6 -10.51584402340234  1.44396478047805 -1.79018832583258
 6  9.36672663966397  1.62899633753375 -0.32965833983398
 6 -8.81335182018202 -0.62262581958196 -0.16454750075008
 6  8.07570355635563  2.24207394729473 -0.09692402340234
 6 -7.55897103910391 -1.31040537363736 -0.41231656365637
 6  8.25494597559756  3.78281648654866  0.29449081508151
 6 -7.64295540154015 -2.74298404650465 -0.80925110011001
 6  6.89801520852085  1.72467246114611 -0.20603060906091
 6 -6.43612541554155 -0.68195367046705 -0.25290829682968
 6  5.56483703570357  2.20623833073307  0.13230814681468
 6 -5.03662478447845 -1.21092096819682 -0.33508568256826
 6  4.52503643464346  1.47182259615962 -0.07771340034003
 6 -3.99718513851385 -0.36432263836384 -0.25235256525653
 6  3.08173077807781  1.82463306120612  0.28636030103010
 6 -2.60882464646465 -0.85692002210221 -0.41138879887989
 6  2.71223150415042  3.28367781668167  0.67902061106111
 6 -2.33033852785279 -2.16041334343434 -1.02334337433743
 6  2.12980255525553  0.89529669356936  0.03231410641064
 6 -1.65331665466547  0.12652235813581 -0.07822964996500
 6  0.71983915291529  1.03989875777578  0.23472935293529
 6 -0.10116898589859 -0.02208431353135 -0.06462410241024
 1  13.47978725072507 -0.49894332943294  1.34364920292029
 1  13.13474871087109 -2.29832041314131  1.80049018101810
 1 -14.37142991999200 -0.64480463746375  1.49246645264526
 1 -14.12346371337134 -0.59220614361436 -0.40937255725573
 1  12.64290949294930 -2.78501324442444 -0.65141320632063
 1 -13.11390685168517  1.46528104610461  1.64621409440944
 1  13.92569350135014 -0.24595731583158 -1.25932181618162
 1  13.09372086508651 -1.38320054715472 -2.44418509450945
 1 -13.24437998199820  1.49145046604660 -1.44146207920792
 1 -12.56777538453845  2.82255431943194 -0.21521840484048
 1  11.76768538853885 -0.95408613471347  3.15073973497350
 1  10.07215308030803 -0.47635714581458  3.06004488548855
 1  11.44920419041904  0.63785351825183  2.60121925692569
 1  10.66182518551855 -2.92615319541954  0.37122250825082
 1  10.71628254525453 -3.10992590969097  2.22554247824782
 1  9.55465146614661 -2.40357135023502  1.29248419141914
 1 -12.08353525352535  0.28267383838384  2.42932682568257
 1 -11.10804531353135 -1.43488064306431  2.36128213221322
 1 -12.71930308930893 -1.37670857585759  2.83023561956196
 1 -13.42187196819682 -3.02279353135314  0.94442895189519
 1 -11.76784983298330 -3.18415044304431  0.60149520552055
 1 -12.61642200020002 -2.49408971697170 -0.58363683768377
 1  8.73638546254625 -0.16064438453845  0.86808099209921
 1 -10.24620435243524 -2.24190791479148 -0.47480711371137
 1  10.13109552855286  0.58250834873487 -2.44906960996100
 1  11.62734116911691  1.56466075697570 -2.65161487548755
 1  11.85983021802180  0.11810132303230 -3.34332146214621
 1 -11.16902790979098  1.85896912591259 -2.39168066106611
 1 -9.87266280528053  0.99760039703970 -2.37642224822482
 1 -10.14868662366237  2.50095870887089 -1.54891848784879
 1  14.70571712471247 -3.15082398749875  0.12983487648765
 1 -15.43658309330933  1.69193410741074  1.10834903990399
 1  10.18801428342834  2.20086339023902 -0.82591190619062
 1 -8.59231592859286  0.54062616061606 -0.02191700470047
 1  9.09395225722572  4.29593944684468 -0.22281858485849
 1  7.35582897189719  4.23174858375838  0.20588642164216
 1  8.59265397539754  3.87702058895890  1.49527254525453
 1 -8.36292332233223 -3.22873980308031 -0.00798663766377
 1 -8.13957971397140 -2.86023503760376 -1.76550288028803
 1 -6.60966981598160 -3.29270292239224 -0.84117090909091
 1  6.93988565156516  0.62004574747475 -0.54669806180618
 1 -6.22492275427543  0.26849668956896  0.07226484948495
 1  5.45575495949595  3.28176332423242  0.40331258625863
 1 -5.02724654465447 -2.25915722282228 -0.68313571357136
 1  4.50233333233323  0.53656190209021 -0.50505891689169
 1 -4.10168567256726  0.62830794769477  0.19008180418042
 1  3.45827361236124  3.50318436033603  1.58063426442644
 1  1.75477213021302  3.31881055195520  1.11990439843984
 1  3.00448447044705  4.03428126202620 -0.04352484848485
 1 -2.38915105210521 -3.08775592269227 -0.13939698369837
 1 -3.25144465246525 -2.48239936003600 -1.77898186518652
 1 -1.40238703770377 -2.31503167826783 -1.69153218921892
 1  2.50044720272027 -0.05637428852885 -0.22072997699770
 1 -1.86342574357436  0.94858477637764  0.45603899089909
 1  0.17410315731573  1.88147085298530  0.51374716971697
 1  0.20569333933393 -1.20777072717272 -0.29687727172717

