%nproc=4
%Mem=2GB
# td=(NStates=1) CAM-B3LYP/6-31G(d,p) 

TD

0 1
 8  14.82276049504950 -2.00086755785579 -0.33417227022702
 8 -14.70693729072907  2.05148700470047  0.80256935093509
 6  11.46868016201620 -1.05203583768377  1.20763412441244
 6 -12.29104673667367 -0.90703326332633  0.85536105810581
 6  12.95653438543854 -1.43470650875088  1.14595216721672
 6 -13.54837744674467 -0.02239839983998  0.83195209120912
 6  13.40479247324732 -1.73111863896390 -0.26877176617662
 6 -13.47399973997400  1.47264006200620  0.91525330933093
 6  10.97923644964497 -0.34801901800180  0.00519627362736
 6 -11.30055715671567 -0.22951398039804 -0.15572632663266
 6  13.20948516751675 -0.64650540764076 -1.18071894489449
 6 -12.89028978897890  1.81934991199120 -0.42621966396640
 6  11.69813456045605 -0.10055042814281 -1.13420193619362
 6 -11.68114170417042  0.92613893689369 -0.81811135013501
 6  11.24469519651965 -0.30106926502650  2.52546298729873
 6  10.76324576557656 -2.43642412351235  1.26546466646665
 6 -11.61721391539154 -0.81571339933993  2.15267384738474
 6 -12.63625432743274 -2.32686812981298  0.49534143814381
 6  9.67901272727273  0.34592562946295  0.13643032303230
 6 -10.12778414541454 -1.04345843084308 -0.42535121612161
 6  11.22225499049905  0.55944040894089 -2.36997120412041
 6 -10.78953139213921  1.50659104310431 -1.96642594959496
 6  9.36375634263426  1.65646908480848 -0.04581995599560
 6 -8.83376386138614 -0.55690924792479 -0.36036708270827
 6  7.97151313731373  2.20831057095710 -0.04102843384338
 6 -7.65625076707671 -1.25262959605961 -0.61856718871887
 6  7.93842432343234  3.67832603750375  0.20563192919292
 6 -7.63747485348535 -2.74109385748575 -1.06757693269327
 6  6.85790119711971  1.41740173407341 -0.01546155215522
 6 -6.44658646164616 -0.66200167526753 -0.44206721272127
 6  5.49795034703470  1.91943965086509  0.17883279927993
 6 -5.10041116311631 -1.19934981108111 -0.61797397139714
 6  4.41444537553755  1.17764317821782 -0.04862049104911
 6 -4.04935035503550 -0.46852305840584 -0.20928825882588
 6  3.05115772077208  1.49707030493049  0.14289595459546
 6 -2.65996976097610 -0.96441077117712 -0.35991365136514
 6  2.71134141514151  2.91986143504350  0.57032974197420
 6 -2.31188668266827 -2.40938824092409 -0.77914895489549
 6  2.09885946094609  0.67193435733573 -0.10329945494549
 6 -1.72252357535754 -0.03182347644764 -0.16462828982898
 6  0.64882205120512  0.71733650155016 -0.00387450745074
 6 -0.22904177317732 -0.15352745784578 -0.40909854985499
 1  13.48010728272827 -0.52309574467447  1.32505734373437
 1  13.07582281828183 -2.16124670577058  2.08483861586159
 1 -14.11778455545555 -0.35786594359436  1.77924513051305
 1 -14.24990635763576 -0.28890581358136  0.06146452645265
 1  12.97019222122212 -2.68394313741374 -0.55036310131013
 1 -12.67782324332433  1.74631914991499  1.56525599859986
 1  13.91645257725773  0.15120240014001 -1.00400628462846
 1  13.43520501350135 -0.82160438753875 -2.25991666766677
 1 -13.44387993199320  1.96647796879688 -1.44935286828683
 1 -12.36553516051605  2.92861492549255 -0.28310519351935
 1  11.41686030603060 -0.97978870497050  3.42238689968997
 1  10.13897976297630 -0.04218372847285  2.67772665366537
 1  11.90819008900890  0.63888362126213  2.65798493349335
 1  10.84990399339934 -2.87835841594159  0.30647603360336
 1  11.06030694769477 -3.04190910801080  2.26132605660566
 1  9.69596559755976 -2.23858485158516  1.32831777477748
 1 -11.59612651265127  0.37188275927593  2.52086597959796
 1 -10.64477898689869 -1.17245440044004  2.06973297729773
 1 -11.85100625962596 -1.53105401040104  3.12688528452845
 1 -13.53142292329233 -2.74653590559056  0.84776928592859
 1 -11.79797284528453 -2.86354838283828  0.72236729272927
 1 -12.61572193019302 -2.31028133613361 -0.63121159515952
 1  8.88217004100410 -0.29793811391139  0.65894007800780
 1 -10.29802953495350 -2.11047477147715 -0.33454308730873
 1  10.29758217721772  1.03368346624663 -2.24129883288329
 1  12.00786922192219  1.16994128502850 -2.69066878087809
 1  11.26618085308531 -0.20038052515252 -3.16902403240324
 1 -11.42504351135113  2.10273350235023 -2.68057955095510
 1 -10.33616915591559  0.50864150115012 -2.46775138113811
 1 -10.01673342834284  2.10839945294529 -1.43944754075408
 1  15.19835638863886 -2.68261716681668  0.24693658665867
 1 -15.05133456845684  2.40456537053705  1.72180038503850
 1  9.96527200920092  2.28349165306531 -0.48211752675268
 1 -8.71489818681868  0.54283638163816 -0.14317913091309
 1  8.47572043404340  4.21260111301130 -0.53327963096310
 1  6.90755414441444  4.02169757865787 -0.05333950095009
 1  8.34902961296130  3.86431931883188  1.27819083708371
 1 -8.20439746974697 -3.37131406050605 -0.14041988098810
 1 -8.36795255125513 -2.98019703380338 -1.83010934093409
 1 -6.74790363936394 -3.39701335343534 -1.04436122812281
 1  7.09511117411741  0.40353409630963 -0.09306269826983
 1 -6.37617787978798  0.34546438633863 -0.28651102810281
 1  5.39452883688369  3.01844699259926  0.53444569956996
 1 -5.05354917491749 -2.19303061016102 -1.02020942094209
 1  4.74986808580858  0.15857410331033 -0.53673208420842
 1 -4.18478398239824  0.59474459135914  0.04668746474647
 1  2.97000478547855  3.32187622952295  1.49834603560356
 1  1.74196084908491  3.21503017391739  0.79814222222222
 1  3.10110413241324  3.69500733463346 -0.21217171317132
 1 -2.75584772177218 -3.13623077017702 -0.07239028302830
 1 -2.79624913291329 -2.68074919501950 -1.75163913091309
 1 -1.32101890089009 -2.63690386548655 -0.84286732273227
 1  2.65525268326833 -0.28252690379038 -0.46397430143014
 1 -2.00313971497150  0.96308622652265  0.31880526752675
 1  0.25034078107811  1.76318902480248  0.48008380338034
 1  0.20022279227923 -1.09007895799580 -0.71785936993699

