%nproc=4
%Mem=2GB
# td=(NStates=1) CAM-B3LYP/6-31G(d,p) 

TD

0 1
 8  14.68469668866887 -2.34874234533453 -0.38622747574757
 8 -14.82823942094209  1.73166502250225  0.75008410241024
 6  11.43444673867387 -1.03761439553955  1.27222058305831
 6 -12.35688332033203 -1.02513507350735  0.68647416941694
 6  12.93829256125613 -1.45961900000000  1.06938451045105
 6 -13.66232884188419 -0.29852601260126  0.66927582358236
 6  13.25558755275527 -2.00690621772177 -0.24921981098110
 6 -13.46260860086009  1.22445524352435  0.66900868486849
 6  10.85780430643064 -0.33192740884088 -0.07689193519352
 6 -11.38283538453845 -0.30163119211921 -0.25059581358136
 6  12.98416263526352 -1.02973373047305 -1.32318319131913
 6 -12.85550631063106  1.70677865486549 -0.50563760576058
 6  11.46586133313331 -0.42079245234523 -1.19111762776278
 6 -11.63194678467847  0.93057938093809 -0.72436197519752
 6  11.39569029602960 -0.26752591069107  2.46318675967597
 6  10.55190463146315 -2.32717319841984  1.39940806080608
 6 -11.78537073107311 -1.10606243424342  2.16230481048105
 6 -12.65326602860286 -2.43717916091609  0.16692859685969
 6  9.64284911091109  0.41642267916792  0.18779545954595
 6 -10.03200456745675 -1.01214529952995 -0.42025070607061
 6  11.05353811881188  0.14015848074807 -2.49512371937194
 6 -10.75715815481548  1.63284366836684 -1.70317962496250
 6  9.37563753075307  1.67542097999800 -0.19073444744474
 6 -8.80895138013801 -0.51039459645965 -0.20672171817182
 6  8.09798578457846  2.27481722162216 -0.01678600960096
 6 -7.60259540154015 -1.18104243734373 -0.49105443744374
 6  8.24634511551155  3.80492869776978  0.45934730073007
 6 -7.59881098709871 -2.59644939303930 -0.88800897589759
 6  6.93615902290229  1.73590358425843 -0.15437544354435
 6 -6.51037284028403 -0.62811828692869 -0.31582458845885
 6  5.53695424742474  2.25252295919592  0.06536145214521
 6 -5.08024914691469 -1.19131900800080 -0.41869404340434
 6  4.52047597859786  1.40573598749875 -0.14013964296430
 6 -4.01194661466147 -0.30241644774477 -0.25197252725273
 6  3.13568617361736  1.71593219111911  0.13028469346935
 6 -2.55934969896990 -0.77107143724372 -0.34403206320632
 6  2.90841112211221  3.13299274817482  0.50223293229323
 6 -2.24884037803780 -2.18536583868387 -0.80624166416642
 6  2.20293986898690  0.75541270517052 -0.00556968196820
 6 -1.63215453845385  0.14389409530953  0.05543371637164
 6  0.76732390139014  1.05847061496150  0.10956683668367
 6 -0.12397126612661  0.12539043394339 -0.07662530253025
 1  13.71239051105111 -0.67758119321932  1.06432127012701
 1  13.15396063206321 -2.38870945204521  1.79831996399640
 1 -14.35960873787379 -0.68241839883988  1.65055226122612
 1 -14.29872123912391 -0.57194411741174 -0.04811643164316
 1  12.82716791879188 -2.87501224432443 -0.42439050405040
 1 -12.93701916291629  1.42513703170317  1.62892236523652
 1  13.88883981598160 -0.30242296239624 -1.07985386938694
 1  13.32262375537554 -1.45245747284728 -2.15999667566757
 1 -13.38419396339634  1.48216953795380 -1.23656158915892
 1 -12.62367097409741  2.83299536353635 -0.65733261626163
 1  11.66514513451345 -0.74495522162216  3.33590825182518
 1  10.52381824682468  0.14014450435043  2.68335721672167
 1  11.83701297129713  0.79096882978298  2.51225036003600
 1  10.73349235223522 -2.96655723582358  0.60582596859686
 1  10.76813773077308 -2.65330024712471  2.47465738973897
 1  9.36072207320732 -1.93455444854485  1.55493043604360
 1 -11.54435133513351 -0.11655608460846  2.55406929992999
 1 -10.96036054505451 -1.85323247824782  2.16606261026103
 1 -12.36771793079308 -1.79868077307731  2.72007460346035
 1 -13.33790357135713 -2.81307255925593  0.72124663366337
 1 -11.84179722772277 -3.22681470947095  0.10545560156016
 1 -13.13387374537454 -2.11665197319732 -0.78665713971397
 1  8.78230005400540 -0.04788310841084  0.72654683868387
 1 -10.12280201220122 -2.00748447244725 -0.93427306030603
 1  9.96496891589159  0.60713081098110 -2.54250895389539
 1  11.73931236623662  0.94967925882588 -2.90737045104510
 1  10.86465070007001 -0.82767325442544 -3.23955108510851
 1 -11.28385939293929  1.97525075407541 -2.38004949794979
 1 -10.00983652265227  0.89343998099810 -2.07644225022502
 1 -10.12412416741674  2.57373598659866 -1.46525012101210
 1  14.89971652465247 -2.91974087918792  0.38766065906591
 1 -15.20660009500950  1.69019393339334  1.66912511751175
 1  10.22425790779078  2.43762706660666 -0.45073438843884
 1 -8.76744344134413  0.57902000000000  0.12080726772677
 1  9.05727858985899  4.21038089098910 -0.26214251725173
 1  7.18830221922192  4.39358476737674  0.04056988998900
 1  8.32312702270227  3.95153804070407  1.57529054705471
 1 -8.33483051305130 -3.11839876897690 -0.28235407440744
 1 -8.12915867186719 -2.73762277637764 -1.89511584158416
 1 -6.77679652865286 -3.26996064816482 -1.15045183718372
 1  7.19637130013001  0.80390413331333 -0.66114950695070
 1 -6.43669393139314  0.55446528642864 -0.39345172217222
 1  5.30637002100210  3.21654680258026  0.49194144914491
 1 -5.00998481848185 -2.11218252535254 -0.63365076507651
 1  4.76654975397540  0.30900914681468 -0.31321973297330
 1 -4.13834933893389  0.70414553145315  0.07550034603460
 1  3.40685847084708  3.26099014091409  1.50001620262026
 1  1.92557921092109  3.63004167506751  0.51658406640664
 1  3.43919794179418  3.65134296819682 -0.29850034603460
 1 -2.07092922992299 -3.23951109820982 -0.08935197919792
 1 -2.89019852785279 -2.50493161326133 -1.58527249424942
 1 -1.36495329432943 -2.25269544464446 -1.12156519251925
 1  2.36617377537754 -0.28805745684568 -0.02604050805081
 1 -1.92827222822282  1.31501141904190  0.38533192019202
 1  0.51211695869587  2.27421012691269  0.12823861886189
 1  0.23012578257826 -1.04762471257126 -0.05704328832883

