%nproc=4
%Mem=2GB
# td=(NStates=1) CAM-B3LYP/6-31G(d,p) 

TD

0 1
 8  14.71742996199620 -2.39230670177018 -0.23704255725573
 8 -14.79635623262326  1.73066492249225  0.82479157315732
 6  11.41755504950495 -1.03635426952695  1.28209157015702
 6 -12.25581321332133 -1.05617817781778  0.92644816681668
 6  12.97562629462946 -1.32651568966897  1.14950252225223
 6 -13.62968557755775 -0.38299445944594  0.77462635863586
 6  13.35310730473047 -2.03070859795980 -0.17837272627263
 6 -13.59058139813981  1.07134993299330  0.86271805580558
 6  10.97896642264227 -0.32979719581958 -0.01479572557256
 6 -11.35247234823482 -0.31251228022802 -0.06775752975298
 6  13.02473669266927 -0.94202495959596 -1.22655352835284
 6 -12.81379213921392  1.66734471147115 -0.36935397739774
 6  11.73853860086009 -0.27459783288329 -1.10983949995000
 6 -11.61652524252425  0.86706302930293 -0.72892243124312
 6  11.25572629962996 -0.24042320042004  2.48852929392939
 6  10.65953539453945 -2.36844732583258  1.52348046804680
 6 -11.58959115311531 -0.97240906890689  2.34335291529153
 6 -12.42651335333533 -2.49191463446345  0.50176208020802
 6  9.57864269026903  0.17759879677968  0.12650933093309
 6 -10.12136350335034 -1.01302538753875 -0.47251593259326
 6  11.20794355935594  0.28648311321132 -2.40279448644864
 6 -10.82196463546355  1.49005938993899 -1.89920922792279
 6  9.29998996599660  1.51029446734673 -0.05156053005301
 6 -8.85815630063006 -0.45820937793779 -0.25948699469947
 6  8.00122610861086  2.25342508240824 -0.00197452845285
 6 -7.57404254625463 -1.13911824492449 -0.50987631963196
 6  8.14580506150615  3.72973117801780  0.18655002100210
 6 -7.71522262826283 -2.46475622372237 -1.09584975997600
 6  6.83809921692169  1.54131412531253 -0.16166617261726
 6 -6.40713251625162 -0.46342181728173 -0.42363536953695
 6  5.58644919691969  2.07552525942594  0.10672558855886
 6 -5.17471859385939 -0.93565344144414 -0.68296047004700
 6  4.40585451645164  1.30096551045105 -0.04832046104610
 6 -3.96243166316632 -0.22320852695270 -0.27015434543454
 6  3.10785339033903  1.67694829272927  0.18296996199620
 6 -2.68918268226823 -0.71412574267427 -0.60223788378838
 6  2.85637591859186  3.13746319521952  0.54000670967097
 6 -2.43131862586259 -2.09944724682468 -1.07959899989999
 6  2.06107568256826  0.88752591649165 -0.16896602160216
 6 -1.63546486948695  0.18786849274927 -0.26452827982798
 6  0.70594776377638  1.04603937183718 -0.07606172617262
 6 -0.15876474547455  0.07711560646065 -0.33760140014001
 1  13.57125639763976 -0.31239467456746  1.41933677167717
 1  13.60067530353035 -1.88080866196620  2.07183731573157
 1 -14.32316509350935 -0.88799895689569  1.34528173417342
 1 -14.06755812281228 -0.62597952095209 -0.29306092609261
 1  12.57102230423042 -2.77035177827783 -0.39200726572657
 1 -12.94744020502050  1.31324584258426  1.70823029602960
 1  14.06818775077508 -0.24858757885789 -1.15864174817482
 1  13.34233572657266 -1.39197142424242 -2.21282195819582
 1 -13.62168771277128  1.47108842984298 -1.13570150315031
 1 -12.55258386538654  2.68107017101710 -0.22448933193319
 1  11.55067368736874 -0.89785051115112  3.36260092109211
 1  10.28793465846585 -0.04074358445845  2.79930881188119
 1  11.66794606460646  0.82814254715472  2.66854598959896
 1  10.76821582458246 -2.93403398349835  0.64321970797080
 1  11.11968288528853 -3.01071598869887  2.44440436443644
 1  9.63270927192719 -2.06844783788379  1.47880282328233
 1 -11.39289618961896  0.02938850985099  2.56060995399540
 1 -10.62417692669267 -1.68962611761176  2.43096910091009
 1 -12.29855101410141 -1.44896580158016  3.09275187118712
 1 -13.41785156615661 -2.81216246824682  0.91897640664066
 1 -11.57078012601260 -3.15618764676468  0.88014307030703
 1 -12.42053241124112 -2.38105841384138 -0.63723219721972
 1  8.63120494449445 -0.32567088718872  0.69610379437944
 1 -10.16548628062806 -2.08426215021502 -1.03428306130613
 1  10.14135655465546  0.69650974887489 -2.30091479447945
 1  11.73378181318132  1.19926421732173 -2.30871058505851
 1  11.31738597359736 -0.23712419951995 -3.35177230723072
 1 -11.47493850085008  1.94160738973897 -2.52467396039604
 1 -9.99150468946895  0.95862649964996 -2.39316392239224
 1 -10.36144789978998  2.45637425042504 -1.48638223422342
 1  15.04361091409141 -2.97971687678768  0.36428832183218
 1 -15.22727216221622  1.71662657665767  1.69479768476848
 1  10.23848933093309  2.06017932183218 -0.28043735873587
 1 -8.55775247224722  0.61147324532453 -0.12270708370837
 1  8.56438930093009  4.02364221712171 -0.83252955595560
 1  7.33272666166617  4.34858026692669  0.36114194719472
 1  8.80392510251025  3.87532041894189  1.04981799979998
 1 -8.36231326132613 -3.10272720182018 -0.39976581558156
 1 -8.31536729272927 -2.46421543564356 -2.08205453545355
 1 -6.81460030903090 -3.01111476357636 -1.22747953995400
 1  6.94659632263226  0.48343208610861 -0.30088348034803
 1 -6.59441970397040  0.44928476837684  0.17987561056106
 1  5.36160554455446  2.99249439733973  0.47151940694069
 1 -4.89812363236324 -2.05649695679568 -1.05214261426143
 1  4.58252135113511  0.34204245014501 -0.49510792179218
 1 -4.26968247224722  0.65419053595360  0.15160795679568
 1  3.00950873587359  3.29918396029603  1.65507170817082
 1  1.89678633163316  3.52157082798280  0.28959136713671
 1  3.53039706170617  3.76117395129513 -0.04037453345335
 1 -3.00547268426843 -3.02891003810381 -0.40684372837284
 1 -2.76199570757076 -2.15398651875188 -2.08736270327033
 1 -1.29719651865187 -2.16346652175218 -1.11014405040504
 1  2.17347450545054 -0.15390404150415 -0.37601550555056
 1 -2.03077247824782  1.24108402630263  0.01086447344734
 1  0.30090583758376  1.97090979687969  0.29342513751375
 1  0.01563433343334 -0.91374132423242 -0.74680226422642

