%nproc=4
%Mem=2GB
# td=(NStates=1) CAM-B3LYP/6-31G(d,p) 

TD

0 1
 8  14.74074229322932 -2.13077054815482 -0.34218307130713
 8 -14.65716231323132  2.07558941494149  0.59138823282328
 6  11.36689998399840 -1.08585922002200  1.18645200620062
 6 -12.37399503150315 -0.74310687068707  0.89736525852585
 6  12.88474720672067 -1.43931696979698  1.00803837583758
 6 -13.73325593459346 -0.08736489648965  0.84385328132813
 6  13.28906090009001 -1.92022754985499 -0.30691558055806
 6 -13.45235757575758  1.36673947194719  0.66265804980498
 6  10.91560008600860 -0.29144336043604  0.05978173217322
 6 -11.30751785278528 -0.19783081208121 -0.13774452845285
 6  12.99503372237224 -0.94657541464146 -1.37149802280228
 6 -12.73821458145815  1.74307228422842 -0.57877491949195
 6  11.65007975497550 -0.12314268736874 -1.23584210021002
 6 -11.53998758875888  0.91380770377038 -0.94685422442244
 6  11.27549827682768 -0.17786694479448  2.45527596859686
 6  10.63005244624462 -2.47830831193119  1.25799391939194
 6 -11.71632382638264 -0.82138396639664  2.23984256425643
 6 -12.63657435943594 -2.37277272027203  0.54755665966597
 6  9.65237006300630  0.39523055995600  0.07918459845985
 6 -10.15912727972797 -1.06948103310331 -0.47986666766677
 6  11.15375814081408  0.66518098299830 -2.45537974497450
 6 -10.69672211121112  1.43396378037804 -2.00860016701670
 6  9.36022598959896  1.69106254415442 -0.24980035403540
 6 -8.87647813281328 -0.68232178917892 -0.30757180318032
 6  8.06788277427743  2.29891963186319  0.06914258325833
 6 -7.58750389238924 -1.36376070917092 -0.56849218121812
 6  8.14988546954696  3.72535073997400  0.39347071307131
 6 -7.66467757375738 -2.79094884298430 -0.94216439143914
 6  6.92885829282928  1.59866986088609 -0.05142514851485
 6 -6.39183098609861 -0.74236971207121 -0.32327533353335
 6  5.55936648864887  2.06735444234423  0.17593250925093
 6 -5.12719384138414 -1.20589046514651 -0.55317749174917
 6  4.43868779977998  1.24857027092709 -0.00991662066207
 6 -3.98289370937094 -0.49546575267527 -0.25478280828083
 6  3.03953655865587  1.65312591049105  0.17932959795980
 6 -2.55820958495850 -0.87800213031303 -0.36729438943894
 6  2.72075235623562  3.10119956885689  0.76355906490649
 6 -2.30611610561056 -2.31590889298930 -0.94919595959596
 6  2.07425700070007  0.70747791169117  0.05236611161116
 6 -1.62541386438644 -0.08638893299330 -0.00685251225123
 6  0.64324149314931  0.75534030193019  0.27552343234323
 6 -0.11359022802280 -0.20721282638264 -0.12395003500350
 1  13.61343061506151 -0.67674110921092  1.46440127812781
 1  13.07925316131613 -2.17903848494849  1.62627275927593
 1 -14.09412218921892 -0.23906406340634  1.86323352935294
 1 -14.43970533753375 -0.34170109310931  0.15325370537054
 1  12.89670487248725 -2.89706444954495 -0.41397946294629
 1 -12.82682814381438  1.70261477947795  1.39508898189819
 1  13.73606453845385 -0.12672539263926 -1.28776466046605
 1  13.19730122312231 -1.36920914801480 -2.37980865686569
 1 -13.50100564456446  1.81667298829883 -1.55288322132213
 1 -12.39820842784279  2.70508257225723 -0.51411829482948
 1  11.72883150315032 -0.73073379947995  3.36507116811681
 1  10.21863772877288  0.11182167206721  2.74519340034003
 1  11.55622489248925  0.85337507040704  2.33523265826583
 1  11.05374437743774 -3.27104768486849  0.47289267526753
 1  10.82357327432743 -3.11178609570957  2.32745266926693
 1  9.64881088208821 -2.33033402650265  1.12249719271927
 1 -11.51491839183918  0.22274784578458  2.49933382638264
 1 -10.67608211721172 -1.44173132813281  2.27177318131813
 1 -12.46974813381338 -1.18496940194019  3.02020461646165
 1 -13.47900768176818 -2.76065731773177  0.97340184918492
 1 -11.76756980498050 -3.00289231723172  0.84068912491249
 1 -13.15245560356036 -2.40569087708771 -0.39694816881688
 1  8.76382820682068  0.13267494739474  0.55167935193519
 1 -10.34927465946595 -2.06937066106611 -0.74674430743074
 1  10.14209662866287  0.92014211211121 -2.34930963396340
 1  11.83314174917492  1.39974426532653 -2.32959267326733
 1  11.54793902890289 -0.09226971407141 -3.25038216821682
 1 -11.22333334033403  1.73462669166917 -2.92551404440444
 1 -9.98418395739574  0.72220285728573 -2.24905951195119
 1 -10.14144589958996  2.39070768376838 -1.73936753275328
 1  14.80065661866186 -3.21115002010201 -0.15907401440144
 1 -15.43086252125213  1.83040795479548  1.22046025102510
 1  10.20604608660866  2.45255855975598 -0.61690100510051
 1 -8.65040173717372  0.37114921292129  0.11738692569257
 1  8.99102196419642  4.33130298319832 -0.24306060906091
 1  7.15134852385239  4.10994640354035  0.42699853285329
 1  8.87689239923992  3.80694358125813  1.37276029402940
 1 -8.16863389338934 -3.43929085818582 -0.18647448644864
 1 -8.00955671167117 -2.85600461456146 -2.02439876987699
 1 -6.57239608860886 -3.19504315641564 -0.91087787978798
 1  6.95766742974297  0.40688443134313 -0.57164055605561
 1 -6.51500176217622  0.23074291419142 -0.01992436943694
 1  5.41858124212421  3.00631577947795  0.57220947594759
 1 -5.01072489248925 -2.11463277037704 -0.91588898889889
 1  4.52251535053505  0.26512475837584 -0.38255666666667
 1 -4.06735223922392  0.54572968986899  0.01111390739074
 1  3.09488727372737  3.27529157105711  1.79108530953095
 1  1.64161081408141  3.24901357225723  0.82372478047805
 1  3.02804682668267  4.01369920382038  0.16898640264026
 1 -2.65518765576558 -3.18581572867287 -0.23947699169917
 1 -3.08400790879088 -2.33891501160116 -1.88547251425143
 1 -1.16621342034203 -2.60635081018102 -1.14131716771677
 1  2.46827398539854 -0.14721337243724 -0.35161306530653
 1 -1.54122352335234  1.01449136703670  0.19314270127013
 1  0.10877662466247  1.70668337423742  0.46958275327533
 1  0.31683445344535 -1.11813176327633 -0.60085766976698

