%nproc=4
%Mem=2GB
# td=(NStates=1) CAM-B3LYP/6-31G(d,p) 

TD

0 1
 8  14.62597081608161 -2.32723019411941 -0.49278813181318
 8 -14.77607420442044  1.95461731773177  0.84859395339534
 6  11.57464075807581 -1.04935556965697  1.23364672567257
 6 -12.33831146314631 -0.93832639263926  0.68239376137614
 6  13.04429316131613 -1.29387242534253  0.94952252425243
 6 -13.61607421642164 -0.21095725572557  0.59878877487749
 6  13.25433742774277 -2.00018554565457 -0.39531442044204
 6 -13.53534587458746  1.31890468846885  0.66131791579158
 6  10.93073159915992 -0.33582779887989 -0.01677592359236
 6 -11.35705280628063 -0.22189321832183 -0.34469522352235
 6  12.90267448644864 -0.96634739183918 -1.49570044304430
 6 -12.72483324332433  1.71959993699370 -0.54051109310931
 6  11.61255600260026 -0.28408878197820 -1.23521203720372
 6 -11.66362995299530  0.94039036203620 -0.95343488248825
 6  11.38589931693169 -0.07002616071607  2.41273171417142
 6  10.87608704970497 -2.37789827092709  1.29708782878288
 6 -11.77075926992699 -0.95524735273527  2.13903248324832
 6 -12.58811951395140 -2.41328677167717  0.29066097009701
 6  9.60944577057706  0.33986502340234  0.21494817481748
 6 -10.12459382638264 -1.06299038403840 -0.60003868486849
 6  11.09367213221322  0.44502896779678 -2.42009621662166
 6 -10.65551799079908  1.54913529752975 -1.96415572257226
 6  9.35141510851085  1.61554499239924  0.00792541854185
 6 -8.82948343334333 -0.60546410341034 -0.41933297929793
 6  7.99176516251625  2.22368210811081  0.07910357935794
 6 -7.58701384338434 -1.32229656275628 -0.49049438143814
 6  8.16279676067607  3.76412461736174  0.31787315331533
 6 -7.71000210621062 -2.68645839393939 -0.88163833883388
 6  6.88475388238824  1.50079007290729 -0.01274128012801
 6 -6.39884168716872 -0.75613108820882 -0.26100910691069
 6  5.56364691669167  1.97289499639964  0.17755267126713
 6 -5.08198932093209 -1.21738161426143 -0.28129030303030
 6  4.47430136113611  1.27751316521652 -0.03011864086409
 6 -3.98679409940994 -0.42262846894689 -0.13466079607961
 6  3.11306391139114  1.69866046394639  0.38114977997800
 6 -2.62493625762576 -0.82483681378138 -0.25591325132513
 6  2.92237251825183  3.21763121202120  0.45587829682968
 6 -2.36094158815882 -2.27273457555756 -0.53159419941994
 6  2.10799037403740  0.77321448534853  0.20888176317632
 6 -1.62541386438644  0.20317002290229 -0.06103793079308
 6  0.59054622362236  0.94789955785579  0.18259413941394
 6 -0.25188405740574 -0.02883498859886 -0.10205784578458
 1  13.68425769776978 -0.38987242234223  0.89564440244024
 1  13.69390462646265 -1.94765534663466  1.72126225822582
 1 -14.34867764476448 -0.51985214221422  1.41388859485949
 1 -14.24794616161616 -0.50072699569957 -0.32231385138514
 1  12.53943914591459 -2.91366610971097 -0.48379644464446
 1 -12.99228468946895  1.51316583458346  1.70777025002500
 1  13.68679961196120 -0.09718243834383 -1.47707359135914
 1  12.87177867086709 -1.29100132723272 -2.64771544754475
 1 -13.58710425442544  1.97926924792479 -1.26136406940694
 1 -12.22514112111211  2.87859992399240 -0.40147703070307
 1  11.87629624962496 -0.57410813691369  3.43402806380638
 1  10.21584744974498 -0.10490000010001  2.66383526452645
 1  12.00511978197820  0.93064279717972  2.43922305730573
 1  10.88252725572557 -2.74742532263226  0.39218460446045
 1  11.11410232723273 -3.08064298139814  2.05179510351035
 1  9.87560356135614 -2.27307830093009  1.71816675967597
 1 -11.77307420742074 -0.03075750475047  2.57932182518252
 1 -10.79963447244725 -1.35668282328233  2.21788779277928
 1 -12.28778993799380 -1.60739164416442  2.71556415241524
 1 -13.64385416641664 -2.73378463046305  0.50649515851585
 1 -11.61920496849685 -2.92652468046805  0.50565562156216
 1 -12.98469882788279 -2.33022333033303 -0.88752722672267
 1  9.01166299029903 -0.42817113721372  0.75237942194219
 1 -10.03762349434944 -2.11256498049805 -0.46957659065907
 1  10.27736015501550  0.76476657455746 -2.36373107610761
 1  11.82858129312931  1.24910920182018 -2.74363407740774
 1  10.91986622162216 -0.21629211631163 -3.42018914891489
 1 -11.13388439543954  2.04410763976398 -2.87447894089409
 1 -9.97771331033103  0.83255389238924 -2.29158376437644
 1 -10.20127188218822  2.50588920192019 -1.54219781578158
 1  15.07211376437644 -2.75516442154215  0.41050294329433
 1 -15.30285972097210  1.64905981998200  1.50319852485249
 1  10.08451393339334  2.29249255315532 -0.46571588658866
 1 -8.68167486448645  0.47518961696170 -0.12575738873887
 1  8.67634049604960  4.24487434033403 -0.45276157915792
 1  7.03430681968197  4.32891830073007  0.38473430643064
 1  8.53908861886189  3.91517440434043  1.37313033103310
 1 -8.47981501150115 -3.22884981408141 -0.06150198919892
 1 -8.41046680268027 -2.75383439753975 -1.69508583858386
 1 -6.88219706870687 -3.32950660276028 -0.97441423342334
 1  7.10808247124712  0.33707745064506 -0.26112950495050
 1 -6.65278554055406  0.25614545444544  0.13530115311531
 1  5.21171055505550  3.05033018091809  0.41142339733973
 1 -4.95384920492049 -2.24560586768677 -0.59914731473147
 1  4.42091519051905  0.31357960386039 -0.48254666566657
 1 -4.02131763576358  0.59617473437344  0.18451124712471
 1  3.68773655865587  3.68836287818782  1.19672587358736
 1  1.91131778477848  3.45234390529053  0.91251365936594
 1  3.11258528052805  3.66698453235324 -0.69024952095209
 1 -2.73272540954095 -2.90297744484448  0.20433738973897
 1 -3.02116162416242 -2.46740786088609 -1.41732569956996
 1 -1.29090588958896 -2.47376755185519 -0.93200623662366
 1  2.42982014001400 -0.16832548364837  0.12613470947095
 1 -2.02046144714471  1.21486140404040  0.12388577557756
 1  0.33756950395039  2.01093379927993  0.50952674767477
 1  0.17562033203320 -0.81599154925493 -0.53013059705971

