%nproc=4
%Mem=2GB
# td=(NStates=1) CAM-B3LYP/6-31G(d,p) 

TD

0 1
 8  14.77939615861586 -2.07291476257626 -0.14621347434743
 8 -14.67015361236124  2.09859171517152  0.88539763376338
 6  11.55507880188019 -1.01607224132413  1.27610097109711
 6 -12.36082371437144 -0.77628018801880  0.84379990199020
 6  13.06232496449645 -1.22930596869687  1.16909448144814
 6 -13.67086969596960 -0.10465662566257  1.00611950795080
 6  13.43550554455446 -1.83906943404340 -0.15240012901290
 6 -13.45753809380938  1.46819961796180  0.83489527352735
 6  10.96180470647065 -0.13401761786179  0.06612236623662
 6 -11.39765686668667 -0.27640866986699 -0.15313606760676
 6  13.05283950295029 -0.69404016111611 -1.24697557055706
 6 -12.81789254925493  1.80627860486049 -0.49025606760676
 6  11.76436118311831 -0.13097347044704 -1.08501701770177
 6 -11.54343793379338  0.98481480448045 -0.65372491149115
 6  11.20466119311931 -0.22664182228223  2.54222466346635
 6  10.79270871187119 -2.38396887798780  1.25022314231423
 6 -11.64745693969397 -0.95690751875187  2.19210779077908
 6 -12.78599930193019 -2.27791323432343  0.42986489048905
 6  9.69438426442644  0.47726876377638  0.27314399439944
 6 -10.10943231023102 -1.07379146414641 -0.33013169416942
 6  11.22841560656066  0.59245371027103 -2.31320552755275
 6 -10.61887432643264  1.43500388438844 -1.83747305430543
 6  9.33687365436544  1.62934637253725 -0.17247262126213
 6 -8.86810729572957 -0.58064162116212 -0.23360440644064
 6  8.03871985798580  2.15782552245225  0.06687235623562
 6 -7.61766690869087 -1.36009034213421 -0.48901423342334
 6  7.93036351735174  3.63250145504550  0.55994736073607
 6 -7.84840594659466 -2.68603835193519 -0.88507868286829
 6  6.88657406440644  1.47392738663866 -0.21298130413041
 6 -6.45102690569057 -0.58794426952695 -0.43718672467247
 6  5.51877242924292  1.86289399629963  0.03490840684068
 6 -5.11199232123212 -1.10016989308931 -0.66450862486249
 6  4.44068799979998  1.02177759165917 -0.20244587358736
 6 -4.04273969396940 -0.36848305440544 -0.38955628562856
 6  3.01690429542954  1.41144174207421  0.10198186318632
 6 -2.74183794779478 -0.99042337243724 -0.62708036803680
 6  2.85128540954095  2.89480892979298  0.55748845784578
 6 -2.44457995199520 -2.32966026812681 -1.11290233023302
 6  2.14993456845685  0.51375853975398 -0.24641376637664
 6 -1.71541286428643 -0.06936723082308 -0.30747257425743
 6  0.69132630163016  0.75560032793279 -0.08731285128513
 6 -0.19397826682668 -0.24972707780778 -0.45474311431143
 1  13.42758203020302 -0.35359879497950  1.50608544654465
 1  13.23541877787779 -2.04097467856786  1.83937406940694
 1 -14.15183796079608 -0.36190634763476  2.03078028402840
 1 -14.33898526552655 -0.28943586658666  0.17200558055806
 1  12.99704490649065 -2.73610835393539 -0.35450351535153
 1 -12.87092255325532  1.90818533653365  1.47330680368037
 1  13.64755568756876  0.08830611051105 -1.36458234223422
 1  13.28095958895890 -1.21942416951695 -2.14127480348035
 1 -13.57557310131013  1.59674099509951 -1.46553448644865
 1 -12.35118372537254  2.86425848984898 -0.55368225122512
 1  11.77453607360736 -0.84871559765977  3.25462012301230
 1  10.13937980298030 -0.20034954505451  2.66121500250025
 1  11.53458272827283  0.74040377327733  2.44914404940494
 1  11.10701970497050 -2.86914749484948  0.30658604460446
 1  11.21116203320332 -2.91676659375938  2.08095801980198
 1  9.69143514451445 -2.06250724382438  1.52242718571857
 1 -11.48980588058806  0.10633620462046  2.69025291829183
 1 -10.70386489548955 -1.42660981598160  2.02213821782178
 1 -12.16079723872387 -1.48753965896590  2.95719831583158
 1 -13.73717349834983 -2.56484773677368  0.98959346834683
 1 -11.88189123712371 -2.84579660766077  0.50460551655166
 1 -13.16303666166617 -2.36450675867587 -0.65143361736174
 1  8.88471029502950 -0.10704902500250  0.59602378637864
 1 -10.31586131813181 -1.99572329632963 -0.41699133213321
 1  10.15821824082408  0.88268836673667 -2.19288399139914
 1  11.77220565556556  1.41526581748175 -2.65780549454945
 1  11.49761399639964 -0.00053054015401 -3.33802093209321
 1 -11.15951695869587  2.11433466246625 -2.68105959895990
 1 -9.94860039903990  0.81754239123912 -2.20253485948595
 1 -9.85528728372837  2.17147576057606 -1.23276687268727
 1  15.00774732773277 -2.55043394849485  0.55602749574957
 1 -14.99591902690269  1.89686460046005  1.80288849384938
 1  10.13680916291629  2.24136744064406 -0.73126244124412
 1 -8.83689038603860  0.39604170217022  0.10621580858086
 1  8.69890275227523  4.34303415631563 -0.00148645164516
 1  7.02086547554755  4.20684609350935  0.54848068106811
 1  8.47133184318432  3.66076896379638  1.34590760876088
 1 -8.53692072207221 -3.30270719981998 -0.15476131513151
 1 -8.34189994599460 -2.59863887798780 -1.84916124612461
 1 -6.80751960096010 -3.25238889098910 -1.00440723272327
 1  6.87629929292929  0.44150789368937 -0.46615000700070
 1 -6.55752601460146  0.62468230813081 -0.22527490449045
 1  5.34775415941594  2.93154830273027  0.22909516451645
 1 -5.08932275227523 -2.26035734283428 -1.04911231123112
 1  4.89735283428343 -0.06341809590959 -0.69993840484048
 1 -4.01284678867887  0.53046816371637  0.01375417141714
 1  3.69852763776378  3.29841388328833  1.25773197419742
 1  1.83129978297830  3.32111078197820  0.74039644764476
 1  3.18079210121012  3.50230806470647 -0.56553704970497
 1 -2.78767090409041 -3.22151929902990 -0.41039408340834
 1 -2.79240874887489 -2.21179229932993 -2.11639560656066
 1 -1.42051885088509 -2.50394056915692 -1.16851988798880
 1  2.40603776177618 -0.67980663176318 -0.43150105410541
 1 -1.89313871487149  0.82436235413541 -0.24679129212921
 1  0.32065781278128  1.71433413931393  0.13286908190819
 1  0.25243801380138 -1.18723867396740 -0.84175175917592

