%nproc=4
%Mem=2GB
# td=(NStates=1) CAM-B3LYP/6-31G(d,p) 

TD

0 1
 8  14.66475469446945 -2.30567803890389 -0.28615746874687
 8 -14.77804440144014  1.79008086408641  0.68156725072507
 6  11.29116241024102 -1.08546918101810  1.26268962996300
 6 -12.30956858885889 -1.00343290329033  0.78842436443644
 6  12.85843457545755 -1.45323836193619  1.16050362236224
 6 -13.63506611561156 -0.33964012401240  0.75259415541554
 6  13.20886288028803 -1.92422794989499 -0.32814770377038
 6 -13.62440478047805  1.23691648964896  0.60082186618662
 6  10.87667619361936 -0.35730994709471 -0.14864911091109
 6 -11.28771587258726 -0.31296232523252 -0.23084383838384
 6  12.90777499649965 -0.90114087118712 -1.29694056705671
 6 -12.83349410941094  1.66451442844284 -0.56499354135414
 6  11.62026677367737 -0.21136150925093 -1.23885240124012
 6 -11.66947053705371  0.76675299829983 -0.94665420442044
 6  11.06216694369437 -0.31865102320232  2.49926036703670
 6  10.53951339233923 -2.46192667376738  1.23036115611561
 6 -11.63711590559056 -0.78695052305231  2.22723130313031
 6 -12.40086078807881 -2.45182062506251  0.50880278427843
 6  9.58708353435344  0.25581661856186 -0.05856917691769
 6 -10.02414378137814 -0.94129821482148 -0.47735641664166
 6  11.14810757575758  0.39938440334033 -2.52274648164816
 6 -10.76892933193319  1.40477086108611 -2.16672597959796
 6  9.41444141114111  1.67120055795580 -0.12697807180718
 6 -8.80102058705871 -0.40505406240624 -0.26673771977198
 6  8.07486347234723  2.24305404530453  0.16952262126213
 6 -7.55930107210721 -1.15861019411941 -0.40462579457946
 6  8.06037651865187  3.69271747664766  0.59955132113211
 6 -7.65646675267527 -2.57001674977498 -0.74793496849685
 6  6.96713212021202  1.62504249814981 -0.16699670567057
 6 -6.41245304830483 -0.64335981108111 -0.17427043304330
 6  5.65037558955896  2.12173988088809  0.08208312431243
 6 -4.98883000500050 -1.13611348744874 -0.28890106410641
 6  4.47962189318932  1.33801921582158 -0.17082271127113
 6 -3.91629704970497 -0.36942314841484 -0.08247557755776
 6  3.10886349134914  1.73525412331233  0.15449711471147
 6 -2.54942870687069 -0.73285761586159 -0.33743140314031
 6  2.86202648364836  3.00819026792679  0.80992370137014
 6 -2.25743123712371 -2.16521382348235 -0.90296133613361
 6  2.15592516751675  0.82227939183918 -0.12390151515152
 6 -1.60346166916692  0.15748545444544 -0.21118294529453
 6  0.73091026002600  1.04586935483548  0.05342122212221
 6 -0.19767863686369  0.08851674657466 -0.22791043104310
 1  13.41272054405441 -0.41646508160816  1.21585642364236
 1  13.04024926092609 -2.29697027812781  1.78642877487749
 1 -14.02588536553655 -0.74419457645765  1.75535274127413
 1 -14.29824119111911 -0.79585650865087 -0.00285190519052
 1  12.38036323832383 -2.75092983608361 -0.43916198119812
 1 -12.72299776077608  1.52837735573557  1.40458993199320
 1  13.81726265826583 -0.24807752785279 -0.89031491549155
 1  13.20911240424042 -1.18467069416942 -2.50353102910291
 1 -13.45160070407041  1.63746506750675 -1.48333626662666
 1 -12.57528613561356  2.75414747874787 -0.45122200520052
 1  11.53374199419942 -0.84821554765477  3.17079174017402
 1  9.97179304430443 -0.01322083218322  2.72063094409441
 1  11.58843811381138  0.76976670957096  2.44118325332533
 1  10.85735473847385 -3.08548912901290  0.47512289828983
 1  10.92291320832083 -2.91914683178318  2.05695561956196
 1  9.44711071207121 -2.25089608270827  1.11900684368437
 1 -11.89111601160116  0.20384595559556  2.69317321032103
 1 -10.52616712571257 -0.99695685068507  2.20296630063006
 1 -12.24659581858186 -1.52217312231223  2.84241683768377
 1 -13.06124590559056 -2.79336058805881  1.24130863986399
 1 -11.41420446844684 -2.74224625262526  0.77473252925293
 1 -12.81071142914292 -2.78678898689869 -0.46479495349535
 1  8.88461028502850 -0.36822514261426  0.22121630563056
 1 -10.11480121212121 -2.00826455045505 -1.00404003700370
 1  10.02413483248325  0.66167626552655 -2.58089279227923
 1  11.81145958095810  1.26233052395240 -2.78222793679368
 1  11.20138437343734 -0.46215670277028 -3.31918904890489
 1 -11.53543455045505  1.73588681768177 -2.87384887788779
 1 -9.90699623862386  0.61279191619162 -2.38490309630963
 1 -10.42504425942594  2.38110672367237 -1.74255785178518
 1  14.72019857285729 -3.21046995209521  0.16714860786079
 1 -15.27039647464746  1.81642655665567  1.62287049204921
 1  10.21692717471747  2.44570787468747 -0.42026134113411
 1 -8.79864656165616  0.39659175717572 -0.12104691769177
 1  8.75686854885489  4.27636748964896  0.01044474147415
 1  6.96508989798980  4.01366677557756  0.59698553155316
 1  8.36522123212321  3.56690957785779  1.68688170617062
 1 -8.35530256025602 -3.06951388048805  0.00678483948395
 1 -8.08518427442744 -2.54529354345435 -1.71635796579658
 1 -6.67942679167917 -3.20647429952995 -0.82002879487949
 1  7.25137680068007  0.60949469236924 -0.55183857585759
 1 -6.21132139413941  0.40951079097910  0.25161278427843
 1  5.45940532453245  3.17649279717972  0.55106736173617
 1 -4.85551937193719 -2.28767007410741 -0.63676107610761
 1  4.78856195519552  0.27636588248825 -0.32781119211921
 1 -3.97507301130113  0.81352646954695  0.20751354735474
 1  3.31171895689569  3.13614765666567  1.94192039303930
 1  1.84229088208821  3.28029670057006  0.77883029102910
 1  3.24500852285228  4.07334516841684  0.39027853185319
 1 -2.85728786578658 -2.98827597469747 -0.28334137813781
 1 -2.86877638563856 -2.58468958905891 -1.92860682768277
 1 -1.18053485248525 -2.38530870597060 -0.95109814581458
 1  2.51391854985499 -0.08622727382738 -0.59461736573657
 1 -2.14578397939794  0.93119303720372  0.36167955495549
 1  0.53386913391339  2.11753445934593  0.06757255225523
 1  0.28278104810481 -0.82774272437244 -0.52599018301830

