%nproc=4
%Mem=2GB
# td=(NStates=1) CAM-B3LYP/6-31G(d,p) 

TD

0 1
 8  14.74040225922592 -2.16167363846385 -0.42864171717172
 8 -14.89643624062406  1.93651550755076  0.63178227222722
 6  11.44629792379238 -1.11142177627763  1.19505286628663
 6 -12.37873550555056 -0.87697025702570  0.74865038703870
 6  12.90039877187719 -1.40711374947495  1.03508108010801
 6 -13.71990459945995 -0.31979813981398  0.61941083708371
 6  13.25823781778178 -1.87991351845185 -0.30091498049805
 6 -13.60004234423442  1.22982578057806  0.57957974197420
 6  10.95015354135414 -0.37134135023502 -0.05638988498850
 6 -11.31510861186118 -0.19828085708571 -0.08097885188519
 6  12.96317053605360 -0.85986674377438 -1.44484535753575
 6 -12.66421718171817  1.67919589658966 -0.64764180618062
 6  11.61460620762076 -0.25262563566357 -1.17380589658966
 6 -11.41278486848685  0.93347967096710 -0.83555309430943
 6  11.23019374637464 -0.34105326342634  2.45609605060506
 6  10.65804524552455 -2.37749823092309  1.36817493749375
 6 -11.74249644364436 -0.84279610761076  2.09403798379838
 6 -12.60297099909991 -2.39435487848785  0.43128503250325
 6  9.61683650965097  0.35186622352235  0.06857353735374
 6 -10.03673504050405 -1.00062414741474 -0.26406508750875
 6  11.04323708870887  0.47330179507951 -2.31197540454045
 6 -10.52200463946395  1.50125050905091 -1.84257356435644
 6  9.36454642164216  1.62861629952995 -0.07120249424942
 6 -8.78162864786479 -0.55126868386839 -0.19109015501550
 6  7.96761274727473  2.22787252715272  0.12989865886589
 6 -7.55696083808381 -1.36346067916792 -0.36301163316332
 6  8.06465694669467  3.73545175007501  0.41942330833083
 6 -7.65890699669967 -2.65592534063406 -0.92043221822182
 6  6.84260966796680  1.47700769466947 -0.07397740374037
 6 -6.44338614161416 -0.56394186928693 -0.26930993699370
 6  5.52836338833883  2.05107281418142  0.14932984898490
 6 -5.06375749774977 -1.09240911701170 -0.38073024702470
 6  4.39195312631263  1.22607802170217  0.02770714171417
 6 -3.91615703570357 -0.37935414151415 -0.19669699969997
 6  3.10013261826183  1.73656425432543  0.07568923392339
 6 -2.59375313931393 -0.86902123222322 -0.27400506050605
 6  2.87960824182418  3.08571802070207  0.54621733073307
 6 -2.31768726272627 -2.22553985608561 -0.84937597759776
 6  2.06782635763576  0.82605976987699 -0.13392251725173
 6 -1.51470279327933  0.00176988288829 -0.00069189618962
 6  0.67185435443544  0.94207897579758  0.00501638163816
 6 -0.15852472147215 -0.08353045814581 -0.27313495349535
 1  13.54642391439144 -0.57389082418242  1.24069890789079
 1  13.05081031703170 -2.07707828892889  1.92226235823582
 1 -14.47351012801280 -0.53052320932093  1.47232443844384
 1 -14.20430179717972 -0.76255317831783 -0.44046566656666
 1  12.70697589958996 -2.79278402150215 -0.51161922692269
 1 -13.05058051905191  1.62344686268627  1.65219469246925
 1  13.68408934093409 -0.20484320442044 -1.68229411341134
 1  12.85615710871087 -1.31578380548055 -2.29707038303830
 1 -13.25303084708471  1.78484980598060 -1.62820075307531
 1 -12.43442204920492  2.77773983798380 -0.46344322732273
 1  11.71109972997300 -0.82199292539254  3.27018167916792
 1  10.15879174417442 -0.44221373147315  2.89613849484949
 1  11.58837810781078  0.54296402930293  2.14833396839684
 1  10.86486548954895 -2.88833941404140  0.49766515251525
 1  10.99469038603860 -3.04421933903390  2.08468839283928
 1  9.51656765776578 -2.22354334743474  1.56168111111111
 1 -11.59234613461346  0.07108267926793  2.52480637363736
 1 -10.72849735873587 -1.49326648164816  2.13565956995700
 1 -12.42732389138914 -1.25783668866887  2.90013260926093
 1 -13.55852563356336 -2.85141639363936  1.03763827282728
 1 -11.68044109210921 -2.81737376537654  0.64382943894389
 1 -12.79784014201420 -2.32310261826183 -0.55266374037404
 1  8.78691051505150 -0.05301362146215  0.63534771877188
 1 -10.08553828582858 -1.98446217021702 -0.42862249524952
 1  9.83027544654465  0.52809290719072 -2.40585528852885
 1  11.63774220922092  1.31248553945395 -2.33230294429443
 1  11.46879111411141  0.02109162206221 -3.40730786078608
 1 -10.97803881088109  1.98906213521352 -2.62484397739774
 1 -9.80857639663967  0.64559519651965 -2.23607821382138
 1 -9.93555531053105  2.35782439543954 -1.67751134713471
 1  14.94523107610761 -2.77233613871387  0.32084397739774
 1 -15.38299773477348  1.62550746474647  1.38534673967397
 1  10.10598608060806  2.42460576447645 -0.58899821482148
 1 -8.58677537453745  0.52214431243124  0.26273146014601
 1  8.52871573357336  4.03970382328233 -0.45441174417442
 1  7.01790517951795  4.16129153805381  0.80638647164716
 1  8.63877858785878  3.96877976487649  1.30603362136214
 1 -8.04485151515151 -3.28616554565457 -0.02458829782978
 1 -8.12854861086109 -2.90550956505651 -2.01549787978798
 1 -6.76358520752075 -3.02590624272427 -1.07306409840984
 1  6.82343400640064  0.46543028592859 -0.33732712471247
 1 -6.27621788378838  0.35648548844884  0.18297592059206
 1  5.51932131613161  3.23664881278128  0.49228148314832
 1 -4.95836965696570 -2.11556286338634 -0.81132853285329
 1  4.75053815281528  0.31894013991399 -0.69337774877488
 1 -4.04403990799080  0.66145126202620  0.27489028502850
 1  2.95143292829283  3.21418546044604  1.72517871887189
 1  1.69454610761076  3.49827849874988  0.52841524952495
 1  3.62234625662566  3.78591642554255  0.15640514451445
 1 -2.97852998999900 -3.06649379647965 -0.34546759075908
 1 -2.57010651865187 -2.41194231433143 -2.02695666266627
 1 -1.26730352935294 -2.62052222732273 -0.36796983298330
 1  2.32938009600960 -0.12145079617962 -0.48529643364336
 1 -1.88558795979598  0.90926084398440  0.42479586658666
 1  0.15690143714371  1.80900360626063  0.43195899089909
 1  0.36571934193419 -0.95827577767777 -0.83212079607961

