%nproc=4
%Mem=2GB
# td=(NStates=1) CAM-B3LYP/6-31G(d,p) 

TD

0 1
 8  14.51455967496750 -2.51366883798380 -0.43210206320632
 8 -14.77151374837484  1.85461731773177  1.02738183218322
 6  11.34615790979098 -0.91170180428043  1.34157751875188
 6 -12.23570120212021 -0.95361792179218  0.75625114711471
 6  12.85237396939694 -1.45949898799880  1.11921949394939
 6 -13.51794440344034 -0.20035619561956  0.73685258125813
 6  13.08024001800180 -1.99232475957596 -0.20428531753175
 6 -13.47961030103010  1.35385818381838  0.90716250025002
 6  10.84167269326933 -0.29849406550655 -0.05588983498350
 6 -11.25860296129613 -0.34876590559056 -0.22041279527953
 6  12.97111133013301 -0.90384114121412 -1.23931480448045
 6 -12.65854661466147  1.76018399539954 -0.42259930193019
 6  11.56654140114011 -0.26912728582858 -1.22635115111511
 6 -11.56430002000200  0.86222254525453 -0.78565810481048
 6  11.39546027302730 -0.00590974907491  2.49182962396240
 6  10.45188462946295 -2.25572605370537  1.61976009600960
 6 -11.66906910091009 -1.00260208820882  2.14192277227723
 6 -12.54326502850285 -2.42815825882588  0.30110201420142
 6  9.52643746974698  0.33925496239624  0.20335701570157
 6 -10.09991135813581 -1.09125321032103 -0.52379106010601
 6  11.03157592259226  0.41024548944894 -2.49515372237224
 6 -10.68991143014301  1.44498488248825 -1.72888219521952
 6  9.42149211621162  1.62760619851985 -0.18693406740674
 6 -8.77069755475548 -0.57046060306031 -0.33850489648965
 6  8.07968395439544  2.27370711061106  0.00700636963696
 6 -7.52664780678068 -1.24480881398140 -0.51680701270127
 6  8.19836031703170  3.75765397029703  0.20964233023302
 6 -7.56241734773477 -2.67796754485449 -1.12273244824482
 6  6.95223063006301  1.57609760366037 -0.18305831183118
 6 -6.36042784578458 -0.58389386448645 -0.39687269326933
 6  5.59504005600560  2.07341504840484  0.15358027402740
 6 -5.04688581058106 -1.02502237833783 -0.60548272227223
 6  4.45680961196120  1.23270868476848 -0.01700732973297
 6 -3.94323974397440 -0.39379558565857 -0.27086441644164
 6  3.06226883188319  1.66145674357436  0.18261992699270
 6 -2.60825458945895 -0.72085641574157 -0.51322898289829
 6  2.74352463346335  3.02047149604960  0.70207291629163
 6 -2.35136063006301 -2.20036733883388 -0.75528656865687
 6  2.13812338733873  0.71731889578958 -0.04340346534653
 6 -1.61404272727273  0.16019572547255 -0.27335916291629
 6  0.71598876787679  0.88751351925193  0.09019489948995
 6 -0.14186305530553 -0.04479658475848 -0.29776741674167
 1  13.36701597359736 -0.41082451755176  1.31225606360636
 1  13.18022325832583 -2.06602718381838  2.02298243024302
 1 -14.24370714771477 -0.69618977597760  1.50161736773677
 1 -13.86148751575158 -0.36148307130713 -0.23404502450245
 1  12.58077327932793 -2.92177692079208 -0.46953501850185
 1 -12.83502896389639  1.79934445244524  1.73643311631163
 1  13.74705563756376 -0.27131985208521 -1.10926681068107
 1  12.98290978397840 -1.18680090719072 -2.23238391439144
 1 -13.16985252925292  1.83850517151715 -1.37582551555155
 1 -12.20749935693569  2.73228529252925 -0.22697958095810
 1  11.65564418441844 -0.56726745284528  3.47500216121612
 1  10.35513137813781  0.51557204710471  2.73638251925192
 1  11.89567883788379  0.87426715961596  2.30469960496050
 1  10.90969997299730 -3.18467904800480  0.99752513851385
 1  10.72407332433243 -2.48690360746075  2.80578050205021
 1  9.24896089708971 -2.11296228932893  1.47510245324532
 1 -11.44968186818682  0.03445901690169  2.60649454245425
 1 -10.85023953295330 -1.59200635563556  2.17596360036004
 1 -12.28562972197220 -1.53065397039704  3.01665426142614
 1 -13.58519830083008 -2.58827007900790  0.80443495249525
 1 -11.66293934193419 -3.10938296629663  0.25139019501950
 1 -12.90251060906091 -2.31249155715572 -0.75965443944394
 1  8.76621844584458 -0.03327164726473  0.76960114411441
 1 -10.22972270427043 -2.11147487148715 -0.94827446044604
 1  10.03913633263326  0.60732082998300 -2.20269497249725
 1  11.76936537153715  1.27273156405641 -2.78485819981998
 1  11.00204443944394 -0.21502198929893 -3.43176030603060
 1 -11.27132813981398  1.89879310831083 -2.64033552655266
 1 -10.17640317931793  0.85753639063906 -2.21027563356336
 1 -10.17843959895990  2.15042365536554 -1.38886248224823
 1  14.64340089308931 -3.14566347144715  0.38150004300430
 1 -15.08010744574457  1.67599251325132  1.92014021902190
 1  10.23720920292029  2.23721702560256 -0.62360167516752
 1 -8.74662135913591  0.50170226822682  0.00325551255126
 1  8.76472933493349  4.16307616051605 -0.63074937793779
 1  7.14535792479248  4.27573298219822  0.26416224922492
 1  8.86522123212321  3.94686757365737  1.14293731173117
 1 -8.11424845484548 -3.31975890499050 -0.39301514051405
 1 -8.10658641464146 -2.62582159625962 -2.12492882288229
 1 -6.49354820382038 -3.02677632973297 -1.20479727172717
 1  6.86022768576858  0.49371311421142 -0.44869826182618
 1 -6.70861112311231  0.51115095499550 -0.28593097009701
 1  5.32071145514551  3.05194034193419  0.56311856685669
 1 -4.98948276827683 -1.98597990509051 -1.21740914091409
 1  4.44136723572357  0.29323756965697 -0.48670708170817
 1 -4.20501600560056  0.57314243114311  0.19724252025202
 1  3.54224200920092  3.24215825772577  1.42871907290729
 1  1.60747740074007  3.14157282818282  1.03683609160916
 1  2.80284430643064  3.90681851575158 -0.01392188818882
 1 -2.52173431043104 -3.07396454355436 -0.05923896789679
 1 -2.75433494149415 -2.62075319541954 -1.63579754675468
 1 -1.27705450445045 -2.42399257435744 -1.10534357035704
 1  2.48655581358136 -0.21946059715972 -0.51203910791079
 1 -1.76006540754075  1.28440835873587 -0.03933054605461
 1  0.32628837583758  1.87176988288829  0.19052484748475
 1  0.04292706270627 -1.05199514961496 -0.62055963996400

