%nproc=4
%Mem=2GB
# td=(NStates=1) CAM-B3LYP/6-31G(d,p) 

TD

0 1
 8  14.67484570357036 -2.20462793389339 -0.23086193919392
 8 -14.77859445644564  2.03969582558256  0.68837793179318
 6  11.46029932393239 -1.16613724782478  1.15678903990399
 6 -12.34397202920292 -0.93329588958896  0.75362088408841
 6  12.95582431443144 -1.50942398049805  1.10763833583358
 6 -13.71317392639264 -0.16954311431143  0.75753464946495
 6  13.34817681168117 -1.98665419251925 -0.25139002800280
 6 -13.61254359435944  1.32035483348335  0.70291207520752
 6  11.00974950095010 -0.35726994309431 -0.01040528652865
 6 -11.18216531753175 -0.21835286428643 -0.20456121012101
 6  13.00396461546154 -0.93354411151115 -1.22925379837984
 6 -12.75652641264126  1.72093007000700 -0.49240628262826
 6  11.69165391239124 -0.17840821392139 -1.13414193019302
 6 -11.52748633863386  0.92080840384038 -0.74795433443344
 6  11.15963669066907 -0.40449960806081  2.45721616261626
 6  10.59801924292429 -2.51666214731473  1.28244636463646
 6 -11.90725291929193 -1.11475330333033  2.27178575857586
 6 -12.52613331533153 -2.39761520452045  0.18958086208621
 6  9.65409023502350  0.43037407430743  0.06282296229623
 6 -9.99830119711971 -0.96278036303630 -0.30006868786879
 6  11.23079584458446  0.65826029092909 -2.28316252325233
 6 -10.67763020202020  1.59354973897390 -1.69155846284628
 6  9.40986095309531  1.72821625952595 -0.16410178417842
 6 -8.75337582258226 -0.51063462046205 -0.02440348634863
 6  8.03965995199520  2.36409614951495  0.07968363736374
 6 -7.59246438843884 -1.32503683678368 -0.41424675667567
 6  8.09966044704471  3.83089129402940  0.56488785478548
 6 -7.70205131113111 -2.73628337643764 -0.88807898289829
 6  6.94540994799480  1.56114610851085 -0.10813081908191
 6 -6.38355015801580 -0.71055653075308 -0.26886989298930
 6  5.59540009200920  2.09125683258326 -0.00350543454345
 6 -5.07741886388639 -1.21124100020002 -0.46341851585159
 6  4.51851578257826  1.34683009690969 -0.15048067706771
 6 -3.92690811081108 -0.47257346344634 -0.25602293229323
 6  3.03839644464446  1.69537013491349  0.01489315431543
 6 -2.54499826382638 -0.81865619571957 -0.31305896589659
 6  2.66673695469547  3.01584103300330  0.24692740174017
 6 -2.35563105710571 -2.25961326342634 -0.74542558255826
 6  2.07031660666067  0.70588775267527 -0.26468559355936
 6 -1.61747307030703  0.12376208210821 -0.20100192719272
 6  0.61340850985099  0.94070883878388 -0.06901102110211
 6 -0.27687655665567 -0.10639274437444 -0.28239587958796
 1  13.46326559855986 -0.56734016911691  1.20499533753375
 1  13.24916015201520 -2.13315389648965  1.99196932893289
 1 -14.28789156615662 -0.45116527352735  1.47115432143214
 1 -14.38278964596460 -0.38802572557256 -0.18898051805181
 1  12.81456665866587 -2.84965970907091 -0.47122518751875
 1 -13.22015747674767  1.77105162316232  1.52605207820782
 1  13.78133906590659 -0.14423714381438 -1.24393027702770
 1  13.13944543754375 -1.27638986608661 -2.22223289928993
 1 -13.60071561556156  1.20979230023002 -1.30688862186219
 1 -12.66089469646965  2.90217228122812 -0.54004088708871
 1  11.46283490349035 -0.86946767286729  3.52607726872687
 1  10.09225509050905 -0.05588509860986  2.81603048404841
 1  11.62419168916892  0.61318105100510  2.49095823082308
 1  10.98272727572757 -3.22308288838884  0.48832421842184
 1  10.91498241524152 -3.03854877197720  2.28018794279428
 1  9.46572257325733 -2.16649764286429  1.38663360636064
 1 -11.72576947694769 -0.05761019001900  2.94509840284028
 1 -10.84642915191519 -1.52930008500850  2.29493549754975
 1 -12.59759091809181 -1.74686559155916  2.86897949394939
 1 -13.25757553855385 -2.70755200720072  0.89498400740074
 1 -11.70128317631763 -3.17186921492149  0.35373042904290
 1 -12.80394075207521 -2.29916022402240 -0.82785125912591
 1  8.94179600360036 -0.16820514061406  0.69449363336334
 1 -10.08787851985199 -1.92538626262626 -0.63994362736274
 1  10.18615103410341  0.77876797469747 -2.25503020602060
 1  11.66816525152515  1.68264255515552 -2.32768248224823
 1  11.66257049204921  0.32694220712071 -3.45399252925293
 1 -11.23871487848785  2.09742297129713 -2.65175666866687
 1 -10.00077561656166  0.82102273927393 -2.03407801380138
 1 -10.09445120012001  2.48659727272727 -1.40127372337234
 1  14.85870242324232 -3.07483638873887  0.30584247724772
 1 -15.15256469146914  1.68197311131113  1.51774997999800
 1  10.17418290029003  2.34377768166817 -0.36779609460946
 1 -8.86220291729173  0.57200929892989  0.24535972297230
 1  8.39006186818682  4.33508336123612 -0.28850515351535
 1  7.12050543954395  4.32882829172917  0.99296512951295
 1  8.94973968396840  3.78631151805181  1.34238725672567
 1 -8.70117714771477 -3.11239816891689 -0.25727156615662
 1 -7.89673542954295 -2.77202621672167 -2.02398872887289
 1 -6.86282513151315 -3.52468612071207 -0.64283107510751
 1  6.99820148314832  0.54549829272927 -0.33907729972997
 1 -6.38002826482648  0.26081592149215  0.38949657265727
 1  5.35997538153815  2.98290343824382  0.28774102910291
 1 -4.93780760076008 -2.22884419151915 -0.86894429442944
 1  4.61335443444344  0.29723796969697 -0.54090250125013
 1 -4.00538604260426  0.60982609950995  0.11017381338134
 1  3.01101888688869  3.31822586448645  1.20259646064606
 1  1.51007766076608  3.17602627352735 -0.12738033003300
 1  3.26294031603160  3.69841767566757 -0.40978147414741
 1 -2.74388652565256 -3.03555070217022  0.09050600660066
 1 -2.93762327032703 -2.50221134123412 -1.77978194519452
 1 -1.33274007300730 -2.33767394249425 -1.05255829182918
 1  2.23542070007001 -0.34690334143414 -0.47942584658466
 1 -2.07434683568357  1.11564148204821 -0.08095470847085
 1  0.30237598459846  1.73998670457046  0.37251304630463
 1  0.01228399839984 -1.27041699179918 -0.36154373837384

