%nproc=4
%Mem=2GB
# td=(NStates=1) CAM-B3LYP/6-31G(d,p) 

TD

0 1
 8  14.57785600460046 -2.28626609770977 -0.47321617461746
 8 -14.57336393339334  2.11745360136014  0.55337443144314
 6  11.48133142714271 -1.11662229632963  1.26502986398640
 6 -12.22427005900590 -0.87092965296530  0.87819334133413
 6  12.83645237723773 -1.52237527562756  1.00855842784278
 6 -13.62395500450045 -0.19800596059606  0.72219111511151
 6  13.18179017301730 -1.94801032813281 -0.43780866986699
 6 -13.44934727472747  1.26630942894289  0.70877266126613
 6  10.82656118211821 -0.25083930003000  0.04915066906691
 6 -11.27619472047205 -0.33025405440544 -0.23137389138914
 6  12.82487670667067 -0.87881863896390 -1.38640951395140
 6 -12.52687344734474  1.79695767276728 -0.55197223922392
 6  11.46659140614061 -0.21986235933593 -1.22253076907691
 6 -11.41323491349135  0.80399672267227 -0.84641418041804
 6  11.32957368436844 -0.32171132923292  2.55614605560556
 6  10.54932437343734 -2.44110459155916  1.31998011801180
 6 -11.73779597359736 -0.78721054905491  2.28211679167917
 6 -12.56077677967797 -2.43071851485149  0.56087799179918
 6  9.61224605060506  0.35080611751175  0.18961564156416
 6 -10.05711707870787 -1.18293237823782 -0.40808948994899
 6  11.01942470747075  0.59918438333833 -2.43924813181318
 6 -10.58154059305931  1.30340072407241 -2.01896120312031
 6  9.26618658565857  1.67872131003100  0.02030665666567
 6 -8.79927041204120 -0.60190374737474 -0.30185123112311
 6  8.01488747474747  2.28684842474247  0.15096076507651
 6 -7.62645778777878 -1.37954228732873 -0.46940227222722
 6  8.04534501550155  3.71872007690769  0.44644601060106
 6 -7.59397050305031 -2.74018376647665 -0.82746292129213
 6  6.91467687468747  1.56437643154315 -0.13918392439244
 6 -6.40294209720972 -0.61414688978898 -0.47328033403340
 6  5.53038359035904  1.97232493939394  0.09746466246625
 6 -5.08111923392339 -1.15425530163016 -0.58950112411241
 6  4.40658458945895  1.28727414131413  0.02039641064106
 6 -4.01084650465047 -0.41482768886889 -0.13343067306731
 6  3.09120172517252  1.67993859175918  0.13968563356336
 6 -2.57905166916692 -0.87234156425643 -0.45817347734774
 6  2.79929021002100  3.22184163306331  0.58509121812181
 6 -2.25086058005801 -2.24992229432943 -0.87695873587359
 6  1.99952952795279  0.89853701760176 -0.01154027902790
 6 -1.61995331833183  0.12607231313131 -0.18702052905291
 6  0.64260142914291  1.02743751165117  0.22412829282928
 6 -0.16863573257326  0.00325822072207 -0.15235287528753
 1  13.60599987198720 -0.67587102220222  1.04506934493449
 1  13.23624886088609 -2.35774635573557  1.77685781778178
 1 -14.40954373137314 -0.30412056905691  1.44061126712671
 1 -14.14984635163517 -0.45248217121712 -0.11775339533953
 1  12.63876907890789 -2.92877762086209 -0.52880094509451
 1 -13.06751221222122  1.46862138013801  1.63948342134213
 1  13.76278721072107 -0.06497921802180 -1.43066895089509
 1  12.67057855085508 -1.09829205630563 -2.56110678667867
 1 -13.16931247524752  1.75415673667367 -1.37592552555255
 1 -12.20095870287029  2.75155721972197 -0.21191807480748
 1  12.04346296629663 -0.81071179727973  3.29834449544955
 1  10.29765563056306 -0.23014252435243  2.85252413341334
 1  11.59553882388239  0.79692942584258  2.56037517251725
 1  10.66587559055906 -3.16511709180918  0.40100548654865
 1  10.73892480948095 -3.16212112921292  2.33428335233523
 1  9.32576857785779 -2.27834882798280  1.43281822482248
 1 -11.44528142814281  0.09771534253425  2.48545243824382
 1 -10.77702221122112 -1.35339249424942  2.37365336933693
 1 -12.60282144114412 -1.28511941694169  3.12468506450645
 1 -13.33691347234723 -2.86926817881788  1.32054656365637
 1 -11.55594864286429 -2.80288231623162  0.79238429442944
 1 -13.01938229622962 -2.67256756475648 -0.47341581558156
 1  8.96012783678368 -0.15820414051405  0.80607479147915
 1 -10.04067379937994 -2.21361508550855 -0.74763439643964
 1  9.94055647464746  0.61450154805481 -2.40103480648065
 1  11.49169760476048  1.73414770567057 -2.33360307430743
 1  11.31683591859186  0.09663917681768 -3.41300843084308
 1 -11.69479048604861  1.19375260426043 -2.76667816081608
 1 -9.65332087108711  0.81756239323932 -2.54222882888289
 1 -10.35535729072907  2.49919853285328 -1.93813740974097
 1  14.87404395739574 -2.90523942904290  0.07083897689769
 1 -14.98986842184218  1.85351026502650  1.39192739773977
 1  10.15199068106811  2.23113641754175 -0.40475979097910
 1 -8.87667436443644  0.38595069306931  0.07500268726873
 1  8.74067692969297  4.26171602450245 -0.26197250025003
 1  7.07433082208221  4.18487389628963  0.42784861786179
 1  8.60886559655965  3.96120900780078  1.45498851685169
 1 -7.99726675667567 -3.54721165026503 -0.10524636363636
 1 -8.05854161016102 -3.13213222732273 -1.90909723972397
 1 -6.54868371737174 -3.16497014911491 -0.80311710371037
 1  7.19326098909891  0.61893563646365 -0.39199259125913
 1 -6.40064032603260  0.40724056395640 -0.11076345334533
 1  5.40175955995600  3.08649379727973  0.40980323532353
 1 -5.01408522852285 -2.21971327842784 -0.77698509850985
 1  4.44369746874688  0.29357760366037 -0.30255866686669
 1 -3.95688119211921  0.67906302320232  0.07366016201620
 1  3.22153993899390  3.11257529942994  1.84571077207721
 1  1.67114376737674  3.39532820372037  0.49533194119412
 1  3.41896591859186  3.99404723862386  0.04769427342734
 1 -2.80296243324332 -3.00281742884288 -0.42344538853885
 1 -2.56030553855386 -2.41247236733673 -1.91220518751875
 1 -1.13002980198020 -2.34276445154515 -0.74223725972597
 1  2.31828898689869 -0.13357200830083 -0.05930383438344
 1 -1.96228562956296  1.19509942784278 -0.02296890989099
 1  0.25579132613261  2.12328503440344  0.34356015101510
 1  0.26006877687769 -1.05952590269027 -0.38480606460646

