%nproc=4
%Mem=2GB
# td=(NStates=1) CAM-B3LYP/6-31G(d,p) 

TD

0 1
 8  14.65264348334833 -2.43615108620862 -0.37147600060006
 8 -14.73117971497150  2.05695755175518  0.72305139913991
 6  11.40988428242824 -1.14586522062206  1.18691205220522
 6 -12.26167379937994 -0.97810037003700  1.02099762176218
 6  12.84963369536954 -1.51201423952395  1.13580115211521
 6 -13.65959856885689 -0.15257141714171  0.83457235323532
 6  13.22585457945794 -2.04494002110211 -0.22887777677768
 6 -13.48399073907391  1.34322712071207  0.73536532053205
 6  10.83919244524453 -0.35153937003700 -0.09103334933493
 6 -11.29056615761576 -0.42210323932393 -0.13330408440844
 6  13.08529274827483 -0.93357411451145 -1.26777765076508
 6 -12.87430819081908  1.54779275627563 -0.60770781278128
 6  11.65837058405841 -0.29140951405141 -1.19385790179018
 6 -11.57579116911691  0.78907523052305 -0.86556609560956
 6  11.25601632863286 -0.16212537063706  2.53485392639264
 6  10.49509895089509 -2.30819130023002  1.32515063506351
 6 -11.57547974197420 -0.83140496849685  2.22582116211621
 6 -12.60128083008301 -2.46215165816582  0.71879378337834
 6  9.51484631063106  0.33632466936694  0.14777145714571
 6 -10.10100146714671 -1.21075516051605 -0.37022570357036
 6  11.15000776577658  0.44252871777178 -2.44783899089909
 6 -10.74458689768977  1.41825220922092 -1.90968027502750
 6  9.29688965596560  1.62995643354335 -0.14771014501450
 6 -8.78803928892889 -0.65969952695270 -0.44108515451545
 6  7.99545553155315  2.34926466636664  0.07653332233223
 6 -7.53663880588059 -1.26200053315332 -0.66956228822882
 6  8.25736621762176  3.82645084998500  0.43431479747975
 6 -7.56301740774077 -2.64211395949595 -1.04325450045004
 6  6.86444185118512  1.65940593449345 -0.06338634463446
 6 -6.35753755675568 -0.58773424852485 -0.43743674967497
 6  5.51001155315532  2.06512421932193  0.24585950195020
 6 -5.03113423542354 -1.10930080618062 -0.59687186118612
 6  4.53484741574157  1.26912232613261  0.04733910491049
 6 -4.00745616561656 -0.36688289438944 -0.19748707870787
 6  3.09542214721472  1.68580917881788  0.13498516351635
 6 -2.65537930193019 -0.69343367346735 -0.41902956295630
 6  2.80380066106611  3.09245869476948  0.82873558255826
 6 -2.22439793379338 -1.99866716881688 -0.99033007300730
 6  2.08999857485749  0.77072423632363 -0.17539666466647
 6 -1.61226254925493  0.25421512741274 -0.16154798179818
 6  0.69334650365037  1.00372514041404  0.02664854485449
 6 -0.19225809480948  0.03485138003800 -0.28725636563656
 1  13.48925819781978 -0.61104453955396  1.04022886088609
 1  13.21755699169917 -2.26840742184218  1.90704083608361
 1 -14.18048082508251 -0.58679883688369  1.69325653165317
 1 -14.09670103710371 -0.59273619661966 -0.07366898689869
 1  12.49863506550655 -2.71733647674767 -0.62534059905991
 1 -12.93175863686369  1.65821033903390  1.50322979597960
 1  13.79371030303030 -0.10944366446645 -1.36016190019002
 1  13.18154964796480 -1.63847607470747 -2.32915359135914
 1 -13.65482102610261  1.12730405140514 -1.38450638363836
 1 -12.69299790679068  2.49680174417442 -0.70307719071907
 1  11.82850147014702 -0.88832955905591  3.19658431943194
 1  10.07492335733573 -0.17875738583858  2.63730261126113
 1  11.70367963796380  0.90916064896490  2.25786492149215
 1  10.79210821382138 -2.89794037413741  0.48969435543554
 1  10.80071098809881 -2.75108002510251  2.33302322632263
 1  9.43526952795280 -2.16177717081708  1.32593753675368
 1 -11.39562646264626  0.16859243024302  2.65553944694469
 1 -10.66507101610161 -1.57262441744174  2.40629663366337
 1 -12.50983214221422 -1.01462236723672  2.99863245924592
 1 -13.41586136713671 -2.77862911491149  1.31022553155316
 1 -11.72336538453845 -3.26217824582458  0.70140519651965
 1 -12.90138049604961 -2.44236454445444 -0.48122659665967
 1  8.71603342734273 -0.07747606770677  0.52009619361936
 1 -10.15358509050905 -2.35557928192819 -0.61533116611661
 1  10.22251467046705  1.08928902680268 -2.11234593759376
 1  12.05175361036104  1.13651794269427 -2.78346806080608
 1  11.21326556155616 -0.29252974007401 -3.31959908990899
 1 -11.42784379137914  1.72116534553455 -2.88119961296130
 1 -10.08776431543154  0.80351098809881 -2.47782238823882
 1 -10.21720347534754  2.08915752875288 -1.88814241024102
 1  14.77617417041704 -3.08452735783578  0.33886577957796
 1 -15.24790422542254  1.76150106410641  1.43487169216922
 1  9.99716519851985  2.27697100100010 -0.46382569756976
 1 -8.93072976997700  0.46415851385139 -0.34543935693569
 1  8.66198906090609  4.36266611951195 -0.51954825782578
 1  7.19921331033103  4.24684009290929  0.87938377137714
 1  9.02396710671067  3.88330121702170  1.27891090909091
 1 -8.11788881888189 -3.55461239033903 -0.39478531753175
 1 -8.28387414341434 -2.79765877997800 -1.93344967496750
 1 -6.65384423342334 -3.32425607770777 -1.30769756175618
 1  6.97699936293629  0.60982472537254 -0.42412580458046
 1 -6.59598986098610  0.40392023192319 -0.25248762576258
 1  5.47356674067407  3.25185033293329  0.48344059905991
 1 -4.88121194119412 -2.06184749184918 -0.96571397139714
 1  4.62224532353235  0.42970121602160 -0.46295470647065
 1 -4.25243074707471  0.69019413631363  0.37284008000800
 1  3.07582536753675  3.24515855775578  1.75598179917992
 1  1.69485613861386  3.36499517041704  0.91579398739874
 1  3.09077309930993  3.92139997389739  0.21489099309931
 1 -2.44538667566757 -2.84868201530153 -0.22683572757276
 1 -2.79281878987899 -2.49459057915792 -1.75712967996800
 1 -1.16182298129813 -2.00660083518352 -1.36076911291129
 1  2.53061021902190 -0.25814446554656 -0.67083498749875
 1 -2.03827322832283  1.02954287218722  0.51101448844884
 1  0.44700044704470  1.97604030993099  0.49103489848985
 1  0.17746051605160 -1.01413136323632 -0.64075165916592

