%nproc=4
%Mem=2GB
# td=(NStates=1) CAM-B3LYP/6-31G(d,p) 

TD

0 1
 8  14.76065428442844 -2.09227669876988 -0.54840369336934
 8 -14.91336793379338  1.91501335733573  0.37101619561956
 6  11.46406970097010 -1.11692232633263  1.17941130213021
 6 -12.41871950395039 -0.85010757075708  0.81946746874687
 6  12.92795152715272 -1.51845488358836  0.91445901790179
 6 -13.80948355735574 -0.22715887588759  0.76542543854385
 6  13.35865785978598 -1.93645917301730 -0.48695358435844
 6 -13.71191353135313  1.32456525452545  0.64444622862286
 6  10.98178670467047 -0.34571878797880 -0.05684993099310
 6 -11.39713681468147 -0.30749177817782 -0.14083483748375
 6  12.99929414841484 -0.89715047214721 -1.42344321732173
 6 -12.86299705970597  1.67752572957296 -0.64030107210721
 6  11.74054880188019 -0.19518989208921 -1.16887540354035
 6 -11.62105569556956  0.78340466346635 -0.86208574757476
 6  11.45710643764376 -0.33621277937794  2.52615305630563
 6  10.54877431843184 -2.42258273937394  1.19058717871787
 6 -11.83187538153815 -0.63508533653365  2.20957953795380
 6 -12.59357005900590 -2.48491393439344  0.61724362836284
 6  9.59732455845585  0.29260029692969  0.19455613561356
 6 -10.13585495249525 -1.09258334333433 -0.34348302930293
 6  11.19191195619562  0.48826329122912 -2.39529373637364
 6 -10.69921236023602  1.36622700670067 -2.02901220822082
 6  9.39060902790279  1.53985742364236  0.01917654365437
 6 -8.84385487048705 -0.51738529552955 -0.24815586158616
 6  8.08848483448345  2.26157589748975  0.17955362436244
 6 -7.59413455545555 -1.25253958705871 -0.44444977697770
 6  8.23617409840984  3.60122832773277  0.66082744874487
 6 -7.59806091209121 -2.82566231433143 -0.72000217521752
 6  6.93183859085909  1.57400739463946 -0.05062506850685
 6 -6.42010381338134 -0.63177865296530 -0.27475048104810
 6  5.53814436643664  2.12979068596860  0.17788270427043
 6 -4.99201032303230 -1.04121399749975 -0.49464163816382
 6  4.48293222422242  1.26530194409441  0.15877024802480
 6 -3.98877429742974 -0.21228743484348 -0.33517084708471
 6  3.09771237623762  1.71928252615262  0.18281994699470
 6 -2.55857962196220 -0.74625895599560 -0.44595225522552
 6  2.84817509850985  3.06154560346035  0.60940364936494
 6 -2.33439893389339 -2.25274257635764 -0.72087312731273
 6  2.13049262426243  0.80626779067907  0.05773664866487
 6 -1.65175649864987  0.16985669156916 -0.16766859385939
 6  0.67490465946595  0.92999776767677  0.01298717871787
 6 -0.17872674167417 -0.04237634273427 -0.20944858485849
 1  13.60529980198020 -0.58792222732273  1.06034087208721
 1  13.43074831083108 -2.19904048514851  1.64267439943994
 1 -14.45798857585759 -0.39062921992199  1.63382058805881
 1 -14.17231859885989 -0.60839776277628 -0.25713733373337
 1  12.84625982798280 -2.81941668476848 -0.78075614061406
 1 -13.09661512251225  1.60048456645665  1.50088956195620
 1  13.77486841884188 -0.17427014711471 -1.23438932293229
 1  12.87589908290829 -1.40890311741174 -2.42167284328433
 1 -13.36652219621962  1.38329965096510 -1.48662659565957
 1 -12.74778338533853  2.70529259325933 -0.75507239023902
 1  11.98089670967097 -0.88217894399440  3.26261092209221
 1  10.32216808180818 -0.19572908300830  2.87505638663866
 1  12.04178344834483  0.54309404230423  2.48374750975097
 1  10.82608161116111 -3.18512909300930  0.56271165716572
 1  10.87790870787079 -2.62650756785679  2.07267719171917
 1  9.46651265226523 -2.19945093819382  1.22564750775077
 1 -11.82829972997300  0.24029960096010  2.39378327132713
 1 -10.79976448544855 -1.07547470247025  2.54805080908091
 1 -12.51312247124713 -0.96522742774277  2.99423201920192
 1 -13.35192497349735 -2.93019427142714  1.43354786378638
 1 -11.44467751575158 -3.02940496849685  0.73396845284528
 1 -13.00687104510451 -2.68898920692069 -0.45013348734873
 1  8.68925074907491 -0.52557087718772  0.31287547154715
 1 -10.14625435743574 -2.24696842084208 -0.43073270627063
 1  10.11837425642564  0.78026812471247 -2.18990369336934
 1  11.76113454845485  1.34347863876388 -2.72391210521052
 1  11.40483471847185 -0.10544103120312 -3.34210134013401
 1 -11.31090209720972  1.77415064406441 -2.92309380238024
 1 -10.01686722572257  0.57724836183618 -2.27344195019502
 1 -10.25131688668867  2.35244385738574 -1.46872046804680
 1  14.98974552755275 -2.79880878597860  0.14342623562356
 1 -15.77644707970797  1.99003391739174  1.06121432643264
 1  10.37507298929893  2.21443474737474 -0.15175449044905
 1 -8.74929162616262  0.62591468946895 -0.08792360536054
 1  8.52166502850285  4.30141999489949 -0.24521082408241
 1  7.13368675767577  4.10893630253025  0.91577741074107
 1  8.86460117011701  3.76894978187819  1.67490050805081
 1 -8.03068009800980 -3.37515444454445 -0.02479831883188
 1 -7.71402715871587 -3.18327734183418 -1.94392072207221
 1 -6.51591044004400 -3.29007265936594 -0.80027681968197
 1  6.82163382638264  0.55532927582758 -0.43366675867587
 1 -6.42899316131613  0.44760460036004  0.18781640464046
 1  5.48166755075508  3.25426057395739  0.31335359035904
 1 -4.78438225822582 -2.11054236133613 -0.69355675567557
 1  4.58774187318732  0.16178442434243 -0.15860427142714
 1 -4.16923242724272  0.86648176507651 -0.14608181218122
 1  3.27943572857286  3.18066210811081  1.68071427242724
 1  1.68704535753575  3.29219789068907  0.67391979998000
 1  3.09453347534753  3.86271410531053 -0.13762425842584
 1 -2.51134327132713 -3.01077822492249  0.01990894689469
 1 -2.97252676067607 -2.68801992209221 -1.40982494949495
 1 -1.37593439243924 -2.48242841794179 -1.13395643164316
 1  2.47151430943094 -0.23960261136114 -0.08073597759776
 1 -2.05427482848285  1.14658457635764  0.09391277827783
 1  0.36093184018402  1.96175888178818  0.37484327932793
 1  0.21980475047505 -0.93905385548555 -0.39625720972097

