%nproc=4
%Mem=2GB
# td=(NStates=1) CAM-B3LYP/6-31G(d,p) 

TD

0 1
 8  14.80595881488149 -2.09649712081208 -0.56362521552155
 8 -14.74914151115111  2.07189904590459  0.50624971897190
 6  11.57339063306331 -1.10642127622762  1.18753211421142
 6 -12.32533016501650 -0.87020958095810  0.71712723472347
 6  13.05475420742074 -1.28801183928393  0.94991256325633
 6 -13.73326593559356 -0.08482464246425  0.70646954295430
 6  13.39309130313031 -1.83623915101510 -0.37514240324032
 6 -13.55376771677168  1.37191998999900  0.66397818181818
 6  10.97274580058006 -0.24850906700670 -0.08204245024502
 6 -11.29294639563956 -0.16457748674868 -0.22190294429443
 6  13.07293151215121 -0.82968372547255 -1.48274914791479
 6 -12.71507226722672  1.84149212621262 -0.52663970597060
 6  11.66994174117412 -0.32099247234723 -1.19454797079708
 6 -11.57799138913891  1.02347867086709 -0.82846238523852
 6  11.46364709170917 -0.21127028512851  2.46770721172117
 6  10.81576101710171 -2.37259774087409  1.40238835883588
 6 -11.77624981898190 -0.74662649064906  2.16112469246925
 6 -12.57922862486249 -2.32579802280228  0.39948185218522
 6  9.66036086208621  0.35711674857486  0.19357603760376
 6 -10.11045241224122 -1.03036712171217 -0.45483416441644
 6  11.12336510151015  0.54184864976498 -2.39080328732873
 6 -10.57766020502050  1.59689007300730 -1.78482778977898
 6  9.28971893889389  1.66475991389139  0.11806643264326
 6 -8.87813829882988 -0.54706826382638 -0.25705675167517
 6  8.01964795079508  2.26067580748075  0.25104077307731
 6 -7.65707084908491 -1.40219455255526 -0.46686201820182
 6  7.92910339133913  3.64935314021402  0.44772613861386
 6 -7.80032113811381 -2.86886663476348 -0.93514368936894
 6  6.92269767676768  1.48529852375238  0.10650064406441
 6 -6.49108091109111 -0.79297477257726 -0.25486849284928
 6  5.60797134913491  1.99700740764076  0.14990990699070
 6 -5.08725984798480 -1.26570644674467 -0.30783295729573
 6  4.36446037703770  1.33951936583658 -0.01079670867087
 6 -4.00306572657266 -0.42075828192819 -0.18728605860586
 6  3.06574917991799  1.64516511441144  0.18036970197020
 6 -2.66776054005400 -0.98062239233923 -0.33875153515352
 6  2.65980626162616  3.03658310721072  0.51534424342434
 6 -2.43339883388339 -2.44761206330633 -0.78477951795180
 6  2.12077165216522  0.61321848574857  0.00121099609961
 6 -1.62203352635264 -0.06655694979498 -0.16330815781578
 6  0.63355052405241  0.74649941784178  0.01904778477848
 6 -0.23272214121412 -0.22843494859486 -0.16919455945595
 1  13.71207047904791 -0.24784821992199  1.00311514951495
 1  13.57211244724473 -2.04771535263526  1.68809894189419
 1 -14.24908768576858 -0.38157831483148  1.59485669166917
 1 -14.36539790679068 -0.29565648864887 -0.10109172917292
 1  12.68009321132113 -2.83421816491649 -0.59042710771077
 1 -12.91713717471747  1.76252077007701  1.51952142514251
 1  13.63254418641864 -0.02040476057606 -1.42147803180318
 1  12.94590608360836 -1.12030425752575 -2.53674435043504
 1 -13.42757830183018  1.59889121012101 -1.47084501750175
 1 -12.31732033903390  2.69735179917992 -0.39322620562056
 1  12.03657227722772 -0.66382710881088  3.31584624562456
 1  10.38956482148215  0.19152964286429  2.74436331733173
 1  11.95248451845185  0.60896062896290  2.21340047504750
 1  11.00699970297030 -3.14916549664966  0.74965035103510
 1  11.06252716971697 -2.96353127022702  2.30376030003000
 1  9.58133413441344 -2.09544053715372  1.32214715771577
 1 -11.69027592759276  0.20150572157216  2.44125801880188
 1 -10.68812332133213 -1.18141529652965  2.31595759975998
 1 -12.41135229422942 -1.43323422842284  2.93274587058706
 1 -13.34875465646565 -2.85674692669267  1.12856736573657
 1 -11.52278532653265 -2.82990501850185  0.70769582558256
 1 -12.69554991299130 -2.46533684168417 -0.67386586058606
 1  8.84996682068207 -0.31865018511851  0.31804598859886
 1 -10.41405113711371 -2.05286901090109 -0.78209784278428
 1  10.07897031603160  0.95454555245525 -2.21107581058106
 1  11.65092352735274  1.37526181708171 -2.79587930193019
 1  11.30625486048605 -0.11546203330333 -3.41957908790879
 1 -10.88445945294530  2.21554478347835 -2.73140463346335
 1 -9.81071661066107  0.70649128612861 -2.17698230423042
 1 -9.86336809180918  2.37579619261926 -1.43441703770377
 1  15.01925847884788 -2.61161006610661  0.26365825882588
 1 -15.47333676867687  1.91603651765177  1.27520572557256
 1  10.08176365836584  2.37830113401340 -0.19817913291329
 1 -8.50007670467047  0.45303740174017  0.08302348934893
 1  8.46600946294629  4.18068792169217 -0.52346864986499
 1  6.98450183918392  4.30449585848585  0.49566539953995
 1  8.61612632263226  4.08030091699170  1.40483350135014
 1 -8.22732976297630 -3.36175310441044 -0.13017885688569
 1 -8.62234799079908 -2.66026504060406 -1.75600193019302
 1 -6.70815966496650 -3.40362401450145 -1.37119391139114
 1  7.17884954795480  0.59478322122212  0.02229883788379
 1 -6.56364662666267  0.38015785568557 -0.03698607560756
 1  5.49507889188919  2.98429357725773  0.62317457245725
 1 -5.03774759475948 -2.27044835193519 -0.51534893489349
 1  4.40615371437144  0.26769501540154 -0.19125753675368
 1 -4.18921442544254  0.59893501040104  0.08382117811781
 1  2.96989477447745  3.39962400430043  1.45423162416242
 1  1.45952260526053  3.34357302820282  0.15474788278828
 1  3.08715273727373  3.77433526742674 -0.42140263626363
 1 -2.80732286928693 -3.30136728382838 -0.04798784278428
 1 -3.18888839683968 -2.60241136123612 -1.62600656765677
 1 -1.27214401340134 -2.53949412451245 -0.86030906690669
 1  2.28266542454245 -0.58662731383138 -0.19063696769677
 1 -2.01017041804180  0.90228014591459  0.10764415141514
 1  0.17772351935194  1.75135784168417  0.03836963196320
 1  0.05422819281928 -1.24808475857586 -0.19466705070507

