%nproc=4
%Mem=2GB
# td=(NStates=1) CAM-B3LYP/6-31G(d,p) 

TD

0 1
 8  14.69220743974397 -2.25701317241724 -0.48043689668967
 8 -14.66756335333533  1.86989884588459  0.95350444444444
 6  11.56152944694469 -1.01650228432843  1.32306566756676
 6 -12.30502813481348 -0.94902746274627  0.96143166516652
 6  13.06506523852385 -1.36117915601560  1.11807937993799
 6 -13.68661127012701 -0.21020718071807  0.98556745274527
 6  13.24398639263926 -1.98950447754775 -0.17291218021802
 6 -13.37661000100010  1.27262006000600  0.91028281228123
 6  10.97209573557356 -0.31691590769077  0.09755550955096
 6 -11.29178627962796 -0.27322835183518 -0.09191994599460
 6  12.94417863686369 -0.83510426752675 -1.23357423042304
 6 -12.81282204220422  1.68581655865587 -0.41878892089209
 6  11.60845559255926 -0.28097847094709 -1.06207472347235
 6 -11.63589717971797  0.82576889988999 -0.77459699869987
 6  11.37140786778678 -0.20065922402240  2.58504894589459
 6  10.77547698869887 -2.39309979107911  1.64791291129113
 6 -11.60379257325732 -0.88709053705371  2.39933851385139
 6 -12.52372307430743 -2.37168261126113  0.62846475047505
 6  9.64428925492549  0.24588562546255  0.32672935293529
 6 -10.14818618561856 -1.17017110211021 -0.29134781578158
 6  10.99530229522952  0.40550501540154 -2.27576178317832
 6 -10.75724816381638  1.44652503650365 -1.90265957295730
 6  9.34106407340734  1.55790922882288  0.09490411641164
 6 -8.94094457945795 -0.68373193019302 -0.42359340534053
 6  8.01224721072107  2.26742648254826  0.22721839083908
 6 -7.65558070007001 -1.26712104520452 -0.66948228022802
 6  8.18739922092209  3.73366157105711  0.61784315031503
 6 -7.59193029902990 -2.76585633373337 -0.91259143414341
 6  6.96513192019202  1.51859185308531 -0.10527053305331
 6 -6.51302310531053 -0.58276375147515 -0.47254026002600
 6  5.58358891089109  1.97823553045305  0.00016493249325
 6 -5.21294241624162 -1.08231810791079 -0.74804697869787
 6  4.46449038003800  1.19294470837084 -0.12717834683468
 6 -4.10524594459446 -0.21951815791579 -0.60415774577458
 6  3.12056466146615  1.63547414531453 -0.04675301030103
 6 -2.70435419941994 -0.59495382548255 -0.68428608860886
 6  2.86509679067907  3.11166061496150  0.34070677967797
 6 -2.42443793779378 -2.00311761386139 -1.26674771477148
 6  2.13644321932193  0.68904606850685 -0.23450257525753
 6 -1.74405572857286  0.26128583448345 -0.42745457245725
 6  0.63060022902290  0.97906267416742 -0.33754787478748
 6 -0.21899076807681  0.05390328522852 -0.51826946694669
 1  13.95183445544554 -0.54139757485749  1.10067490549055
 1  13.39519475547555 -2.02835341644164  2.07971810381038
 1 -14.39514229122912 -0.42095225222522  1.63380058605861
 1 -14.26736810381038 -0.46386330933093  0.06974535453545
 1  12.64247944994499 -2.96225096819682 -0.12884094909491
 1 -12.90783624462446  1.55161967996800  1.76300577357736
 1  13.81400233223322 -0.11560428052805 -1.30368625262526
 1  13.04245573857386 -1.36833906100610 -2.18180885688569
 1 -13.52295783978398  1.43049437043704 -1.19475740874087
 1 -12.51823043004300  2.69595165916592 -0.55849273227323
 1  11.78574719471947 -0.72633335943594  3.48915357635764
 1  10.27409327432743 -0.45451496159616  2.93747262826283
 1  11.60425969596960  0.83328306120612  2.65053418841884
 1  10.86378538153815 -3.17888846894690  0.85922130813081
 1  11.20262117911791 -2.65104002110211  2.60278020202020
 1  9.73727972897290 -2.20010100320032  1.81308625162516
 1 -11.29836673667367  0.04756032703270  2.82630652365237
 1 -10.55693020202020 -1.42358951395139  2.42215821982198
 1 -12.28861002000200 -1.51008191319132  3.00743333933393
 1 -13.41649143014301 -2.69256050805081  1.05319982898290
 1 -11.75232828082808 -2.97622965096510  1.05668072407241
 1 -12.70993135113511 -2.58535884388439 -0.49225769976998
 1  8.67381920592059 -0.21330965106511  0.83032721672167
 1 -10.32301203320332 -2.19750347434744 -0.31078071107111
 1  10.01199361836183  0.66445654355436 -2.24604930793079
 1  11.77104553955396  1.28265255615562 -2.20634034803480
 1  11.12406664166417 -0.24970545764576 -3.03198032803280
 1 -11.48983999099910  1.71442467146715 -2.64260575357536
 1 -9.74301984098410  0.77360799779978 -2.16941154715472
 1 -10.28271002600260  2.38550716371637 -1.72716631263126
 1  14.84677123012301 -2.85561446654666  0.08422031503150
 1 -15.23746318131813  1.90428534253425  2.04583278827883
 1  10.04794027602760  2.21542484638464 -0.11047036203620
 1 -8.73702039903990  0.39195129312931 -0.36537135013501
 1  8.73462632463246  4.23179303220322 -0.21773807680768
 1  7.07252064106411  3.90520592949295  0.86491232423242
 1  8.66525123512351  3.81970485738574  1.44440745874588
 1 -7.69019604960496 -3.49324625372537 -0.04101994099410
 1 -8.36357211321132 -2.89226824092409 -1.87313364336434
 1 -6.51036988598860 -3.04259791189119 -1.32458925092509
 1  7.11881354435444  0.56741048394839 -0.59681307330733
 1 -6.37926818881888  0.46737657755776 -0.06380875787579
 1  5.25222460646065  2.99120426832683  0.07177943294329
 1 -4.85911973197320 -1.98583989108911 -1.15831323132313
 1  4.46643974297430  0.19957820372037 -0.29570798179818
 1 -4.19943544754476  0.67343246014601 -0.06449365336534
 1  3.31588937393739  3.39567360926093  1.44746094709471
 1  1.74020067306731  3.35788445934593  0.29339174717472
 1  3.32022604460446  3.73667150105011 -0.37147764376438
 1 -2.94915705270527 -2.66611375847585 -0.55939898389839
 1 -2.90570007800780 -2.10541166126613 -2.13625759275928
 1 -1.30712751175118 -2.15664583968397 -1.52696573257326
 1  2.34117127512751 -0.32272092319232 -0.49749765376538
 1 -2.11451085208521  1.33474339223922 -0.13814042704270
 1  0.31686743374337  1.86980968686869 -0.06082028702870
 1  0.08311108110811 -0.89188913901390 -0.77687527152715

