%nproc=4
%Mem=2GB
# td=(NStates=1) CAM-B3LYP/6-31G(d,p) 

TD

0 1
 8  14.60537875687569 -2.19442691379138 -0.71944079707971
 8 -14.81133773077308  1.89756161216122  0.45608470247025
 6  11.52400569456946 -1.19317995209521  1.10960432143214
 6 -12.29382701470147 -0.86245880588059  0.75430095209521
 6  12.98054678667867 -1.50473351145115  0.90476804880488
 6 -13.69174178317832 -0.20701686168617  0.58224712071207
 6  13.27456945094509 -1.93373890099010 -0.57542243124312
 6 -13.53792613261326  1.23996679467947  0.45518730273027
 6  11.03385191119112 -0.30628484458446 -0.06724097009701
 6 -11.36868396939694 -0.35464649364936 -0.31048180218022
 6  12.93229744874487 -0.92563332043204 -1.61937281028103
 6 -12.87366812681268  1.63101107810781 -0.81722876487649
 6  11.56516126312631 -0.27822819591959 -1.31096961296130
 6 -11.70955454545454  0.67673399639964 -1.04081362036204
 6  11.32427315431543 -0.25292445054505  2.25192563356336
 6  10.61370081108111 -2.44776525762576  1.24943306330633
 6 -11.79825201920192 -0.57533936193619  2.24674325432543
 6 -12.53425412741274 -2.38461390439044  0.57240914491449
 6  9.62826765276528  0.22893393029303  0.23285996599660
 6 -10.02882424942494 -1.11528561356136 -0.53373205420542
 6  10.98373113811381  0.44684914981498 -2.49069327632763
 6 -10.76769920892089  1.16528691269127 -2.20832013901390
 6  9.34767473447345  1.57081051895190 -0.02183755775578
 6 -8.86803728872887 -0.40595415241524 -0.51829287528753
 6  8.03780976697670  2.16344608450845  0.29432510151015
 6 -7.57286242824282 -1.22500683378338 -0.44956028802880
 6  8.22174265526553  3.68091629652965  0.61016238223822
 6 -7.56116722272227 -2.81163091119112 -0.66229640464046
 6  6.87026243324332  1.53827382128213  0.09493948794879
 6 -6.38923072607261 -0.57271274637464 -0.31989499549955
 6  5.51516206820682  2.15828353525353  0.34799971597160
 6 -4.95320644264426 -1.09786966306631 -0.29694186818682
 6  4.43207713871387  1.39648506240624  0.20590496149615
 6 -3.89088450845085 -0.36517272337234 -0.11816914691469
 6  3.05998860386039  1.80215081298130  0.26851851685169
 6 -2.54924868886889 -0.77027135723572 -0.17739539953995
 6  2.86093637463746  3.26731618051805  0.67933064206421
 6 -2.26008150215022 -2.12228953105310 -0.52153319331933
 6  2.12719229422942  0.81602876677668  0.20174104910491
 6 -1.63702502550255  0.19484919081908  0.18168634163416
 6  0.72432960196020  1.08276304420442  0.29068494849485
 6 -0.18140700970097 -0.00054215931593  0.12825518551855
 1  13.76755602760276 -0.62516595169517  0.97624246224622
 1  13.42970820682068 -2.44158473957396  1.59380951295130
 1 -14.40284306130613 -0.46997715471547  1.55072227822782
 1 -13.89757112411241 -0.65715263826383 -0.28088970897090
 1  12.79565476747675 -2.90670541364136 -0.78406647164717
 1 -12.97252271327133  1.39028354635464  1.40375984898490
 1  13.76801773377338 -0.32870559065907 -1.68695457945795
 1  12.66517801080108 -1.27423965106511 -2.76178685468547
 1 -13.56112165616562  1.52982430343034 -1.61231916491649
 1 -12.65517412441244  2.83695575957596 -0.81769865286529
 1  11.69972859285929 -0.77286801290129  3.28061272227223
 1  10.23603946894690  0.00119060896090  2.37292617361736
 1  11.64577384738474  0.67790752365237  2.30907004200420
 1  10.70485948894889 -2.97097767786779  0.30995638163816
 1  10.89215013201320 -3.04182910001000  2.05544546854685
 1  9.57147314831483 -2.22826381948195  1.46203114611461
 1 -11.67124402440244  0.41642721372137  2.25053894689469
 1 -10.84785929492949 -1.12160931593159  2.55223122712271
 1 -12.37313847284729 -0.93940484548455  2.98042063806381
 1 -12.95918569956996 -2.95922717471747  1.51262577157716
 1 -11.44966801480148 -2.95607763576358  0.47246230223022
 1 -13.06122648064807 -2.58200850885088 -0.43678215221522
 1  8.95067689168917 -0.41865018511851  0.53593777777778
 1 -9.89665939793979 -2.20528425242524 -0.72262189518952
 1  9.84015643464346  0.46138623652365 -2.11585628862886
 1  11.41083951895190  1.43541783268327 -2.48817853185319
 1  11.06723095809581 -0.30104059115912 -3.31802893289329
 1 -11.53142414941494  1.58800202920292 -2.89183067606761
 1 -10.18531407040704  0.51488212521252 -2.75383998999900
 1 -10.33854560956096  2.12991160416041 -1.82378597459746
 1  14.97269382238224 -2.95815472057206 -0.29754786178618
 1 -15.40432986798680  1.58696361036104  1.22203040804080
 1  10.17004248624862  2.20644394829483 -0.36187550255025
 1 -8.85250194719472  0.58233033103310 -0.18426323932393
 1  8.58968183018302  4.18439829272927 -0.42154845784579
 1  7.23214660366037  4.04410981988199  0.73379921292129
 1  8.96837154715472  3.80822370927093  1.59562258025803
 1 -8.09749677967797 -3.36027295639564  0.12886704770477
 1 -8.10443619961996 -2.97604661876188 -1.54574090409041
 1 -6.54831368036804 -3.10904455655566 -0.62407919991999
 1  6.90206186918692  0.66697043994399 -0.22458585058506
 1 -6.30843110511051  0.51997183708371  0.01935955895590
 1  5.62180156415642  3.12903805170517  0.75596785178518
 1 -4.63481730173017 -2.21035234233423 -0.63052045204521
 1  4.48611171017102  0.19172741864186 -0.21129954095410
 1 -4.28317382138214  0.80456557345735 -0.03169037303730
 1  3.48926671167117  3.36075011691169  1.55999220022002
 1  1.82258891189119  3.42923159405941  0.91229363736374
 1  3.26834085608561  3.90310814471447  0.01761126512651
 1 -2.71286342334233 -2.84518166526653  0.19396635263526
 1 -2.68546805480548 -2.51784290439044 -1.46610057705771
 1 -1.22407920692069 -2.48950912601260 -0.59814285028503
 1  2.52953011101110 -0.13550220132013 -0.13513141714171
 1 -1.92589199019902  1.10085000290029  0.24214760176018
 1  0.37714346134613  2.15438814471447  0.35068086308631
 1  0.24133690369037 -0.87303725382538 -0.12297988198820

