%nproc=4
%Mem=2GB
# td=(NStates=1) CAM-B3LYP/6-31G(d,p) 

TD

0 1
 8  14.63689190819082 -2.28590606170617 -0.43357221022102
 8 -14.86180277727773  1.78917077307731  0.68497759175918
 6  11.37759105310531 -1.25804643874387  1.15411877287729
 6 -12.31544917691769 -0.95871843184318  0.84393991599160
 6  12.84768350035004 -1.50335337343734  1.16549412141214
 6 -13.65615822482248 -0.27852401240124  0.73649254525453
 6  13.19726172017202 -2.06841236833683 -0.27402229122912
 6 -13.52880522052205  1.14421721972197  0.71081286528653
 6  10.94172269826983 -0.39437365346535 -0.00599484548455
 6 -11.25714281528153 -0.35316634563456 -0.07062781678168
 6  13.03174739373937 -0.87486824392439 -1.27635850885089
 6 -12.80153091309131  1.63847182418242 -0.56815385738574
 6  11.67051179817982 -0.20893126622662 -1.12672118811881
 6 -11.53192678267827  0.81885820882088 -0.86142568156816
 6  11.12895362236224 -0.39665882398240  2.49211965296530
 6  10.48390783178318 -2.52265274637464  1.38949706970697
 6 -11.69976217021702 -0.91171299929993  2.23749232923292
 6 -12.47463816581658 -2.47268271127113  0.48679058305831
 6  9.53004783078308  0.28383942084208  0.14944162416242
 6 -9.97506887388739 -1.05023910891089 -0.40576925792579
 6  11.19754251925193  0.52754721962196 -2.34285849284929
 6 -10.60830326932693  1.26620700470047 -1.86165547254725
 6  9.31567153415341  1.56036947484748 -0.12839821382138
 6 -8.82063254825483 -0.49940349734973 -0.14714576057606
 6  8.03854984098410  2.23991373127313 -0.02107643864386
 6 -7.58954409640964 -1.20947528062806 -0.39721505350535
 6  8.21614209520952  3.72926113101310  0.41169253525353
 6 -7.50934204020402 -2.68183793189319 -0.78289846484648
 6  6.93157856485649  1.59965995989599 -0.23465347134713
 6 -6.39721152415242 -0.58144361946195 -0.41348435443544
 6  5.54375492749275  2.11501920882088  0.00744566056606
 6 -5.07465858785879 -1.12527240334033 -0.39194136813681
 6  4.44263819481948  1.35426083998400 -0.12289791879188
 6 -4.03794921492149 -0.25819202530253 -0.38616594659466
 6  3.12245485048505  1.78767936583658  0.19685135013501
 6 -2.55533929792979 -0.58568289838984 -0.57038469846985
 6  2.87356763776378  3.13543299219922  0.60900360936094
 6 -2.35638113211321 -2.06875417751775 -1.03097413741374
 6  2.09087866286629  0.97568473237324 -0.02475160016002
 6 -1.63749507250725  0.23075278117812 -0.21272309930993
 6  0.63690085908591  1.21191595949595  0.11315719571957
 6 -0.24650351935194  0.26891478637864 -0.38748638863886
 1  13.42124139613961 -0.68548198329833  1.56196103410341
 1  13.03794903090309 -2.25553613471347  2.06720685268527
 1 -14.22677545454546 -0.70106026302630  1.79475668166817
 1 -14.27750911791179 -0.52701962496250 -0.13440506050605
 1  12.74995019701970 -2.89613435653565 -0.54369243424342
 1 -12.89057451845184  1.45543006100610  1.47422689568957
 1  13.83880481248125 -0.17852057215722 -1.00135601960196
 1  13.23364485748575 -1.41546377347735 -2.19313998999900
 1 -13.38619416341634  1.50273159415942 -1.52851078407841
 1 -12.69655826282628  2.73842590659066 -0.41316819981998
 1  11.27393601360136 -1.20271099719972  3.43168782978298
 1  9.92108797379738  0.06095658555856  2.28278715971597
 1  11.71860113011301  0.49286901980198  2.66989612461246
 1  10.46380538353835 -3.21029160926093  0.45141052705271
 1  11.01665258225823 -3.42847776487649  2.12295221922192
 1  9.52929893089309 -2.30049104220422  1.99947489048905
 1 -11.37154405440544 -0.02790721972197  2.48015190819082
 1 -10.73578808780878 -1.41123827882788  2.20900690469047
 1 -12.51664282328233 -1.42257316231623  2.93603619961996
 1 -13.27140692169217 -2.73395464746475  1.16335084408441
 1 -11.66251929992999 -3.04610663866387  0.75717077307731
 1 -12.83694405240524 -2.52366267426743 -0.55005347934793
 1  9.05253707770777 -0.47948626872687  0.63711789578958
 1 -10.03254298629863 -2.10673439743974 -0.49983961696170
 1  10.12173459245925  0.61993209110911 -2.15773047604760
 1  11.76228466346635  1.47834212511251 -2.50387010101010
 1  11.53322755775578 -0.12661314841484 -3.05567269726973
 1 -11.17540854785478  1.65127835683568 -2.70200169316932
 1 -10.07283282228223  0.48228886588659 -2.30611521752175
 1 -10.03323507850785  2.13573218621862 -1.28677227322732
 1  14.92286883988399 -2.81202010711071  0.56922881588159
 1 -15.14200363536353  1.65658057205721  1.57396560156016
 1  10.22075755775577  2.06276958085809 -0.25981529652965
 1 -8.73276997399740  0.30092219021902  0.28613380038004
 1  9.01225408740874  4.11600145304531 -0.35071137413741
 1  7.39339272827283  4.33706911581158  0.37741357435744
 1  8.59096380638064  3.74970785768577  1.38024104210421
 1 -8.03993102310231 -3.41218814791479 -0.15251109010901
 1 -7.96692244824482 -2.64550356445645 -1.73177950795080
 1 -6.56717556655666 -3.25371902400240 -0.80341713371337
 1  6.87536919991999  0.61721546444644 -0.63060645264526
 1 -6.29656991899190  0.44529436933693 -0.05724810181018
 1  5.45813519751975  3.15408055595559  0.29017127212721
 1 -4.95184900490049 -2.14765607270727 -0.38440584058406
 1  4.57884098309831  0.28784703060306 -0.43750216121612
 1 -4.17992349634964  0.93700881778178 -0.43728093209321
 1  3.35190297529753  3.45293933583358  1.46141234223422
 1  1.75945259825983  3.52420109100910  0.60596300430043
 1  3.16553057505751  3.84390222412241 -0.27054755075507
 1 -2.76564870187019 -2.61304845194519 -0.18307135113511
 1 -2.93938344634463 -2.35391651175118 -2.05849981698170
 1 -1.23816061506151 -2.25602577767777 -1.01969500550055
 1  2.37493465146515  0.04240558945895 -0.32544044804480
 1 -1.82410181118112  1.24328424632463  0.16477986498650
 1  0.20067581458146  2.05113781968197  0.65856165116512
 1  0.11184395439544 -0.69820977107711 -0.66538412241224

