%nproc=4
%Mem=2GB
# td=(NStates=1) CAM-B3LYP/6-31G(d,p) 

TD

0 1
 8  14.70240845984599 -2.24435190629063 -0.45849470247025
 8 -14.52069866686669  2.05094695069507  0.91047014101410
 6  11.42899619361936 -1.12436307040704  1.11383474447445
 6 -12.30691832383238 -0.93908646864686  0.82952847484748
 6  12.92956168816882 -1.44766780488049  1.05589316131613
 6 -13.62140474947495 -0.11008716871687  0.76722561856186
 6  13.34115610961096 -1.87675320242024 -0.25403029202920
 6 -13.20998333833383  1.34419721772177  0.72924470847085
 6  10.90261878787879 -0.32770698679868 -0.02106635263526
 6 -11.37849495049505 -0.38058908790879 -0.24377513151315
 6  13.01626584558456 -0.83815457255726 -1.30343121612161
 6 -12.67892865286529  1.74617259425943 -0.61811885388539
 6  11.72552729972997 -0.21851222432243 -1.10422893889389
 6 -11.53715730573057  0.87407373037304 -0.85036457545755
 6  11.12382310931093 -0.29311846994699  2.47776821782178
 6  10.69598903990399 -2.42515299639964  1.30119823982398
 6 -11.68737093109311 -0.76297812581258  2.15060364036404
 6 -12.62321302330233 -2.37081252425243  0.58222012601260
 6  9.58808363436344  0.26417745464546  0.09424610461046
 6 -10.14592595959596 -1.21495558055806 -0.50460914191419
 6  11.25371813681368  0.60267473237324 -2.28076228322832
 6 -10.77156959595960  1.31654203820382 -2.03240254725473
 6  9.30974094109411  1.62617605550555  0.00525515151515
 6 -8.88925941094109 -0.75380893789379 -0.29298034403440
 6  8.03689967596760  2.31591133103310  0.25765143414341
 6 -7.60039518151815 -1.32747708080808 -0.50654598659866
 6  8.03616409740974  3.75467367226723  0.52471383738374
 6 -7.43923502950295 -2.85310505860586 -0.85082525752575
 6  6.90964637163716  1.57071706560656 -0.01265127112711
 6 -6.51098290129013 -0.60475595069507 -0.16677968396840
 6  5.59130968296830  1.92961066796680  0.18756367236724
 6 -5.13074419641964 -1.04987486358636 -0.35479765376538
 6  4.44034796579658  1.22681809570957 -0.17541317031703
 6 -4.01812723272327 -0.33266947304730 -0.28251558155816
 6  3.06912951795180  1.69394999289929  0.03246491149115
 6 -2.68701246524652 -0.71327565766577 -0.43894155415542
 6  2.85109539053905  3.09818926782678  0.56455916491649
 6 -2.47546304030403 -2.25617291939194 -0.78206924692469
 6  2.07563713871387  0.73112027592759 -0.20117924292429
 6 -1.70711203420342  0.23056276217622 -0.27141896889689
 6  0.69912708170817  0.95495026292629 -0.14626874687469
 6 -0.36806567556756  0.01083897879788 -0.41899953995400
 1  13.42087135913591 -0.56946038113811  1.53491832983298
 1  13.14406964296430 -2.36459704080408  1.66047617961796
 1 -14.31429420642064 -0.25710586758676  1.72166937293729
 1 -14.46173754075408 -0.51190811381138 -0.03563518351835
 1  12.63239844184418 -2.70748549164917 -0.72705077007701
 1 -12.56026148714871  1.59199371737174  1.52675214821482
 1  13.71055198719872  0.01881916181618 -1.26401228522852
 1  13.11213270627063 -1.30523275037504 -2.35097577357736
 1 -13.43852939693969  1.50828214921492 -1.50934886788679
 1 -12.26683529052905  2.77796986098610 -0.76026290929093
 1  11.57575619561956 -0.88527925402540  3.51373603460346
 1  10.15874173917392 -0.17718722882288  2.60579946094609
 1  11.63838310831083  0.67004673757376  2.37187632263226
 1  10.57243624662466 -3.04768534863486  0.39050443644364
 1  10.81267218421842 -3.03157807490749  2.17717764176418
 1  9.87518351935194 -2.25411640474047  1.59010395339534
 1 -11.68775567556756  0.27025259625963  2.45656954995500
 1 -10.64619912891289 -1.17658481348135  2.11297730173017
 1 -12.18904006300630 -1.13575448044804  3.08449104510451
 1 -13.52373215421542 -2.60536178817882  1.05772028102810
 1 -11.72610565856586 -3.03972600060006  0.47318237423742
 1 -13.33088344634464 -2.55524583258326 -0.60697917191719
 1  8.97758958295830 -0.34260258035804  0.57855203920392
 1 -10.53607333933394 -2.22499622362236 -0.82082171517152
 1  10.14776719571957  0.71187128502850 -2.21755645864586
 1  11.64771320632063  1.79392368326833 -2.33043275727573
 1  11.24037827282728  0.12452196509651 -3.05745287528753
 1 -11.33833484048405  1.50630385938594 -3.00628212121212
 1 -9.94604014301430  0.48621925892589 -2.31275588158816
 1 -10.20309206420642  2.41644025702570 -1.86854045004500
 1  14.91548810181018 -2.89963886898690  0.10774266726673
 1 -14.90650008500850  1.74312922692269  1.71386959195920
 1  10.18454393639364  2.16158946284628 -0.21691100610061
 1 -8.91344804180418  0.37570966896690  0.07223241024102
 1  8.64524738673867  4.41697155005501 -0.20246654965497
 1  6.94165755475548  4.22601801070107  0.57035286828683
 1  8.50168487848785  3.81708459535954  1.33567658565857
 1 -8.33832086208621 -3.44003093219322 -0.19410524952495
 1 -7.82580833683368 -2.86535554965497 -1.86053238323832
 1 -6.55251410041004 -3.31379503160316 -0.72873966596660
 1  7.02752441544154  0.48326206910691 -0.51019441144114
 1 -6.76687694969497  0.36634647454745  0.05351297429743
 1  5.62154153815382  3.02989813771377  0.59555181018102
 1 -4.87037085708571 -2.15722702980298 -0.71543894389439
 1  4.63953705270527  0.24577282318232 -0.51598000900090
 1 -4.17869337333733  0.52720783768377  0.22549534553455
 1  3.36532431743174  3.08679272117212  1.53102930393039
 1  1.82121877487749  3.44187285818582  0.84505691369137
 1  3.25443946594659  3.93608144204420 -0.12238273427343
 1 -3.22936507350735 -2.87754490159016 -0.15565860986099
 1 -2.85999550755075 -2.31170229032903 -1.92339630663066
 1 -1.36281308030803 -2.58266844194419 -0.52284532053205
 1  2.30759791779178 -0.19788843994399 -0.60843874787479
 1 -2.03245264626463  1.32862278017802 -0.11919853285329
 1  0.31608735573557  1.77989069496950  0.41273706870687
 1  0.06869963996400 -0.84500445054505 -0.81099868386839

