%nproc=4
%Mem=2GB
# td=(NStates=1) CAM-B3LYP/6-31G(d,p) 

TD

0 1
 8  14.86391461046105 -1.92278975007501 -0.18085693869387
 8 -14.77513411041104  1.91047290329033  0.79461855585559
 6  11.41400469446945 -1.25548618271827  1.23631699269927
 6 -12.35794342634263 -0.88186074607461  0.77886340834083
 6  12.92115084708471 -1.31953499159916  1.14354192619262
 6 -13.70601321032103 -0.25291145114511  0.76297519351935
 6  13.40214220822082 -1.79926545364536 -0.23546843584358
 6 -13.54902724272427  1.29314211221122  0.78652043604360
 6  10.92911143714372 -0.42470668676868 -0.07103134913491
 6 -11.27781488248825 -0.26001703070307 -0.25107586158616
 6  12.99445366436644 -0.88620937803780 -1.38110898389839
 6 -12.76733749374938  1.75983396039604 -0.48703574557456
 6  11.58406315331533 -0.23096346944694 -1.18800731673167
 6 -11.51167475747575  0.87519384238424 -0.78728826782678
 6  11.01194192119212 -0.41603076117612  2.46642708370837
 6  10.63278271927193 -2.52243272437244  1.28646676667667
 6 -11.79667186118612 -0.75226705470547  2.21391997199720
 6 -12.44172487448745 -2.39577502050205  0.70751265526553
 6  9.59404423042304  0.26261729862986  0.15131181118112
 6 -10.14023539053905 -1.13576766176618 -0.47861654265427
 6  11.04869763476348  0.50104456935694 -2.32071627862786
 6 -10.75869830883088  1.48048843284328 -1.87478678567857
 6  9.38637860486049  1.54150758865887 -0.05841121512151
 6 -8.88132861786179 -0.56247980498050 -0.42401344734473
 6  8.07640362636264  2.18853859375938  0.18371404040404
 6 -7.63356849884988 -1.30565489858986 -0.51009634163416
 6  8.09336981798180  3.59090729562956  0.58019938593859
 6 -7.68985009100910 -2.73459320742074 -0.91452162716272
 6  6.90822622962296  1.59268926282628 -0.16615662166217
 6 -6.37996979998000 -0.77226270137014 -0.25066807280728
 6  5.51503205520552  2.08005571247125  0.17246216221622
 6 -5.04092521452145 -1.24418429452945 -0.46297847184718
 6  4.48132206320632  1.27576299019902 -0.12593822282228
 6 -3.98560398039804 -0.32835904200420 -0.35477280728073
 6  3.11110371537154  1.62219281718172  0.06342800780078
 6 -2.59604336833683 -0.72796712681268 -0.51197885788579
 6  2.86744702570257  3.12773222212221  0.63629633863386
 6 -2.23130862486249 -2.14748205030503 -0.67553859385939
 6  2.07235681068107  0.80117728162816 -0.32347147214721
 6 -1.63821514451445  0.26486619251925 -0.39669149614961
 6  0.64236140514051  0.98718348624862 -0.14099821982198
 6 -0.18217708670867 -0.00770287538754 -0.49407704770477
 1  13.32252152415242 -0.16713014811481  1.16867170517052
 1  13.33173840984098 -2.00471105220522  1.88026815881588
 1 -14.30212298929893 -0.60688084508451  1.56861406740674
 1 -14.22530389738974 -0.43658058105811 -0.20863248324833
 1  12.91735693769377 -2.70337508060806 -0.49900796579658
 1 -12.96522198319832  1.51346586458646  1.76108558155816
 1  13.78175910791079 -0.18284100420042 -1.43826971097110
 1  13.15260675367537 -1.31828405550555 -2.17362803880388
 1 -13.52415795979598  1.77766908790879 -1.26712464546455
 1 -12.29866847384739  2.67251931593159 -0.17869475247525
 1  11.54240286028603 -0.99847057315732  3.23328798979898
 1  9.88181404640464 -0.24625413551355  2.62672155315532
 1  11.39515878587859  0.81947168006801  2.19696883188319
 1  11.16942594559456 -3.35710629072907  0.50510589658966
 1  10.65728664566457 -2.81396631373137  2.34501442544254
 1  9.51118711971197 -2.32966395949595  1.28147309030903
 1 -11.46932383238324  0.28475404640464  2.40961485448545
 1 -10.79123363236324 -1.11946910191019  2.48783478747875
 1 -12.58275943494349 -0.86608751375138  3.10993358935894
 1 -13.33351313231323 -2.73766501850185  1.12902741174117
 1 -11.56946999499950 -2.99739176717672  0.93066812281228
 1 -12.37510786878688 -2.68324863286329 -0.48482695669567
 1  8.95107693169317 -0.46292461256126  0.52565674967497
 1 -10.20261999399940 -2.21531525552555 -0.46698633163316
 1  10.00901332033203  0.33985408330833 -2.40651535453545
 1  11.51353978897890  1.57574186508651 -2.33047276127613
 1  11.47668190319032 -0.15721620872087 -3.29431656165617
 1 -11.49306031303130  1.70019324832483 -2.73772526552655
 1 -10.24990052905291  0.66517715471547 -2.20513511951195
 1 -10.12838459345935  2.42205081808181 -1.58757235323532
 1  14.96158271127113 -2.84994389948995  0.35180707370737
 1 -14.99412884788479  2.09544445844584  1.71061926692669
 1  10.36912239423942  1.93410671457146 -0.53611292629263
 1 -8.81959865686569  0.47222932093209 -0.09004381738174
 1  9.12195505750575  4.21273112601260  0.12399609660966
 1  7.11205459445945  3.99169457835784  0.52540837383738
 1  8.36281099109911  3.71442432933293  1.63451646964696
 1 -7.99203623362336 -3.49078600770077 -0.19371521052105
 1 -8.59546530253025 -2.84529354345435 -1.66567289728973
 1 -6.62788163716372 -3.14323797589759 -1.53999079107911
 1  7.00829249224922  0.62432617551755 -0.68672206420642
 1 -6.50423068506851  0.29300914081408  0.09919754275428
 1  5.23664304830483  3.05910105800580  0.39240149514951
 1 -4.81599541954195 -2.18008931603160 -0.67378477847785
 1  4.64810790979098  0.23953219911991 -0.23620203120312
 1 -4.10171567556756  0.59866498339834  0.21470426642664
 1  3.45980376537654  3.39661370327033  1.61613781478148
 1  1.85831248424843  3.12415108600860  0.75322773077308
 1  3.10227424942494  3.86522435633563  0.05189469346935
 1 -2.90499263626363 -2.63652079917992  0.13284024002400
 1 -2.60100960896090 -2.34085520562056 -1.74594856185619
 1 -1.10642744174418 -2.36619679477948 -0.35986902290229
 1  2.46628378637864 -0.28127677877788 -0.71113901790179
 1 -1.90089949094910  1.17422734063406 -0.22720933393339
 1  0.53082882988299  1.94106681258126  0.39757555255526
 1  0.15683845384538 -0.95937588768877 -0.83010059405941

