%nproc=4
%Mem=2GB
# td=(NStates=1) CAM-B3LYP/6-31G(d,p) 

TD

0 1
 8  14.65954417341734 -2.27115458655866 -0.45234408740874
 8 -14.60673727072707  2.13216507250725  0.72870196419642
 6  11.49192248624862 -0.97223785788579  1.22573593459346
 6 -12.30232786478648 -0.84280684068407  0.74640016201620
 6  12.99924865686569 -1.35886892499250  1.08049562156216
 6 -13.62898550755076 -0.05487164716472  0.92591148714871
 6  13.36269826382638 -1.88436396349635 -0.33298818781878
 6 -13.33481582158216  1.37448024602460  0.81657344134413
 6  10.98398692469247 -0.22712692879288 -0.00003424942494
 6 -11.32560966196620 -0.22141317031703 -0.21313206720672
 6  13.02178639763976 -0.79831058815882 -1.29636050905090
 6 -12.68948970897090  1.76529450645064 -0.48128517051705
 6  11.75283003000300 -0.12585295839584 -1.12365088108811
 6 -11.52370596059606  0.85036135913591 -0.91487102610261
 6  11.40083081008101 -0.12301145924592  2.44621506250625
 6  10.75386482748275 -2.30301078217822  1.46870499049905
 6 -11.58501069506951 -0.96188801680168  2.14211279127913
 6 -12.73982468446845 -2.24766020902090  0.43596550055005
 6  9.62959778577858  0.38387942484248  0.06188286828683
 6 -10.18404977197720 -1.05222930793079 -0.47736641764176
 6  11.23524628962896  0.42391685658566 -2.44869907690769
 6 -10.72123456245625  1.39862024602460 -2.01901120812081
 6  9.29635960296030  1.68505194309431 -0.10408578257826
 6 -8.87313779877988 -0.63655721272127 -0.35805685168517
 6  7.97272325832583  2.16998673857386  0.05988165716572
 6 -7.72332747474747 -1.35805013811381 -0.52386771877188
 6  7.97016749774978  3.57491569646965  0.64727609360936
 6 -7.71464257025703 -2.86974672277228 -0.92722289728973
 6  6.87007241424142  1.50569056295630 -0.15324533053305
 6 -6.46558836183618 -0.59533500860086 -0.36037904390439
 6  5.56514706670667  1.97766547344734  0.15548046404640
 6 -5.15421654365436 -1.22848272437244 -0.40318249224922
 6  4.47081101210121  1.29790520442044 -0.11583721272127
 6 -4.00774619461946 -0.56411261736174 -0.32897022702270
 6  3.07082968796880  1.66633723162316  0.21460312531253
 6 -2.66184994899490 -0.87800213031303 -0.42075973597360
 6  2.79302958395840  2.97511696059606  0.76835954495450
 6 -2.33522901690169 -2.35213251535153 -0.86756779677968
 6  2.06508608360836  0.76906407030703 -0.14369349434944
 6 -1.73749507250725  0.05380508640864 -0.16694852185219
 6  0.59612678167817  0.80258502640264  0.00980686068607
 6 -0.30675954495450 -0.09755186028603 -0.23384102410241
 1  13.71195046704671 -0.38261169626963  1.16014085208521
 1  13.26019125512551 -1.86158673977398  1.85774590659066
 1 -13.95841861886189 -0.19939009600960  1.87414462046205
 1 -14.51438280528053 -0.30210713371337  0.15625400540054
 1  12.68883408540854 -2.83539828292829 -0.59016708170817
 1 -12.67520298129813  1.93465798379838  1.52882235523552
 1  13.79342027402740 -0.05696841694170 -1.23121900590059
 1  13.15504699769977 -1.20340256735674 -2.37428810481048
 1 -13.50953649764976  1.79553087408741 -1.36148408140814
 1 -12.33039164616462  2.84672673667367 -0.23585046804680
 1  12.02906152615262 -0.58957968406841  3.26263092409241
 1  10.33880974597460 -0.09938944904490  2.62832171317132
 1  11.68830810081008  0.80618035093509  2.28477761276128
 1  10.66022502550255 -2.98384896499650  0.62200758675868
 1  10.98708962596260 -2.88177309440944  2.39037896189619
 1  9.65631163216322 -1.92085307840784  1.53862880588059
 1 -10.92694959495950  0.13208877987799  2.29019291229123
 1 -10.70084459345935 -1.66063321832183  1.99988599259926
 1 -12.33369452845285 -1.23950485548555  2.85173776977698
 1 -13.30723050405040 -2.53736498849885  1.38617312631263
 1 -11.95615866386639 -2.98217024502450  0.46686174217422
 1 -13.32633299129913 -2.46809711771177 -0.42323079707971
 1  8.85380720472047 -0.31134945504550  0.48084226822682
 1 -10.34619435143514 -2.15955967996800 -0.34921455445545
 1  10.24452687168717  0.78881897979798 -2.31009571257126
 1  11.82928136313632  1.26341063196320 -2.67346706070607
 1  11.33428766376638 -0.19391987908791 -3.26782391239124
 1 -11.37091809880988  1.66806003500350 -2.96222771577158
 1 -9.98921446044604  0.72840347734773 -2.43536814281428
 1 -10.04871662666267  2.27437605060506 -1.60076367236724
 1  14.83764031703170 -3.15713461856186  0.00724261726173
 1 -15.16046548154815  1.72070698469847  1.46824502950295
 1  10.08439392139214  2.34371767566757 -0.27643695869587
 1 -8.66609330633063  0.37129922792279 -0.09104391739174
 1  8.51265412741274  4.28900875377538 -0.36177248024802
 1  7.02226561556156  4.02952836173617  1.14513034603460
 1  8.70036474647465  3.68239112601260  1.38727174517452
 1 -8.17264429442944 -3.44366129522952 -0.10131597059706
 1 -8.53272902890289 -2.92059107320732 -1.75208153815381
 1 -6.77406625562556 -3.26216986908691 -1.14102089408941
 1  6.98124978797880  0.65670941384138 -0.76447983998400
 1 -6.64165442744274  0.43625346524652 -0.23558593559356
 1  5.39867925192519  2.98503365126513  0.63632588758876
 1 -5.14747856785679 -2.26250755785579 -0.67199459945995
 1  4.51998509750975  0.37994624052405 -0.65652406340634
 1 -4.11323682768277  0.53859897679768  0.05362815881588
 1  3.34234201920192  3.03909795169517  1.58298449944995
 1  1.68908556155616  2.96218488938894  1.02858526652665
 1  3.11636565856586  3.68657649154915  0.10218972297230
 1 -2.56288842584258 -3.07156430353035  0.03216017201720
 1 -2.71150065806581 -2.59350047014701 -1.77573154015402
 1 -1.34218101710171 -2.25893606870687 -1.26421945794579
 1  2.62081923992399 -0.13182183328333 -0.59742764676468
 1 -1.76671607260726  1.05445536343634  0.17897128412841
 1  0.03706945394539  1.82979568546855  0.25007080208021
 1  0.20517328732873 -1.20840079017902 -0.38430601460146

