%nproc=4
%Mem=2GB
# td=(NStates=1) CAM-B3LYP/6-31G(d,p) 

TD

0 1
 8  14.53177139613961 -2.44879235033503 -0.40108896189619
 8 -14.86872346934693  1.82304416041604  0.44142323632363
 6  11.33998729272927 -1.20664129822982  1.12289565056506
 6 -12.29402703470347 -0.92404496449645  0.83821934393439
 6  12.85594432643264 -1.52936597469747  1.07061463346335
 6 -13.68929153815382 -0.27955411541154  0.67444634063406
 6  13.17878987298730 -1.99643517061706 -0.22997788678868
 6 -13.57535987598760  1.28054085208521  0.59702148614861
 6  10.89644817081708 -0.25874009010901 -0.04088833483348
 6 -11.35379248024802 -0.35497652665267 -0.07796855085509
 6  12.99056327532753 -0.87899865696570 -1.28005887888789
 6 -12.70321108110811  1.59358733573357 -0.63270031203120
 6  11.57692243924392 -0.16074644774477 -1.19379789578958
 6 -11.45668925892589  0.81249757275728 -0.82172171117112
 6  11.03779450645065 -0.51864102220222  2.50411085208521
 6  10.39813925492549 -2.49009949104910  1.13059117911791
 6 -11.82211440544054 -0.74076590459046  2.23725230523052
 6 -12.53480418241824 -2.41602704570457  0.66567847184718
 6  9.63122794879488  0.44686572347235  0.03808048804880
 6 -10.02723409040904 -1.11583566856686 -0.40113879487949
 6  11.15957872287229  0.52861732663266 -2.43758796579658
 6 -10.62934537353735  1.32856324032403 -1.94844415141514
 6  9.46300626762676  1.75028846674667 -0.21288666266627
 6 -8.74363484848485 -0.57399095609561 -0.16184723072307
 6  8.02713869986999  2.45789552945295  0.04754042304230
 6 -7.54929007100710 -1.37421175427543 -0.29673500550055
 6  8.17287776877688  3.95119332423242  0.45733709970997
 6 -7.68824993099310 -2.79561931003100 -0.76644681968197
 6  6.98539394639464  1.65544553845385 -0.07355736173617
 6 -6.29051085408541 -0.62933840894089 -0.34292729872987
 6  5.58922947494750  2.02514022092209  0.15316023202320
 6 -4.96164728672867 -1.08122799889989 -0.50235240924092
 6  4.52584651565156  1.25718113201320  0.11226559755976
 6 -3.94178959895990 -0.29886609270927 -0.31043837383738
 6  3.15422802780278  1.64799539743974  0.27052871787179
 6 -2.62541630563056 -0.67747207730773 -0.48137579757976
 6  2.86976725772577  3.09467891679168  0.61959466846685
 6 -2.33151864586459 -1.97559486158616 -1.06873791379138
 6  2.14616419141914  0.80301746564656  0.03062393739374
 6 -1.63839516251625  0.19200890679068 -0.10803263026303
 6  0.72853002200220  1.04072884078408  0.11751763176318
 6 -0.18046691569157  0.04400229512951 -0.23783142314231
 1  13.33720299229923 -0.56677011211121  1.46450128812881
 1  13.29921515751575 -2.26996757785779  1.78584871687169
 1 -14.08494127112711 -0.64248440544054  1.70611781778178
 1 -14.27005837283728 -0.56922384538454 -0.11066268626863
 1  12.54315951795179 -3.01438618171817 -0.58146621162116
 1 -13.05335079607961  1.79415393339334  1.37241671467147
 1  13.79992092409241 -0.16116883698370 -1.23000888488849
 1  13.07658915191519 -1.12823505060506 -2.51460213621362
 1 -13.23509905390539  1.48572989398940 -1.58638657165717
 1 -12.56013462046205  2.71741380538054 -0.50949783278328
 1  11.18230685068507 -1.45772649874988  3.25415007600760
 1  9.99731559655966 -0.21805131523152  2.57928680968097
 1  11.70571984198420  0.37393712661266  2.81922105710571
 1  10.30538954195420 -2.89984056415642  0.18634402040204
 1  10.82335325232523 -3.40393531063106  1.82787271127113
 1  9.23234923592359 -2.24480547364737  1.41026596959696
 1 -11.94045094509451  0.43918948994899  2.51137503050305
 1 -10.87798230723072 -1.19044619961996  2.31241724572457
 1 -12.52771393039304 -1.13579448444845  3.06749934593459
 1 -13.31458123912391 -2.63977522952295  1.35651016001600
 1 -11.59256230423042 -2.87709973797380  0.93978903490349
 1 -12.80909126712671 -2.92440274827483 -0.30871934593459
 1  8.77666949094909 -0.02551087118712  0.57894207820782
 1 -10.21998173017302 -2.13925764976498 -0.27987762076208
 1  10.18825124412441  0.84656475437544 -2.23561826482648
 1  11.72050048504851  1.43546783768377 -2.62701241524152
 1  11.42444667966797 -0.10334082118212 -3.39425655565557
 1 -11.15619662666267  1.82618584758476 -2.78880037303730
 1 -9.89789532853285  0.65516615361536 -2.44756936293629
 1 -9.80807256225623  2.02279089208921 -1.65203879987999
 1  14.72568912191219 -3.19184808990899  0.12117401040104
 1 -15.22289172417242  1.93402831683168  1.42535074007401
 1  10.39963544554455  2.33339664356436 -0.40054936993699
 1 -8.46687338433843  0.45236733473347  0.29262444944494
 1  8.56909977197720  4.46712656555656 -0.45165146814681
 1  7.15753914291429  4.45466087498750  0.63016884988499
 1  8.56919162916292  4.02752563946395  1.44465748374837
 1 -7.82973000300030 -3.56836376547655  0.00064422542254
 1 -8.64197995399540 -2.85589460356036 -1.43253958395840
 1 -6.79179802880288 -3.19766341844184 -1.30197698969897
 1  7.19926158915892  0.58096183908391 -0.38678207020702
 1 -6.26404666666667  0.51624146404640 -0.14246662366237
 1  5.65898528252825  3.10114526242624  0.32363461846185
 1 -5.03645746574657 -2.16792809990999 -0.58798619861986
 1  4.75434853385339  0.21996024192419 -0.05490390139014
 1 -4.12117762176218  0.70369548644865  0.00025282128213
 1  3.48942672767277  3.17366140804080  1.56686288728873
 1  1.89258591159116  3.32460113101310  0.92839524752475
 1  3.31058508050805  3.88680651455146  0.02918242224222
 1 -2.39935207220722 -3.06036318341834 -0.41945498949895
 1 -3.01442095009501 -2.17952907300730 -2.09048301530153
 1 -1.21427822682268 -1.96404657975798 -1.33000603660366
 1  2.50335749374938 -0.27117576867687 -0.10053795779578
 1 -1.79342874387439  1.32467238513851  0.22426581358136
 1  0.47720346734673  2.00394310021002  0.40567636263626
 1  0.19489225922592 -0.95334528462846 -0.35636322032203

