%nproc=4
%Mem=2GB
# td=(NStates=1) CAM-B3LYP/6-31G(d,p) 

TD

0 1
 8  14.78864708370837 -2.14916238733873 -0.26741559455946
 8 -14.66981357835784  1.99070092609261  0.93351244524452
 6  11.41172446644664 -1.14997563166317  1.16410977197720
 6 -12.42026965896590 -1.02844540454045  0.73354887688769
 6  12.83918265026503 -1.43066610471047  1.20118769076908
 6 -13.78111072007201 -0.23016917691769  0.70637953395340
 6  13.40248224222422 -1.96284181128113 -0.18674356335634
 6 -13.52842518251825  1.28460125812581  0.77882966696670
 6  10.90017854385439 -0.20980519661966 -0.04066831283128
 6 -11.30702780378038 -0.35884691369137 -0.14567532153215
 6  12.98255247424742 -1.04925568266827 -1.28305917891789
 6 -12.72895365536554  1.80460843784378 -0.41000804280428
 6  11.64798954595460 -0.28095846894689 -1.08412692869287
 6 -11.52475606560656  0.93810013301330 -0.70592013101310
 6  11.26876760376038 -0.41075023312331  2.56237667866787
 6  10.64889433043304 -2.44404488558856  1.34840296029603
 6 -11.92443463746375 -0.99135096309631  2.17177575757576
 6 -12.69404010601060 -2.46606204920492  0.24314621862186
 6  9.66165099109911  0.46557759465947  0.26584326432643
 6 -10.07064843184318 -1.06290037503750 -0.38339702070207
 6  11.21742450745074  0.55028949384938 -2.38511271827183
 6 -10.75701814081408  1.70644102810281 -1.74572387938794
 6  9.38085805280528  1.69831326922692 -0.15098047204720
 6 -8.78108859385939 -0.60808436543654 -0.25475652165217
 6  8.00073605960596  2.31723146304630 -0.07816214721472
 6 -7.55350049204920 -1.30831516461646 -0.44788012001200
 6  8.09797027802780  3.82388059295930  0.27168853485349
 6 -7.63034414041404 -2.72380212831283 -1.01568174317432
 6  6.92352775977598  1.48193818771877 -0.08731873787379
 6 -6.37033883688369 -0.61565704080408 -0.30919392539254
 6  5.55319587158716  1.96713442034203  0.00771568756876
 6 -5.04434555655565 -1.09367924402440 -0.55134730873087
 6  4.50980491149115  1.20431584548455 -0.10043567256726
 6 -3.98644406440644 -0.37645385148515 -0.21905923592359
 6  3.11591419641964  1.68940953885389  0.03319498449845
 6 -2.63245700970097 -0.75811014111411 -0.32907056705671
 6  2.85783606460646  3.11939138803880  0.31653436243624
 6 -2.36678217221722 -2.25273257535754 -0.80956199619962
 6  2.14896447144714  0.75843300720072 -0.03238236323632
 6 -1.59571089408941  0.13983368926893 -0.21963379037904
 6  0.70315748474847  0.90312508040804  0.06899277927793
 6 -0.21482035103510 -0.01297340244024 -0.27501514151415
 1  13.31963123512351 -0.44843827892789  1.39559439743974
 1  13.29237447344735 -2.04550513161316  1.77259739173917
 1 -14.46158893589359 -0.39495965296530  1.55718292429243
 1 -14.16049741674168 -0.49314623762376 -0.27198881888189
 1  13.01712691469147 -2.77800254335434 -0.22138020302030
 1 -12.95561102210221  1.61199571757176  1.59683915691569
 1  13.62560349234924 -0.10180290039004 -1.28442432643264
 1  13.12910440344034 -1.45945817291729 -2.35771644764476
 1 -13.36557210121012  1.64204552555256 -1.21162909590959
 1 -12.36701530853085  2.92899496349635 -0.30856773977398
 1  11.50384900490049 -0.99911063716372  3.59195385638564
 1  9.97503336833683 -0.15858536863686  2.53550243124312
 1  11.74690396039604  0.55602533543354  2.44691382638264
 1  10.48760776377638 -2.95307588768877  0.22602798879888
 1  11.12020293729373 -3.07245216231623  2.13365328932893
 1  9.71852785378538 -2.11975296839684  1.58003294629463
 1 -12.16186308630863  0.13966953795379  2.45518941194119
 1 -11.11529603860386 -1.47172432743274  2.38552455645565
 1 -12.76945810481048 -1.48737964296430  2.79622221822182
 1 -13.33402318331833 -2.94790604260426  0.97302181118112
 1 -11.72233528152815 -3.02181420942094  0.32685774177418
 1 -13.02753311131113 -2.58320862886289 -0.89245771977198
 1  8.77098892289229 -0.04874319441944  0.75652983698370
 1 -10.21584131613161 -2.35944966896690 -0.40202983598360
 1  10.24606702570257  0.67552765066507 -2.23946864986499
 1  11.58078651365137  1.44893918481848 -2.47397711171117
 1  11.25016925192519 -0.06166665376538 -3.44287141714171
 1 -11.33271427842784  2.22978620762076 -2.61609310231023
 1 -10.01637717671767  0.84876551355135 -2.29804441044104
 1 -9.88808056305631  2.33165177817782 -1.40511410741074
 1  15.02330888388839 -2.72477138223822  0.41686357935794
 1 -15.27106654165416  1.56181109510951  1.70961916691669
 1  10.26203168516852  2.24456776067607 -0.56564587958796
 1 -8.65465216221622  0.46577867586759  0.17547273427343
 1  8.70793365536554  4.59201905480548 -0.43602990599060
 1  7.15858924792479  4.23339874877488  0.50245607860786
 1  8.49002371237124  3.82082496939694  1.12315533353335
 1 -8.04391142114211 -3.48632556165617 -0.23694953395340
 1 -8.49921567756776 -2.85502451655166 -1.81668799879988
 1 -6.60590943994399 -3.13707735983598 -1.30313710571057
 1  7.02684434743474  0.55711945484548 -0.13116650865087
 1 -6.52109237123712  0.61906174607461 -0.42046442344234
 1  5.20329971397140  2.99504465236524  0.18490074507451
 1 -4.79798361836184 -2.15631693879388 -0.96509390939094
 1  4.63595669466947  0.12393063896390 -0.13910232123212
 1 -4.13828933293329  0.72133725062506  0.12061485748575
 1  3.16810459545955  3.52467650955096  1.36177237823782
 1  1.71082773577358  3.33667233813381  0.35653806180618
 1  3.26407042904290  3.71257909180918 -0.68539903590359
 1 -2.87357949494949 -3.19848699579958 -0.25157820182018
 1 -2.73831333933393 -2.15986710681068 -1.94620858785879
 1 -1.37648444744474 -2.50820099519952 -0.93823685968597
 1  2.35048220622062 -0.31390004110411 -0.37369527352735
 1 -1.74009341034103  1.17055697359736 -0.21836844984499
 1  0.24463021002100  1.92072477837784  0.56687248224822
 1  0.12261503150315 -1.03428337843784 -0.67644522852285

