%nproc=4
%Mem=2GB
# td=(NStates=1) CAM-B3LYP/6-31G(d,p) 

TD

0 1
 8  14.78732695169517 -2.00677814891489 -0.53886273927393
 8 -14.71820841784178  2.23260511651165  0.73727282128213
 6  11.51806510051005 -1.08244887898790  1.18876223722372
 6 -12.38224585658566 -0.91128368836884  0.72447796979698
 6  13.03887261926193 -1.28573161126113  1.03778135013501
 6 -13.67424003300330 -0.16066222622262  0.68501739773977
 6  13.45810780478048 -1.87639316641664 -0.33717860686069
 6 -13.55166750675068  1.27462026002600  0.64471625562556
 6  11.04814334033403 -0.29525374147415 -0.02105635163516
 6 -11.41445854685468 -0.27160818981898 -0.17156791079108
 6  12.97570178917892 -0.86346710381038 -1.41771264426443
 6 -12.73478423842384  1.80788876587659 -0.57450449244925
 6  11.66412115911591 -0.20673104620462 -1.23674219021902
 6 -11.52104569456946  0.90014633763376 -0.86027556655666
 6  11.29171989898990 -0.34647380548055  2.47495793679368
 6  10.82256169716972 -2.38953943504350  1.39497761776178
 6 -11.84641683568357 -1.06796862486249  2.13248182818282
 6 -12.72944364636464 -2.37893333633363  0.20533243724372
 6  9.75938076407641  0.39384042094209  0.14422110211021
 6 -10.09333070007001 -0.98891297629763 -0.44665334633463
 6  11.03587635263526  0.50701516641664 -2.40369457645765
 6 -10.62201464046405  1.56210659465947 -1.89798910591059
 6  9.42523249024902  1.67597103500350 -0.11872724672467
 6 -8.82414289928993 -0.47569112611261 -0.31439248524852
 6  8.06878286428643  2.28497823772377  0.00476614561456
 6 -7.62098724072407 -1.25025935903590 -0.42495782778278
 6  8.10617109810981  3.78639684458446  0.24559592559256
 6 -7.78133923992399 -2.81720146824683 -0.59451962696270
 6  6.93826923392339  1.54145413931393  0.06722671667167
 6 -6.50858266126613 -0.61779725482548 -0.38356136213621
 6  5.47969852185219  1.98924663156316  0.28759367536754
 6 -5.12720384238424 -1.09436931303130 -0.57567974197420
 6  4.41990592159216  1.13257867176718  0.20110448144814
 6 -4.01816723672367 -0.39651585768577 -0.33700103010301
 6  3.02976558155816  1.51849244714471  0.33636530153015
 6 -2.66492025602560 -0.87668199829983 -0.25953361336134
 6  2.78571885288529  2.96949639853985  0.55260796979698
 6 -2.40596609060906 -2.28789609170917 -0.60955199519952
 6  2.10761033603360  0.56254341824182  0.05890676567657
 6 -1.65770709370937  0.05191489738974 -0.17199902690269
 6  0.75063223222322  0.78856362426243 -0.03348746874687
 6 -0.25658452745275 -0.18459056415642 -0.24589222922292
 1  13.61679095109511 -0.35823925902590  1.17024186218622
 1  13.41441667766777 -1.99832041314131  1.77431756375638
 1 -14.31059383638364 -0.49967012401240  1.55053225922592
 1 -13.99650101710171 -0.36615353835384 -0.04693631363136
 1  12.85726092809281 -2.80574531763176 -0.41992005700570
 1 -12.88818427942794  1.58733325132513  1.45505497849785
 1  13.62987391939194 -0.02282500260026 -1.37555343934393
 1  13.02018351135114 -1.47569979707971 -2.33572424842484
 1 -13.45202074607461  1.78786010701070 -1.35549348234823
 1 -12.60740934793479  2.91433349734974 -0.60667755075508
 1  11.74027264726473 -0.92996372247225  3.39811447244724
 1  10.29722558755876 -0.07232674277428  2.65146402740274
 1  12.10333960396040  0.50846057895790  2.46936607160716
 1  10.90556955995599 -2.98160874097410  0.30978636463646
 1  11.23781469846985 -2.87273219031903  2.12190211421142
 1  9.73128912991299 -2.31394238733873  1.59941488448845
 1 -11.63263016301630 -0.04988941794179  2.54871876487649
 1 -10.95769027802780 -1.62625978097810  2.01364736873687
 1 -12.48798995799580 -1.63538444344434  2.79480207620762
 1 -13.75677545854585 -2.70160141214121  0.89893440244024
 1 -11.78463151115111 -3.19039106710671  0.25044010001000
 1 -13.00957131513151 -2.40959126712671 -0.98312678667867
 1  8.91352317631763 -0.23708202830283  0.61696588058806
 1 -9.82387211921192 -2.09094281828183 -0.52055168816882
 1  9.99887230623062  0.59614971287129 -2.44550925392539
 1  11.39336777177718  1.44153844474447 -2.74065377937794
 1  11.32799703470347  0.03987350025003 -3.40493762376238
 1 -11.35321632863286  1.85421865086509 -2.75250674367437
 1 -9.86007154615462  0.85345598259826 -2.31459606560656
 1 -10.20712246724672  2.42619123212321 -1.33815741174117
 1  15.11946849984998 -2.59897880298030  0.13273516651665
 1 -15.24514394939494  2.01131604560456  1.57880608560856
 1  10.15006048804880  2.12932623652365 -0.58744805980598
 1 -8.62103880088009  0.51038313631363  0.03114830183018
 1  8.32296515851585  4.41776162906291 -0.62007831083108
 1  7.10278366736674  3.99795520442044  0.59212504550455
 1  8.93091780178018  3.83794668156816  1.05531854985499
 1 -8.48199522952295 -3.16526345544554  0.25403956495650
 1 -8.35314107010701 -3.20748976307631 -1.48256458645865
 1 -6.76176502550255 -3.33745739783978 -0.52849964196420
 1  7.02511417441744  0.27918166106611  0.07118372637264
 1 -6.36993725572557  0.49394923482348 -0.18437081408141
 1  5.10051943594359  3.06252140004000  0.62842509750975
 1 -5.00285410541054 -2.14848615571557 -0.86503390339034
 1  4.37841094009401  0.10654890079008 -0.06066447744775
 1 -4.19527503150315  0.67138225512551  0.16979977597760
 1  3.27861564656466  3.53076711861186  1.51119732073207
 1  1.62933958695870  3.23055172607261  0.65379778777878
 1  3.30809483148315  3.50444827872787 -0.36537703370337
 1 -2.66633877087709 -2.82438958605861  0.24144110011001
 1 -2.94426393439344 -2.69648076817682 -1.51950591759176
 1 -1.54950174917492 -2.44463463856386 -0.72985602160216
 1  2.46000315831583 -0.56832548364837  0.08820091609161
 1 -1.96254565556556  0.87383730163016  0.12225561256126
 1  0.18339408640864  1.82182488838884  0.27249304430443
 1 -0.12833006300630 -1.27492744284428 -0.64499208320832

