%nproc=4
%Mem=2GB
# td=(NStates=1) CAM-B3LYP/6-31G(d,p) 

TD

0 1
 8  14.64689290829083 -2.29167663876388 -0.41582043504350
 8 -14.69052564956496  2.10374223022302  0.86584567856786
 6  11.33900719471947 -1.08866950105010  1.30680404140414
 6 -12.28711634363436 -0.84297685768577  0.81378690069007
 6  12.89323805580558 -1.51887492559256  1.05205277727773
 6 -13.56536914591459 -0.12154831483148  0.77534643064306
 6  13.31515350935094 -1.95206073317332 -0.34422931193119
 6 -13.43399573957396  1.45215801380138  0.81523330733073
 6  10.97187571357136 -0.26836105220522  0.09178493249325
 6 -11.29520662166217 -0.27958898789879 -0.16746750075008
 6  12.96148036703670 -0.71959271637164 -1.20849172217222
 6 -12.73522428242824  1.73669164616462 -0.54892193419342
 6  11.63819856685669 -0.13394376747675 -1.13423193919392
 6 -11.45564915491549  0.83994031703170 -0.78031757075708
 6  11.24885561256126 -0.31584074217422  2.59227966896690
 6  10.49742918391839 -2.44827530863086  1.27895601560156
 6 -11.71871406540654 -0.96054788278828  2.27533611361136
 6 -12.68811951395140 -2.36924236723672  0.42567447144714
 6  9.60860568656866  0.30460149704971  0.29059573957396
 6 -10.08781014801480 -1.10902498749875 -0.36295497649765
 6  11.23488625362536  0.62482694759476 -2.29376358335834
 6 -10.63418585758576  1.45745612961296 -1.89647895489549
 6  9.40058002500250  1.55308874677468  0.02164679067907
 6 -8.86091657665767 -0.58859241624162 -0.23048409440944
 6  8.08780476647665  2.25828556845685  0.14838050705071
 6 -7.62357749974998 -1.32964729782978 -0.45682101410141
 6  8.09574005500550  3.81456966186619  0.52839420542054
 6 -7.78510961696170 -2.81822157025703 -0.86985716071607
 6  6.85305071207121  1.61450144404440 -0.09632963896390
 6 -6.43473527652765 -0.76257173227323 -0.20411341734173
 6  5.63739429142914  2.16518422532253  0.05183009900990
 6 -5.08677979998000 -1.32054193029303 -0.37559973397340
 6  4.47086101710171  1.39485489938994 -0.20723635263526
 6 -3.96723214321432 -0.52875908200820 -0.30666799679968
 6  3.00385299029903  1.78000859875988 -0.05099343434343
 6 -2.56762052605261 -0.91459578967897 -0.62157981798180
 6  2.77110739173917  3.14977442634263  0.45649835883588
 6 -2.33438893289329 -2.40556785888589 -0.88417945794579
 6  2.07900747574757  0.84234139803980 -0.31945107010701
 6 -1.63179450245024  0.02804251015102 -0.30307213421342
 6  0.61364853385339  0.98813358125813 -0.26691081108111
 6 -0.10646951595160 -0.08534063916392 -0.49723736373637
 1  13.36260553255326 -0.59348278337834  1.31791662966297
 1  13.26913214921492 -2.38092867396740  1.65168530053005
 1 -14.32238501550155 -0.41376153315332  1.51743894989499
 1 -14.09727109410941 -0.38196511951195 -0.28722034203420
 1  12.57074227622762 -2.93186792989299 -0.53525159015902
 1 -12.67397285828583  1.69997451545154  1.68959843284328
 1  13.65022595459546  0.11163844374437 -1.02837872187219
 1  13.20077157015702 -1.07722995009501 -2.18601927792779
 1 -13.32500804480448  1.57244856585659 -1.26061399439944
 1 -12.40580918791879  2.86067813181318 -0.54993187618762
 1  11.63795241524153 -1.12046277237724  3.34419908090809
 1  10.07838370337034 -0.28799830993099  2.75136401740174
 1  11.88400767076708  0.52049178207821  2.46489562456246
 1  10.59126812981298 -3.10557113721372  0.47067245324532
 1  10.73944486148615 -3.00024494159416  2.15405532953295
 1  9.44459046004600 -2.25467646074607  1.68833377637764
 1 -11.63761066106611  0.07992356335634  2.61456534953495
 1 -10.65058956795680 -1.43911106610661  2.04098010201020
 1 -12.53574473347335 -1.49000990599060  2.81013360936094
 1 -13.62018179917992 -2.57029828182818  0.98230273927393
 1 -11.84384743274327 -2.93959598759876  0.49996505250525
 1 -13.06680703870387 -2.26975728372837 -0.54828330233023
 1  9.02913473747375 -0.34010233033303  0.85628981298130
 1 -9.93301303330333 -2.09370309430943 -0.62866249924992
 1  10.17707012601260  0.89678977687769 -2.40637534053405
 1  11.92418085308531  1.49301359225923 -2.45636535053505
 1  11.57207144214422 -0.03492397949795 -3.14108123812381
 1 -11.27315832283228  1.74428765776578 -2.60580207320732
 1 -9.95881142014202  0.86062669966997 -2.43002760876088
 1 -10.11043279827983  2.43469208220822 -1.52454605060506
 1  15.02847940094009 -2.88863776887689  0.34561645464546
 1 -15.14419385438544  1.69555446944694  1.59791799679968
 1  10.37020250225022  2.15076838073807 -0.14168348334834
 1 -9.03608030503050  0.43655575357536  0.05649083608361
 1  8.69962282428243  4.48793864676468 -0.05378168116812
 1  7.13013640264026  4.25162057095710  0.40755658865887
 1  8.35406011601160  3.83971685858586  1.45895891389139
 1 -8.34182121212121 -3.31746867596760  0.05960012101210
 1 -8.45168092409241 -2.98719773387339 -1.69947627762776
 1 -6.63879272827283 -3.35297894999500 -0.87956474847485
 1  6.77578924192419  0.67921166406641 -0.58243163516352
 1 -6.28530879287929  0.17102694259426  0.10832845584558
 1  5.32597198119812  3.18300344824482  0.38570082508251
 1 -5.05225904590459 -2.35964727182718 -0.60580798079808
 1  4.60959405840584  0.42731097699770 -0.61090950195019
 1 -4.05351085508551  0.43474859175918  0.27420021602160
 1  3.17628541354135  3.36552059395940  1.38932513351335
 1  1.70098675167517  3.28998766966697  0.56078848684868
 1  3.36260028202820  3.90846868076808 -0.06364686068607
 1 -2.65021715871587 -3.07146429352935 -0.12915595959596
 1 -2.72461196919692 -2.58756987708771 -1.79158312531253
 1 -1.24371117011701 -2.43558373347335 -0.77858089408941
 1  2.36720387838784 -0.25507415851585 -0.53671157515752
 1 -1.90228962996300  1.00963088098810  0.07927131413141
 1  0.17543329032903  1.94314702060206  0.37666346134613
 1  0.25554832483248 -0.98562851295130 -0.56657424142414

