%nproc=4
%Mem=2GB
# td=(NStates=1) CAM-B3LYP/6-31G(d,p) 

TD

0 1
 8  14.61668988798880 -2.37599507060706 -0.46819567256726
 8 -14.81117771477148  2.00503235923592  0.80264935893589
 6  11.46095938993899 -1.03821445554555  1.19269263026303
 6 -12.29117674967497 -0.95836839683968  0.83140866286629
 6  12.92091082308231 -1.51791482958296  1.00456802880288
 6 -13.66836944594459 -0.24240040004000  0.74456335233523
 6  13.26685867986799 -2.01704723182318 -0.38668355735574
 6 -13.48349068906891  1.39541233923392  0.72492427642764
 6  10.98509703570357 -0.31694591069107  0.05974172817282
 6 -11.31598869986999 -0.26300732973297 -0.18506926092609
 6  13.00880509950995 -0.93477423452345 -1.31122199519952
 6 -12.72879363936394  1.83130110711071 -0.58387542954295
 6  11.66165091209121 -0.27191756485649 -1.11640015601560
 6 -11.53479706970697  0.88306462946295 -0.90899043804380
 6  11.36452717971797 -0.11779093719372  2.40632107310731
 6  10.62995243624363 -2.26415689678968  1.35635375537554
 6 -11.70102229622962 -0.83355518351835  2.24312289228923
 6 -12.54973567556756 -2.39409485248525  0.38546045004500
 6  9.67374220022002  0.40927196409641  0.28405508550855
 6 -10.07009837683768 -1.05843992899290 -0.45838451945195
 6  11.25985875087509  0.50168463336334 -2.31015522252225
 6 -10.54400683968397  1.60980136413641 -1.79256856385639
 6  9.25720568756876  1.62728616651665 -0.19534490849085
 6 -8.78853933893389 -0.58031158815882 -0.29392043804380
 6  8.02406839283928  2.29173891379138  0.11492716171617
 6 -7.63615875787579 -1.37153148624862 -0.53905923792379
 6  8.10844132513251  3.87773597849785  0.33083444944494
 6 -7.70055116111611 -2.77839758785879 -1.06411658665867
 6  6.79714512151215  1.58237823172317 -0.05561556755676
 6 -6.38684048704870 -0.74526000110011 -0.31395440144014
 6  5.51323187518752  2.12051975887589  0.14718963496350
 6 -5.08254937693769 -1.28739861596160 -0.49988216221622
 6  4.35626955795580  1.29427484138414 -0.07163279227923
 6 -3.91031645164516 -0.61093729982998 -0.24793212321232
 6  2.93642624762476  1.73512411031103  0.14176584158416
 6 -2.54161792579258 -0.99176350645065 -0.41491915191519
 6  2.76800708170817  3.16582603150315  0.63135584458446
 6 -2.32140763476348 -2.32096939903990 -0.79465050505051
 6  2.09092866786679  0.73517068096810 -0.06417554255426
 6 -1.55346666966697  0.04394410031003 -0.12281410841084
 6  0.67984515351535  0.94945971387139  0.09230511051105
 6 -0.25811468046805 -0.06108821392139 -0.12408004800480
 1  13.60232950495049 -0.72342577767777  1.18604344234423
 1  13.11453668966897 -2.34302488358836  1.91449158115812
 1 -14.28907168416842 -0.39512966996700  1.54741194719472
 1 -14.19042040904090 -0.37326424942494 -0.06668828882888
 1  12.46422162416242 -2.86602134523452 -0.77511557655766
 1 -12.92340780178018  1.68794331233123  1.56969644264426
 1  13.74099503150315 -0.35647836793679 -1.52052793679368
 1  12.98884037703770 -1.18630085718572 -2.45526620262026
 1 -13.38433397739774  2.01667298829883 -1.55853378637864
 1 -12.33460206720672  2.86402846684669 -0.32382926592659
 1  11.74794341434144 -0.55371609770977  3.30244490549055
 1  10.37431329632963  0.25397588748875  2.71103998499850
 1  11.82695196519652  0.82411214411441  2.26168530353035
 1  10.74042304530453 -2.81210179027903  0.47115250125012
 1  11.10142105910591 -2.79426434353435  2.19329925392539
 1  9.46884288528853 -2.17524851795180  1.81917686068607
 1 -11.63095999599960  0.10289586058606  2.46707060006001
 1 -10.72283679267927 -1.34765192019202  2.38144414841484
 1 -12.53040419941994 -1.38103900890089  2.80306290229023
 1 -13.52640242124212 -2.54573582558256  1.11257576657666
 1 -11.90183323132313 -3.09206123412341  0.66910196619662
 1 -12.65997635563556 -2.38611891989199 -0.71339981398140
 1  8.86783860786079 -0.23200152025203  0.82825700970097
 1 -10.35860559255926 -1.98806253025303 -0.77023665666567
 1  10.10688310731073  0.51759185708571 -2.23079778277828
 1  11.54973340834083  1.66391068196820 -2.21071078507851
 1  11.82557679267927  0.05830534343434 -3.32637976797680
 1 -11.01894290129013  1.93234646364636 -2.78374986798680
 1 -9.75906144514452  0.97187782478248 -2.32272687868787
 1 -10.06034778977898  2.54468308130813 -1.31519511551155
 1  14.83551010401040 -2.85769467456746  0.43486537953795
 1 -15.35129456445645  1.60240515451545  1.62425063006301
 1  10.07588307030703  2.10372367626763 -0.83469278427843
 1 -8.56553325032503  0.57701979998000 -0.04874968796880
 1  8.59751261326133  4.37599745264526 -0.32590889388939
 1  7.22617600660066  4.44384979387939  0.40175600860086
 1  8.32565727572757  4.08275116201620  1.29071208920892
 1 -8.58685571557156 -3.34654158325833 -0.58223406240624
 1 -8.21735749174917 -2.69669868396840 -1.97351368136814
 1 -6.83339218821882 -3.11611526362636 -1.06599339133913
 1  6.88372003500350  0.64005774867487 -0.16844023602360
 1 -6.49862012401240  0.30522036193619  0.00176779977998
 1  5.59134851885188  3.25534068196820  0.23975623062306
 1 -5.13582740274027 -2.46327763486349 -0.65615301530153
 1  4.62854595359536  0.28906715261526 -0.29572798379838
 1 -4.03384888888889  0.47568268516852 -0.02625982998300
 1  3.26207399239924  3.39384342624262  1.49393559455946
 1  1.53588024102410  3.46553522442244  0.60942335033503
 1  3.22179620162016  3.90230806470647 -0.08063855985599
 1 -2.70099223622362 -3.05337248434843 -0.15619866386639
 1 -2.74095360336034 -2.48678979907991 -1.75133910091009
 1 -1.19907670667067 -2.37926810191019 -0.87995103110311
 1  2.46240339833983 -0.26219487058706 -0.33649155315531
 1 -1.99329873087309  1.07707762566257  0.16055944294429
 1  0.29437518451845  1.96391909780978  0.26528232323232
 1  0.39538230823082 -1.15529547964797  0.04510692669267

