%nproc=4
%Mem=2GB
# td=(NStates=1) CAM-B3LYP/6-31G(d,p) 

TD

0 1
 8  14.75780399939994 -1.93736120722072 -0.62869172217222
 8 -14.75387198419842  2.08539039503950  0.61339043304330
 6  11.58713200720072 -1.08469910401040  1.26913027402740
 6 -12.32219985198520 -0.87126968696870  0.63205872787279
 6  13.07732646464646 -1.31029406750675  0.99851742374237
 6 -13.62894550355036 -0.06119227922792  0.69192808880888
 6  13.40660265426543 -1.82519804690469 -0.46757164616462
 6 -13.49504184418442  1.42526532453245  0.60341212521252
 6  11.03394192019202 -0.29089330543054  0.00376613061306
 6 -11.33473057405740 -0.15664669366937 -0.25156591059106
 6  12.87120133913391 -0.76156691379138 -1.51618249124912
 6 -12.83914467446745  1.85759373637364 -0.72151919391939
 6  11.51164591159116 -0.32273264636464 -1.26848536453645
 6 -11.57340093009301  0.99858618161816 -0.85159469846985
 6  11.41041176817682 -0.14195335343534  2.41084152515252
 6  10.92402184318432 -2.38992947404740  1.44653277327733
 6 -11.90094228822882 -0.83181500950095  2.15078365836584
 6 -12.62299300130013 -2.28349379237924  0.21091299529953
 6  9.69375420142014  0.33927496439644  0.35452213221322
 6 -10.11757312431243 -1.06065015001500 -0.38042672367237
 6  10.99038180318032  0.52407687258726 -2.41012521952195
 6 -10.63547598659866  1.63837422142214 -1.77069637663766
 6  9.27675764276428  1.52864630253025 -0.06026140014001
 6 -8.79085957095710 -0.54378793579358 -0.21317236323632
 6  7.99472545854585  2.24560430033003  0.20099576857686
 6 -7.62058720072007 -1.37386171927193 -0.39043437543754
 6  8.12091257225723  3.75643384828483  0.35780714671467
 6 -7.68659976597660 -2.97668741684168 -0.67004717971797
 6  6.85343075007501  1.52834282818282  0.11367136113611
 6 -6.47023882688269 -0.74042951805181 -0.22429543554355
 6  5.51171172317232  1.90595830273027  0.35922083808381
 6 -5.05923704570457 -1.32303217931793 -0.25430760476048
 6  4.47369130013001  1.14739015291529  0.13462783378338
 6 -4.06839225922592 -0.53719992609261 -0.22503983398340
 6  3.06772937793779  1.51725232313231  0.16107777277728
 6 -2.58164192819282 -0.89169349944995 -0.32346000600060
 6  2.64701498249825  2.97578702760276  0.63765647464746
 6 -2.34543003700370 -2.32396969906991 -0.68250929092909
 6  2.06634620962096  0.60410757465747 -0.13022214721472
 6 -1.64400572357236  0.02596230213021 -0.26217804480448
 6  0.70710787978798  0.81719648754876 -0.05571969196920
 6 -0.15865473447345 -0.17769987508751 -0.34531217121712
 1  13.63520279227923 -0.21514494959496  0.79969480748075
 1  13.60088532453245 -2.01529211031103  1.67815794779478
 1 -14.28715149214922 -0.24226438343834  1.26852405840584
 1 -14.08388975597560 -0.38467539053905 -0.31047266726673
 1  12.99430463246325 -2.85362010511051 -0.69070713571357
 1 -12.99141460246025  1.73427794579458  1.46455592859286
 1  13.62295322732273  0.03857113701370 -1.74275015901590
 1  12.77229872287229 -1.24747697479748 -2.38834951095110
 1 -13.56435197919792  1.86047736873687 -1.62684061706171
 1 -12.35442404940494  2.83727579157916 -0.67498438143814
 1  11.85822444244425 -0.63035376147615  3.23631829282928
 1  10.35645151015102 -0.05446495659566  2.51837071807181
 1  11.72470174017402  0.79103883678368  2.40998013301330
 1  10.98157716071607 -3.20018059815982  0.59237462346235
 1  11.39431034803480 -2.84879979707971  2.35645556955696
 1  9.91488748974898 -2.30858185128513  1.71069601260126
 1 -11.73856075607561  0.09956552755276  2.39189308230823
 1 -10.94811932093209 -1.41595875087509  2.33532953695370
 1 -12.71951311031103 -1.31227213221322  2.69299189518952
 1 -13.47820760176018 -2.67736898889889  0.69849435843584
 1 -11.72689573757376 -2.92567459545955  0.46054111011101
 1 -12.77479783778378 -2.22080238823882 -0.92841131513151
 1  8.93107493149315 -0.06287460756076  0.93030721472147
 1 -10.28795852785279 -2.16413013701370 -0.33168280128013
 1  9.90466288528853  0.62916301420142 -2.47537224022402
 1  11.41228966396640  1.46455074597460 -2.62654236823682
 1  11.00359459445945 -0.15153564066407 -3.35939306930693
 1 -11.26497750475048  1.98234146314631 -2.63757525052505
 1 -9.67351289028903  1.08893953095310 -2.08116272227223
 1 -10.17006876187619  2.62658127112711 -1.42550614661466
 1  15.09784633763376 -2.77762666776678 -0.25038314531453
 1 -15.23221265626563  1.62311722572257  1.44951315631563
 1  9.96376185818582  2.10671397529753 -0.30180949594959
 1 -8.67304400140014  0.45511760976098  0.13753894089409
 1  8.79555241724172  4.21748160106011 -0.56489279227923
 1  7.11583497249725  4.03383879277928  0.61479731273127
 1  8.85716042604260  4.07825071197120  1.21769478747875
 1 -8.46684371437144 -3.10610753985399  0.14100826182618
 1 -7.89447520352035 -3.14302331643164 -1.89675600560056
 1 -6.83651250025002 -3.51845549764977 -0.60578737073707
 1  6.93573523652365  0.31888563146315 -0.07777116911691
 1 -6.54157441944194  0.34439427932793  0.13389101210121
 1  5.36366575057506  3.07702285018502  0.62742499749975
 1 -4.90073389338934 -2.21192249934993 -0.59763716371637
 1  4.63618671767177 -0.08106986108611 -0.13584199519952
 1 -4.09021452545255  0.57654277117712 -0.01628883288329
 1  3.01331911691169  3.12587662956296  1.74729093009301
 1  1.52287894089409  3.40265893679368  0.65641804980498
 1  3.31731575357536  3.73310114401440  0.20931043504350
 1 -2.75398753575358 -2.94106125322532  0.22926988298830
 1 -2.86188569656966 -2.76242736283628 -1.54916888388839
 1 -1.29588638763876 -2.59035921102110 -0.75674871087109
 1  2.49810696869687 -0.30401905300530 -0.55671357535754
 1 -1.94717411841184  1.00565048294830  0.19695308230823
 1  0.29300504750475  1.82805551145115  0.12910870587059
 1  0.23992676267627 -1.08748869896990 -0.33100068406841

