%nproc=4
%Mem=2GB
# td=(NStates=1) CAM-B3LYP/6-31G(d,p) 

TD

0 1
 8  14.77720593959396 -1.93964143524352 -0.39268812181218
 8 -14.61712830983098  2.27701955795580  0.73222231623162
 6  11.46298959295930 -1.00979161326133  1.21748510951095
 6 -12.38345597759776 -0.76597915791579  0.90016553855386
 6  12.88524725672567 -1.36922996109611  0.96623419541954
 6 -13.74438704770477  0.06694053405341  0.79133802980298
 6  13.39727172117212 -1.84935046214621 -0.29614450345034
 6 -13.44105644564456  1.53418621662166  0.74038582258226
 6  10.89541806780678 -0.21683589968997  0.04105985998600
 6 -11.34761186218622 -0.23679470847085 -0.05972672667267
 6  13.05133935293529 -0.60139089618962 -1.33388426142614
 6 -12.76081684168417  1.82703068006801 -0.68445548754875
 6  11.68042278927893 -0.08376874997500 -1.14862337833783
 6 -11.50818440844084  0.78003432643264 -0.83289282828283
 6  11.25721644864486 -0.30471963006301  2.57971841284128
 6  10.63915335633563 -2.35940642174217  1.31626974697470
 6 -11.77080927492749 -0.89747157515752  2.33847242724272
 6 -12.71891259325933 -2.26662210521052  0.48421032503250
 6  9.59176400240024  0.37491852875288  0.27194387438744
 6 -10.12689405640564 -1.01688577357736 -0.20161884288429
 6  11.07922068706871  0.56373083798380 -2.33522772977298
 6 -10.41235367436744  1.31349173317332 -1.85589489648965
 6  9.40653062006201  1.66312975087509  0.01896652265227
 6 -8.83579406440644 -0.52764632163216 -0.19564061006101
 6  7.94909089508951  2.27735747564756  0.17949361836184
 6 -7.59530467246725 -1.38030236333633 -0.42854818681868
 6  8.04840532153215  3.70739894479448  0.60065143114311
 6 -7.71339244524452 -2.80674042214221 -0.86633680868087
 6  6.87249265626563  1.52144213811381  0.08681867586759
 6 -6.45758756175618 -0.74913038813881 -0.35620862686269
 6  5.47816836883688  1.98317602450245  0.20653556955696
 6 -5.10550167216722 -1.21528140424042 -0.53515568956896
 6  4.53445737673767  1.16851226512651 -0.19322495149515
 6 -3.99866528652865 -0.47204341044104 -0.37131446144614
 6  3.09648225322532  1.43194379227923 -0.01396973197320
 6 -2.62844660866087 -0.97344167426743 -0.56207386738674
 6  2.74244452545255  2.81334078297830  0.57774048304830
 6 -2.46255174917492 -2.38016531863186 -1.03469450945094
 6  2.09740931593159  0.55768293219322 -0.34610373537354
 6 -1.58750007300730 -0.11094138823882 -0.21130295729573
 6  0.64981215021502  0.75139990789079 -0.18881300130013
 6 -0.20491936093609 -0.27845995109511 -0.49187682768277
 1  13.53936320832083 -0.44815825092509  1.14127896589659
 1  13.29885512151215 -2.13102368346835  1.80265039703970
 1 -14.48592136913691 -0.09878003500350  1.54593179917992
 1 -14.16349771677168 -0.48142506550655 -0.06865848584859
 1  12.90281548354836 -2.76265100820082 -0.70338840384038
 1 -12.58926438743874  1.86250076807681  1.45692516551655
 1  13.91017194919492  0.12659993989399 -1.29348523252325
 1  13.16672816581658 -1.07683991109111 -2.28493916991699
 1 -13.16070161416142  1.39810113111311 -1.53360129312931
 1 -12.43567217421742  2.84311637563756 -0.98951583458346
 1  11.95335395539554 -0.82809353545354  3.41642630363036
 1  10.37512337733773 -0.49664917501750  3.08312719371937
 1  11.42219148914891  0.73684341724172  2.40824995999600
 1  10.66908591159116 -3.04969554965497  0.25557094309431
 1  10.83731464846485 -3.12342725982598  1.96661658565857
 1  9.42489849084908 -2.23942493559356  1.33482842584258
 1 -11.52168906890689  0.05960153115312  2.67440133313331
 1 -10.80861537053705 -1.54794194919492  2.40248625262526
 1 -12.56356751575158 -1.20288119311931  3.03578617461746
 1 -13.38347812881288 -2.72823407540754  1.30635514451445
 1 -11.88524157215721 -2.81571359935994  0.60632568856886
 1 -12.96022638063806 -2.28424873287329 -0.59511798579858
 1  9.17546937093709  0.02023370327033  1.23650783478348
 1 -10.13860359235924 -2.06582030603060 -0.63779341234123
 1  10.00875329432943  0.55482558045805 -2.40419512251225
 1  11.45382381738174  1.55246953785379 -2.55745545954596
 1  11.52117635263526 -0.09014950205021 -3.36650378037804
 1 -10.85268627562756  1.67327055605561 -2.76007750075008
 1 -9.66409194819482  0.55806644364436 -2.19835444144414
 1 -9.91577333233323  2.15981459445945 -1.44207780378038
 1  15.12161871487149 -2.58588749384938  0.24213610661066
 1 -15.08203763876388  2.04997991199120  1.57210541554155
 1  10.31961744374437  2.36836013991399 -0.38156747174718
 1 -8.72034873187319  0.50645274327433  0.16256144314431
 1  8.72347520952095  4.22550240314031 -0.02955925892589
 1  7.02142553155316  4.00513592249225  0.70062589558956
 1  8.45902061206121  3.83639652655265  1.61529454745475
 1 -8.10894792479248 -3.23509043814381  0.04219838083808
 1 -8.41567732373237 -2.84669368346835 -1.79914624462446
 1 -6.79531838083808 -3.27342099419942 -1.18233502550255
 1  7.20036169916992  0.47058080098010 -0.24560795279528
 1 -6.79086934893489  0.52429226912691 -0.07819019601960
 1  5.46896628062806  3.26186133403340  0.26043829882988
 1 -5.22143596359636 -2.30759206630663 -0.72851025102510
 1  4.86976007500750  0.14493273917392 -0.41058946994699
 1 -4.06459196319632  0.51065618251825 -0.15540274427443
 1  3.35918370337034  2.95028907080708  1.52976917791779
 1  1.70716736973697  3.02709138003800  0.85740814881488
 1  3.10997501950195  3.41059889378938 -0.16746724272427
 1 -2.43293543054305 -3.17913506060606 -0.17279032303230
 1 -3.15548505650565 -2.68280940104010 -1.87849181618162
 1 -1.43535033403340 -2.44891506660666 -1.49820285628563
 1  2.60867802580258 -0.47489614071407 -0.70093799779978
 1 -2.00229963096310  0.91549146704670  0.22752613961396
 1  0.32623837083708  1.63096580248025  0.21387718271827
 1  0.12421519151915 -1.31699164926493 -0.84997258125813

