%nproc=4
%Mem=2GB
# td=(NStates=1) CAM-B3LYP/6-31G(d,p) 

TD

0 1
 8  14.86201442044204 -1.93034050515051 -0.38302715571557
 8 -14.65580217721772  2.06306816281628  0.70748984298430
 6  11.46479977397740 -1.02526316041604  1.29208256925693
 6 -12.28364599659966 -0.96321888188819  0.86193171517152
 6  13.01627035903590 -1.35445848394839  1.16975454745475
 6 -13.69227183618362 -0.16083224322432  0.84646354235424
 6  13.39145113911391 -1.80600612771277 -0.28880376937694
 6 -13.45605794579458  1.46667946594659  0.73475525952595
 6  10.99800832683268 -0.32759697579758 -0.02203644964496
 6 -11.31729883088309 -0.34586561556156 -0.11991274527453
 6  13.00873509250925 -0.75102585968597 -1.27548842184218
 6 -12.72254301430143  1.75598357535754 -0.53093013501350
 6  11.65756050305031 -0.24951532463246 -1.14248276427643
 6 -11.53613720372037  0.89598592159216 -0.70973051205121
 6  11.22770349734973 -0.23083224132413  2.51330177117712
 6  10.72228166916692 -2.46387686878688  1.30840896089609
 6 -11.73837603160316 -0.79232106010601  2.33942252225222
 6 -12.66075677767777 -2.36237168016802  0.54161606560656
 6  9.51155598159816  0.25578661556156  0.18791547154715
 6 -10.05990735773577 -1.03923800880088 -0.40407908890889
 6  11.05747851285128  0.43255772067207 -2.41420562756276
 6 -10.57896033503350  1.41612199619962 -1.81142044904490
 6  9.35364533153315  1.55319875777578 -0.03347872187219
 6 -8.82392287728773 -0.60597415441544 -0.40737178317832
 6  8.01699768576858  2.25949568946895  0.05174084308431
 6 -7.63139828182818 -1.25436977007701 -0.58171350335033
 6  8.01499198019802  3.81279948484848  0.37449881588159
 6 -7.68102920892089 -2.71136088418842 -1.04726490149015
 6  6.94578998599860  1.54424441834183 -0.01122112811281
 6 -6.45980778377838 -0.55780125522552 -0.41992499849985
 6  5.50438099009901  1.97827553445345  0.17374229022902
 6 -5.12052317431743 -1.04460433653365 -0.60708288228823
 6  4.44139807080708  1.11552696659666  0.01405577657766
 6 -3.95915133513351 -0.31515772187219 -0.46665399539954
 6  3.07436004100410  1.54450504840484  0.13459512451245
 6 -2.68459222322232 -0.85376970707071 -0.47976563656366
 6  2.82483276427643  2.99981943084308  0.59678238723872
 6 -2.45268076207621 -2.22479978207821 -1.03937497749775
 6  2.03808338333833  0.66905406930693 -0.17431655665567
 6 -1.59722104510451  0.01302100800080 -0.17822964996500
 6  0.65331250025002  0.70840560846085  0.02671855185519
 6 -0.20581945094509 -0.26887899299930 -0.23791143114311
 1  13.64461373337334 -0.55494892999300  1.31244608260826
 1  13.24231946794679 -2.27112769386939  1.86527665966597
 1 -14.45496827382738 -0.40381053805381  1.65911311731173
 1 -14.26686805380538 -0.29986690969097 -0.12848446844685
 1  12.83313851585159 -2.72532727582758 -0.67161522652265
 1 -12.85027048804881  1.64793931193119  1.65645511851185
 1  13.68297922992299  0.05117239713971 -1.14292017601760
 1  13.08260975397540 -1.24230645774577 -2.22913358935894
 1 -13.41148669266927  1.34175549654965 -1.31209914291429
 1 -12.42321092809281  2.76631869586959 -0.59791667466747
 1  11.76470509050905 -0.48458918501850  3.29821448244824
 1  10.06625249024903 -0.20375988608861  2.59459834083408
 1  11.56000527052705  0.69445917881788  2.33497263226323
 1  11.24225322832283 -3.09630021012101  0.55982136813681
 1  10.73328424542454 -2.78963388048805  2.20435035903590
 1  9.51621762276228 -2.47639863296330  0.95895083808381
 1 -11.71177807780778  0.30034560556056  2.74578847184718
 1 -10.95577008600860 -1.47435459045905  2.54019002300230
 1 -12.37102826182618 -1.07878878387839  3.13403599959996
 1 -13.48347812881288 -2.42406365836584  1.19810431943194
 1 -11.97143019101910 -2.99548157615762  0.69096415241524
 1 -13.11939229722972 -2.69841014901490 -0.39311778577858
 1  8.75159698369837 -0.54025234533453  0.58096228022802
 1 -10.27538727072707 -2.22300602460246 -0.32811244424443
 1  9.92939535853585  0.45116521442144 -2.37026172917292
 1  11.47264569956996  1.37186147704770 -2.54451416541654
 1  11.42761699669967 -0.16848733583358 -3.25032216221622
 1 -11.39223023002300  1.94150737973797 -2.66474796779678
 1 -10.09704524352435  0.54672530953095 -2.42030663666367
 1 -9.81262301730173  2.25844445744574 -1.46791038703870
 1  14.92145869886989 -2.74096300140014  0.19486137913791
 1 -15.59956939193919  1.94457937193719  1.34144234923492
 1  10.31089657165717  2.22116542044204 -0.16272558755876
 1 -8.67041373837384  0.26743884188419  0.13708889588959
 1  8.31529439143914  4.56816666956696 -0.43887019001900
 1  6.96900028902890  4.07598300720072  0.53955978897890
 1  8.75313002300230  3.92409529642964  1.19432245024502
 1 -7.91864889488949 -3.34274120322032  0.00133429442944
 1 -8.34983073907391 -2.90725974007401 -1.86209253925393
 1 -6.67307615661566 -3.07440109220922 -1.19983677567757
 1  6.93329499249925  0.44069781268127 -0.02074546654665
 1 -6.56334659665967  0.41456129602960 -0.15506788378838
 1  5.48465784978498  3.17292244014401  0.19571182618262
 1 -5.09588340834083 -2.07945925302530 -0.78293569356936
 1  4.39293239223923  0.01991023692369 -0.19907831883188
 1 -4.06304180818082  0.77063218011801 -0.20510771477148
 1  3.38514629962996  3.07723176507651  1.61877807880788
 1  1.74113076607661  3.14701337223722  0.74404681268127
 1  3.34512853485349  3.69895772967297 -0.17229772577258
 1 -2.81649378637864 -3.00584773187319 -0.35836888088809
 1 -2.97270677867787 -2.25706682678268 -1.93821778877888
 1 -1.48428522752275 -2.44764493959396 -0.86285932193219
 1  2.38851600960096 -0.41594024512451 -0.55489339333933
 1 -1.96245564656466  1.01410132803280 -0.26247286028603
 1  0.15155090209021  1.70371307720772  0.29104489948995
 1  0.16796956695670 -1.37701765186519 -0.30244782878288

