%nproc=4
%Mem=2GB
# td=(NStates=1) CAM-B3LYP/6-31G(d,p) 

TD

0 1
 8  14.70361858085809 -2.25629310041004 -0.31649050205021
 8 -14.75440203720372  1.89973182918292  0.66660575457546
 6  11.46353964796480 -1.16330696479648  1.16808016901690
 6 -12.41081871387139 -1.02393495349535  0.78416393839384
 6  12.90950968296830 -1.47312035013501  1.11332890489049
 6 -13.72290489948995 -0.22591875187519  0.71250014601460
 6  13.37593958795880 -2.02361788888889 -0.20625551455146
 6 -13.55450779077908  1.16639943794379  0.76602838683868
 6  10.90827935393540 -0.38737295339534  0.00389614361436
 6 -11.30438753975398 -0.28583961296130 -0.21205195919592
 6  13.07787200620062 -1.02978373547355 -1.34341521452145
 6 -12.87192795279528  1.63391136813681 -0.52693973597360
 6  11.70738548554855 -0.33893426652665 -1.11643015901590
 6 -11.54455804580458  0.86509283228323 -0.79640917991799
 6  11.29406013301330 -0.28655781388139  2.48808924992499
 6  10.63500294129413 -2.50821130223022  1.27699581958196
 6 -11.68865105910591 -1.06570839883988  2.16750533053305
 6 -12.56955765776578 -2.46182162516252  0.29724162816282
 6  9.63843866986699  0.38391942884288  0.11214789478948
 6 -10.09743111011101 -1.06209029402940 -0.38670735173517
 6  11.19541230623062  0.42794725962596 -2.43204741174117
 6 -10.66606904590459  1.45636602060206 -1.84191349834984
 6  9.33102306930693  1.61603504140414 -0.16835220922092
 6 -8.80787127212721 -0.56144970197020 -0.22117316331633
 6  8.07727371337134  2.20838057795780  0.00774644364436
 6 -7.57886302830283 -1.29374370747075 -0.35326065806581
 6  8.04703518451845  3.68792699759976  0.56008737473747
 6 -7.60783188918892 -2.77583733183318 -0.84409458445845
 6  6.89551495849585  1.60287028092809 -0.16913691969197
 6 -6.39911171417142 -0.65286076117612 -0.30915392139214
 6  5.58384893689369  1.98701640854085  0.07928284428443
 6 -5.04054517651765 -1.13545342144214 -0.37233940794079
 6  4.43205713671367  1.40603601750175 -0.06710233923392
 6 -3.98431385138514 -0.28610481658166 -0.21081841184118
 6  3.06058866386639  1.86051664956496  0.21681334633463
 6 -2.58990275427543 -0.63280761086109 -0.31090875087509
 6  2.83576385738574  3.28144759365937  0.55503821282128
 6 -2.39931542554255 -2.08216551865186 -0.75244628462846
 6  2.01479105410541  0.96077324122412 -0.24523364836484
 6 -1.66345766876688  0.28417812371237 -0.07695952295230
 6  0.64915208420842  1.13153792169217 -0.07135125512551
 6 -0.17198606760676  0.15996389128913 -0.22629026902690
 1  13.57116638863886 -0.71037447254725  1.18240307830783
 1  13.06218145414542 -2.23310389148915  2.03069320132013
 1 -14.37992076907691 -0.73391354835484  1.65608281428143
 1 -14.37756912391239 -0.32501942494249 -0.30037165716572
 1  12.80449565156516 -2.97654239733973 -0.47995606060606
 1 -13.11572703370337  1.54462898089809  1.63202267526753
 1  13.85282621462146 -0.29398211831183 -1.46043192719272
 1  13.21500299329933 -1.79921214831483 -2.11970264626463
 1 -13.70939648364836  1.62902422342234 -1.18514644764476
 1 -12.65187379437944  2.67548961296130 -0.60717760076008
 1  11.70396901690169 -0.87847857395740  3.28606326732673
 1  10.25042090709071 -0.35036454655466  2.57217609860986
 1  11.74840411041104  0.54533426632663  2.12623175817582
 1  10.77592659565956 -3.34038461856186  0.48274366036604
 1  10.83185410241024 -3.15325024212421  2.28840876487649
 1  9.55792179317932 -2.36904789788979  1.28011295429543
 1 -11.56214311431143  0.06720229122912  2.47054094709471
 1 -10.72740724972497 -1.50396755175518  2.13710971497150
 1 -12.23929508850885 -1.65099600460046  2.88162075807581
 1 -13.42226200720072 -2.91914316631663  0.80512502150215
 1 -11.92342539053905 -2.99462149014902  0.45191024702470
 1 -12.84231458945895 -2.54302461046105 -0.80170864486449
 1  8.72939476347635 -0.38581690179018  0.51642582658266
 1 -10.27355708770877 -2.29903362736274 -0.64145377837784
 1  10.14544696369637  0.68716881478148 -2.24553925692569
 1  12.01762019701970  1.16620091099110 -2.93612332633263
 1  11.33850808580858 -0.43188367546755 -3.23675080508051
 1 -11.33343435043504  1.93441667066707 -2.62802429542954
 1 -9.68415395439544  0.94462509950995 -2.21319592559256
 1 -10.33819557455746  2.44622323532353 -1.42307590359036
 1  14.90161671467147 -2.83549245434543  0.28763065606561
 1 -15.28518795379538  1.59225413941394  1.39872807780778
 1  10.08184366636664  2.14202750665067 -0.74466378137814
 1 -8.64138083508351  0.52759485748575  0.12606779377938
 1  8.55339820182018  4.35155500840084 -0.17544384738474
 1  7.06073946294629  4.29168457735774  0.64060989398940
 1  8.59311402140214  3.69157204410441  1.51047406540654
 1 -8.19387641764176 -3.33033996309631 -0.19855569456946
 1 -7.97033278927893 -2.86578559265927 -1.88989531953195
 1 -6.58616746574657 -3.31706535863586 -0.94355114711471
 1  7.12946460946095  0.53807755065507 -0.68757214921492
 1 -6.57988825082508  0.29655949584959 -0.29816219321932
 1  5.65363474747475  3.01806695459546  0.35594784978498
 1 -4.85269908990899 -2.01045235233523 -0.80645804580458
 1  4.23565666466647  0.36905515141514 -0.35940435143514
 1 -4.16114161816181  0.79227434433443 -0.00477768176818
 1  3.32509029402940  3.53778782068207  1.47562376337634
 1  1.92821947494750  3.65218388928893  0.81963437143714
 1  3.24738876087609  4.08917675157516 -0.19043953995400
 1 -2.16109824682468 -2.77142428952895  0.25996295229523
 1 -3.04745425342534 -2.42695381548155 -1.61336530353035
 1 -1.34432123112311 -2.03868404350435 -1.52640567656766
 1  2.31465862386239  0.02048339723972 -0.76585448944894
 1 -2.02071147214721  1.23164308220822  0.30792417941794
 1  0.33602934993499  2.17190989688969  0.20899669466947
 1  0.09281205120512 -0.68859880998100 -0.65969355335534

