%nproc=4
%Mem=2GB
# td=(NStates=1) CAM-B3LYP/6-31G(d,p) 

TD

0 1
 8  14.65498371737174 -2.20378784988499 -0.47945679867987
 8 -14.72857945494549  2.04188604460446  0.81432052605261
 6  11.41351464546455 -0.89918055215522  1.20383374437444
 6 -12.23495112711271 -0.84848740874087  0.80386590859086
 6  12.93476220822082 -1.30734377247725  1.02469004100410
 6 -13.58644125312531 -0.17321348134813  0.73143203920392
 6  13.30621261526153 -1.97499302640264 -0.39112400140014
 6 -13.47389972997300  1.37347014501450  0.71215299929993
 6  10.92482100810081 -0.27281149724972 -0.04581882788279
 6 -11.29698679967997 -0.25790681968197 -0.26753750775077
 6  12.97321154015401 -0.94440519761976 -1.45310618361836
 6 -12.80708146814682  1.76250422742274 -0.59646668866887
 6  11.62474722172217 -0.29454982808281 -1.33181169716972
 6 -11.63010660066007  0.91356767976798 -0.88915845484548
 6  11.29034976197620 -0.02565172327233  2.39651009200920
 6  10.64855429642964 -2.19625010611061  1.50803892389239
 6 -11.59860205420542 -0.79194102210221  2.19013759375938
 6 -12.48021872387239 -2.34004944794479  0.52327423142314
 6  9.61745657165717  0.39386042294229  0.06230291029103
 6 -10.05295666266627 -1.02300638563856 -0.49357803880388
 6  10.98662142714271  0.17676214111411 -2.54289849684968
 6 -10.76791923092309  1.48255863986399 -1.94086339333933
 6  9.30747071407141  1.69402284018402 -0.21033640764076
 6 -8.84208469346935 -0.51269482648265 -0.56906795279528
 6  8.07966395239524  2.29864960486049  0.15580124912491
 6 -7.68245338733873 -1.29381371447145 -0.72179751175118
 6  8.21189167016702  3.77470567546755  0.61804317031703
 6 -7.71658276427643 -2.86207595569557 -1.06422659765977
 6  6.91024643164316  1.60631062496250 -0.03395340134013
 6 -6.49432123512351 -0.68651412651265 -0.52354536053605
 6  5.61864241624162  2.06207391429143  0.17531244724472
 6 -5.16417753975398 -1.16292616871687 -0.46510868486849
 6  4.44178810981098  1.31335674957496 -0.06731236023602
 6 -3.90166558655866 -0.45015122122212 -0.31283861386139
 6  3.08249085408541  1.55325592349235  0.35958762376238
 6 -2.65480924492449 -0.90242457255726 -0.32900056005601
 6  2.82064234523452  2.94918436733673  0.96922963196320
 6 -2.34257975197520 -2.34768207030703 -0.62474351435144
 6  2.08939851485149  0.64742190609061  0.01336221122112
 6 -1.61052237523752  0.00240994689469 -0.08478030503050
 6  0.62922009100910  0.79640440834083  0.19069494949495
 6 -0.19926879587959 -0.16336844194419 -0.12053969396940
 1  13.58117738973897 -0.42406584168417  1.03740857885789
 1  13.37431266726673 -1.77021760286029  2.12530266226623
 1 -14.04361713871387 -0.34201435843584  1.67863506950695
 1 -14.25861722872287 -0.48779570257026  0.07532591259126
 1  12.74878008000800 -2.87301204430443 -0.55680374537454
 1 -12.95398085908591  1.76735125312531  1.46943641664166
 1  13.90808174017402 -0.32631535163516 -1.37166305030503
 1  13.06051754475448 -1.34342656975697 -2.38901957795780
 1 -13.46398194219422  1.55488680968097 -1.39947788078808
 1 -12.42849145614561  2.86179824382438 -0.64443132613261
 1  11.54697331733173 -0.66278700480048  3.31172583358336
 1  10.35049091409141  0.35877636753675  2.64843372437244
 1  11.76542581258126  0.87267700060006  2.47642677767777
 1  10.83392239523952 -2.84355493559356  0.83786917291729
 1  10.93682459945995 -2.64109902700270  2.44264418841884
 1  9.49757575857586 -2.07127812091209  1.61101604460446
 1 -11.40487738773877  0.18148371937194  2.52723661666167
 1 -10.54993950295029 -1.41288844384438  2.10957696169617
 1 -12.16854801380138 -1.41384228922892  2.93294589058906
 1 -13.24157393839384 -2.78139939193919  1.15316982598260
 1 -11.66794984298430 -3.08375040304030  0.64463951995200
 1 -12.80733109110911 -2.69757006500650 -0.40961943594359
 1  8.75547737173717 -0.10037835793579  0.34390857485749
 1 -10.24595432743275 -2.15084880888089 -0.43709334233423
 1  10.06709912891289  0.59984008190819 -2.38878358135814
 1  11.67330576557656  0.93896818771877 -3.06331604560456
 1  11.06747098209821 -0.78175866296630 -3.28567569756976
 1 -11.44808581558156  1.84764799379938 -2.68536002900290
 1 -10.05704124312431  0.68750938793879 -2.53204781078108
 1 -10.18814056905691  2.36346495949595 -1.51846544254425
 1  15.07565411841184 -3.00789969506951  0.19314120712071
 1 -14.79079851485148  2.23146806080608  2.01268947394739
 1  10.11081656365637  2.33887719161916 -0.70878019301930
 1 -8.51526822382238  0.55821791979198 -0.59528434143414
 1  9.14660752275227  4.26175602850285  0.06212990999100
 1  7.16028941794179  4.42903831273127  0.56596242924292
 1  8.50850556055605  4.06332921982198  1.71667468546855
 1 -8.55763279327933 -3.40802773187319 -0.45331117011701
 1 -8.25994175017502 -2.89280829492949 -2.02362869286929
 1 -6.69239808880888 -3.00204385648565 -1.04407119911991
 1  7.12228389138914  0.67019076197620 -0.58485187718772
 1 -6.39675993799380  0.27498733863386 -0.06290866786679
 1  5.45189457345735  3.16206135403540  0.77200945594559
 1 -5.06957077707771 -2.24453576067607 -0.52804020402040
 1  4.58291139013901  0.14412265816582 -0.12253066406641
 1 -4.28261376537654  0.47723284018402 -0.01600880488049
 1  3.18642642764276  3.06082012391239  2.08097429842984
 1  1.69602625562556  3.05126379727973  0.94029643764376
 1  3.23452747474747  3.70490832473247  0.41027053105311
 1 -2.93215535253525 -2.93030017711771  0.05387234323432
 1 -2.84680418841884 -2.63043416351635 -1.67206117311731
 1 -1.09191599059906 -2.65409558465847 -0.64958799479948
 1  2.58491564956496 -0.31938058915892 -0.23455135913591
 1 -1.81568096909691  0.92350226812681  0.38726211321132
 1  0.29275502250225  1.61483418931893  0.46017181218122
 1  0.05700847084708 -1.29686963706371 -0.21138872287229

