%nproc=4
%Mem=2GB
# td=(NStates=1) CAM-B3LYP/6-31G(d,p) 

TD

0 1
 8  14.56437465646565 -2.33647111821182 -0.31165001800180
 8 -14.84065066206621  1.81684354035404  0.81605069906991
 6  11.34551784578458 -1.04949558365837  1.28587194819482
 6 -12.26837446944694 -0.99237179717972  0.71693721572157
 6  12.79463819581958 -1.51070410851085  1.20996856885689
 6 -13.59879248824882 -0.28046420642064  0.78874777077708
 6  13.18346034003400 -2.02547807490749 -0.22724761376138
 6 -13.55568790879088  1.29176197419742  0.78331011501150
 6  10.94168269426943 -0.36583079917992 -0.01412565856586
 6 -11.26226332733273 -0.22749377837784 -0.15270602460246
 6  13.05709992899290 -0.89675043214321 -1.29397027002700
 6 -12.76160692069207  1.68644662166217 -0.40515755775578
 6  11.67531227822782 -0.26200657375738 -1.14811332733273
 6 -11.48595218521852  0.91619794279428 -0.72192173117312
 6  11.19799052605261 -0.19483864196420  2.50724116511651
 6  10.51915135613561 -2.31796227732773  1.39168728872887
 6 -11.67091928592859 -1.22937476547655  2.19925850585058
 6 -12.67939864186419 -2.50247569056906  0.23096500050005
 6  9.61000582658266  0.29059009590959  0.11379805980598
 6 -10.04770613761376 -1.01157524252425 -0.39412809380938
 6  11.21994475947595  0.39572403730373 -2.41330553755376
 6 -10.73136557555756  1.54582496649665 -1.78610791779178
 6  9.38174814181418  1.60144358225823 -0.06976235023502
 6 -8.75911639663966 -0.49112266926693 -0.25672671867187
 6  8.05998198419842  2.26325606550655 -0.01571590259026
 6 -7.55337047904790 -1.25194952805281 -0.48953428542854
 6  8.16575705670567  3.67224542944294  0.37753911991199
 6 -7.61894300030003 -2.68789853795380 -0.87975815081508
 6  6.84111951895189  1.56493648754875 -0.14617462346235
 6 -6.40563236623662 -0.49988546364636 -0.30132313831383
 6  5.56395694769477  2.12590029692969  0.06839175517552
 6 -4.96751787378738 -0.98610848694869 -0.43082525652565
 6  4.54072800380038  1.31195660956096 -0.13873950295030
 6 -3.92516793679368 -0.30728693479348 -0.16124345434543
 6  3.04989759475948  1.74436503440344  0.01097276227623
 6 -2.64583834783478 -0.74336866696670 -0.35374303430343
 6  2.81648192919292  3.12900234913491  0.50310301930193
 6 -2.21005649964997 -2.18099540164016 -0.81540258025803
 6  2.12566214121412  0.84252141604160 -0.29554867986799
 6 -1.57563888688869  0.12249195509551 -0.20638246524652
 6  0.67298446744674  1.01221598949895 -0.08573269326933
 6 -0.14168303730373 -0.01158326342634 -0.33009064906491
 1  13.42508178017802 -0.50079351445144  1.49625446344634
 1  12.97695293129313 -2.32496307740774  1.99831996399640
 1 -14.08354113111311 -0.57228738573857  1.66059326532653
 1 -14.32256362336234 -0.48670559355936 -0.16162778277828
 1  12.55775097709771 -3.00722546564656 -0.54356242124212
 1 -12.81108656965696  1.60989550755076  1.74631410441044
 1  13.85257618961896 -0.24165688578858 -1.04461034503450
 1  13.32037353035304 -1.35359758685869 -2.23128380438044
 1 -13.65349089308931  1.59498081908191 -1.32225015801580
 1 -12.67857646464646  2.63427549154916 -0.65339222222222
 1  11.36703532353235 -0.68326905300530  3.29712437343734
 1  10.15585145014501  0.00608109800980  2.70289917091709
 1  11.84053332333233  0.59840957385739  2.33567270227023
 1  10.59766876987699 -2.69931051115111  0.42690807680768
 1  10.67997891489149 -2.91120603770377  2.27238716271627
 1  9.47434343534353 -2.15549654275428  1.55115005800580
 1 -11.48142504250425 -0.25121955095510  2.47043093609361
 1 -10.78311282028203 -1.70877803280328  2.14599060306031
 1 -12.40564172317232 -1.78934983998400  2.89977257325733
 1 -13.55408518951895 -2.78437968996900  0.88459296829683
 1 -11.83710675867587 -3.03742577057706  0.19251430743074
 1 -13.14071442944294 -2.31318162616262 -0.72663113711371
 1  8.65126695069507 -0.29006732683268  0.33894807880788
 1 -10.03871360336034 -1.93646737073707 -0.76611624462446
 1  10.12387480648065  0.76861695959596 -2.38013271627163
 1  11.90207864286429  1.33233752465247 -2.51286100010001
 1  11.33450768576858 -0.21606209330933 -3.39963709370937
 1 -11.28353936093609  1.83278650765076 -2.74797629062906
 1 -9.75385092409241  0.84407504450445 -2.04076868286829
 1 -10.28479023402340  2.58868748174817 -1.53604720072007
 1  14.67918447144714 -3.09693859895990  0.29127102010201
 1 -15.49929936493649  1.45609052305231  1.46625483048305
 1  10.25826130813081  2.28310161406141 -0.38375769076908
 1 -8.55242193919392  0.59408150615062  0.14169935693569
 1  8.85130799279928  4.05800565346535 -0.28899520252025
 1  7.25845923492349  4.12208761766177  0.13094892789279
 1  8.66774148414842  3.76357924482448  1.49095211321132
 1 -8.36475350535053 -3.05134206330633 -0.12343818281828
 1 -8.00545630163016 -2.89068808290829 -1.78905523552355
 1 -6.59632848184818 -3.10848450055006 -0.81695848784879
 1  6.85780744374437  0.47206094899490 -0.23181657365737
 1 -6.53485374737474  0.56267610751075  0.05867349034903
 1  5.42552193619362  3.13459860776078  0.35912816781678
 1 -4.97940176017602 -2.09207051415141 -0.89997739773977
 1  4.59576267526753  0.41477972387239 -0.56309472047205
 1 -4.04885038903890  0.67861297819782  0.40825362136214
 1  3.18034581958196  3.41458550045005  1.61325752675268
 1  1.69894654765477  3.17594626552655  0.77836024402440
 1  3.16822084408441  3.87307514141414 -0.39157965396540
 1 -2.50178231523152 -2.82642979007901  0.03924088008801
 1 -2.92267177517752 -2.31173229332933 -1.80531449844985
 1 -1.10348714771477 -2.36817699279928 -1.13013604960496
 1  2.37988514651465 -0.13200185128513 -0.59645754975498
 1 -2.02548194919492  1.17327724562456  0.03871725872587
 1  0.20530627762776  2.22192489838984 -0.03643784878488
 1  0.10211298129813 -0.90137008710871 -0.59766735073507

