%nproc=4
%Mem=2GB
# td=(NStates=1) CAM-B3LYP/6-31G(d,p) 

TD

0 1
 8  14.79706792579258 -2.19360683178318 -0.54891374437444
 8 -14.92893949094909  1.89841169716972  0.50078917291729
 6  11.51436473047305 -1.09860049414941  1.16808016901690
 6 -12.30893852585258 -0.77879043904390  0.92165768776878
 6  12.98612734473447 -1.38006104420442  0.95151272327233
 6 -13.66544915391539 -0.16146230623062  0.91181007700770
 6  13.36686868086809 -1.90400592769277 -0.44911980098010
 6 -13.54671701170117  1.30478327632763  0.63255503950395
 6  10.94404293029303 -0.26422063816382 -0.03489773577358
 6 -11.34039114011401 -0.31095212421242 -0.22354310831083
 6  13.02959717871787 -0.87718847594759 -1.47016788978898
 6 -12.87890865086509  1.54101207820782 -0.76604364636464
 6  11.61776652365237 -0.23681405450545 -1.20009852585259
 6 -11.60079366936694  0.90557688068807 -0.94030356935694
 6  11.29273000000000 -0.26275543364336  2.37507794879488
 6  10.75311475247525 -2.45883636473647  1.28476659665967
 6 -11.44727692169217 -0.63222505050505  2.29850843084308
 6 -12.59010971297130 -2.36809225222522  0.74847675167517
 6  9.62166699269927  0.27813885078508  0.21176785678568
 6 -10.04536590359036 -1.12409649464946 -0.46370505150515
 6  11.07272003700370  0.45944040894089 -2.43618782578258
 6 -10.82089452845285  1.32485286928693 -2.19005831283128
 6  9.30702066906691  1.57588102600260 -0.07684305830583
 6 -8.83382386738674 -0.59765332233223 -0.41194224022402
 6  8.09621560756075  2.18437817771777  0.22172784178418
 6 -7.64255939793979 -1.33664799789979 -0.54388972097210
 6  8.11404188518852  3.63779198409841  0.72329369536954
 6 -7.71659276527653 -2.71406115421542 -0.84884505950595
 6  6.94579998699870  1.57523751765177  0.07357735173517
 6 -6.49931173417342 -0.56423189828983 -0.45246825282528
 6  5.58595914791479  2.09068677557756  0.41929684568457
 6 -5.18711983398340 -1.05745562166217 -0.54818699269927
 6  4.50804473547355  1.32570798469847  0.21166553755376
 6 -4.01997741774177 -0.32380858695870 -0.30537786778678
 6  3.10443304830483  1.63043364126413  0.29448111311131
 6 -2.61427519151915 -0.80473480358036 -0.39525718571857
 6  2.66763704470447  3.09606905580558  0.65770847984798
 6 -2.29593508750875 -2.29966726882688 -0.66928796879688
 6  2.15567514251425  0.72532969686969  0.00027090209021
 6 -1.64897622062206  0.17826753265327 -0.23767559455946
 6  0.71293846284628  1.00392516041604 -0.01201532153215
 6 -0.22541141014101 -0.04512661776178 -0.25064270427043
 1  13.79010828282828 -0.49129256435644  1.28638347634764
 1  13.35270050605060 -1.94596517761776  1.70763089508951
 1 -14.02079485648565 -0.25494565156516  2.00576778277828
 1 -14.32874424142414 -0.59200612361236  0.26910529052905
 1  12.94207940994099 -2.69459420252025 -0.60030809580958
 1 -13.04940040104010  2.03245776377638  1.37909738273827
 1  13.95095602760276 -0.08958167826783 -1.39272515651565
 1  13.06983847684769 -1.39160138723872 -2.54510518651865
 1 -13.69211475547555  1.39179050005001 -1.57531546454645
 1 -12.89670827782778  2.73593565756576 -0.96855373837384
 1  11.54138275827583 -0.85076580268027  3.26170083108311
 1  10.26151201620162 -0.11888139823982  2.54879376037604
 1  11.82375164516452  0.58123785668567  2.14867400240024
 1  10.75681468446845 -3.07446802690269  0.38852423842384
 1  11.45354627162716 -3.24771968906891  1.87614753875388
 1  9.68498449944994 -2.41180217331733  1.64608955195520
 1 -11.13786068606861  0.35331090209021  2.54219811281128
 1 -10.55288979797980 -1.17680483548355  2.22297830183018
 1 -11.97717887688769 -0.96317722272227  3.22258485448545
 1 -13.23458323932393 -2.69993124512451  1.72083659265927
 1 -11.60671371937194 -2.89197122512251  1.16677173317332
 1 -12.93413377137714 -2.67305761376138 -0.27365583958396
 1  8.71165298929893 -0.39340766086609  0.56858104210421
 1 -10.11858159015902 -2.06132985698570 -0.55684531753175
 1  10.02387480648065  0.70278037593759 -2.29624432743274
 1  11.64521295629563  1.26804109500950 -2.73167288128813
 1  11.16959119411941 -0.38121860896090 -3.29697682768277
 1 -11.47911891889189  1.65057828682868 -2.82647414041404
 1 -10.03133867286729  0.55370600760076 -2.37628223422342
 1 -10.40140189518952  2.25668428142814 -1.70618421442144
 1  15.09751630463046 -2.67776668176818  0.39782167516752
 1 -15.30082951795180  1.38344325832583  1.35841404640464
 1  10.06238172017202  2.11585488938894 -0.50671998699870
 1 -8.75159185618562  0.37599969796980 -0.10129494249425
 1  8.71456431843184  4.15432528542854 -0.13291959495950
 1  7.13746713571357  3.93119852875288  0.70630646364636
 1  8.57996270627063  3.84514740164016  1.73671668966897
 1 -8.15971300130013 -3.35856278537854 -0.19362520152015
 1 -8.42505826182618 -2.83143215731573 -1.83110944094409
 1 -6.67680652965297 -3.05916956905691 -1.19062585458546
 1  6.85339700270027  0.64851859475948 -0.38950234223422
 1 -6.75329559155916  0.50848068796880 -0.26094847184719
 1  5.70429981398140  3.16049119701970  0.73293554855486
 1 -5.02672649264927 -2.10503181028103 -0.87519491949195
 1  4.67950104910491  0.37178542444244 -0.19276768776878
 1 -4.08412391639164  0.66682179907991  0.19081187718772
 1  3.09422720772077  3.36297033893389  1.65387158815882
 1  1.60722737573757  3.13440211111111  0.53557596559656
 1  3.12448647064706  3.73351118501850 -0.05428592459246
 1 -2.87019915691569 -2.99001614871487  0.06945390139014
 1 -2.66688619661966 -2.46822794289429 -1.74827879487949
 1 -1.17036383538354 -2.16200637573757 -0.69150218621862
 1  2.49189634763476 -0.30105875697570 -0.41790969496950
 1 -2.06861626262626  1.14348426632663  0.10382376937694
 1  0.33652939993999  2.01162386828683  0.17592338733873
 1  0.21840461046105 -0.92246219631963 -0.37503508750875

