%nproc=4
%Mem=2GB
# td=(NStates=1) CAM-B3LYP/6-31G(d,p) 

TD

0 1
 8  14.89537775677568 -1.95025249634963 -0.45100395339534
 8 -14.86914351135113  2.03537539353935  0.57516661066107
 6  11.53957725172517 -1.06834746884688  1.24116747774778
 6 -12.41354898689869 -0.97594015401540  0.67029255125513
 6  12.96315504750475 -1.32485552365237  0.99519709170917
 6 -13.74406701570157 -0.09997615761576  0.66059495549555
 6  13.44854684868487 -1.84616014311431 -0.36433132213221
 6 -13.60322266226623  1.44252705070507  0.64321610561056
 6  11.02958148414842 -0.35420963706371 -0.00861510751075
 6 -11.38769587058706 -0.24595562456246 -0.15483623762376
 6  12.99204342334233 -0.79895065216522 -1.43734460746075
 6 -12.78209896989699  1.81052902990299 -0.61259830183018
 6  11.63579832683268 -0.24826519961996 -1.24842335833583
 6 -11.49253284328433  0.96297262026203 -0.71526106510651
 6  11.39494022102210 -0.20163932203220  2.42099254025403
 6  10.70969041004100 -2.37727820892089  1.41077919791979
 6 -11.93341553555355 -1.03843567156716  2.22077065706571
 6 -12.70250095209521 -2.42192763576358  0.17380928492849
 6  9.66955178117812  0.30509154605461  0.26526320632063
 6 -10.14602596959696 -1.03121720672067 -0.35045372637264
 6  11.02695546054605  0.43139760466047 -2.43992819981998
 6 -10.55742818181818  1.49431981598160 -1.74559386638664
 6  9.38421838883888  1.57318075597560 -0.12776815081508
 6 -8.89021950695069 -0.52169572657266 -0.24997604360436
 6  8.06569255525553  2.21071081098110  0.05153082208221
 6 -7.62747788978898 -1.24142847594759 -0.40259559155916
 6  8.10895137613761  3.66412461736174  0.23564493049305
 6 -7.65657676367637 -2.77019676777678 -0.70656083108311
 6  6.94472987998800  1.47914790869087  0.00732072607261
 6 -6.45181698469847 -0.61555703080308 -0.14534754075408
 6  5.60130068206821  1.89372707960796  0.31489640564056
 6 -5.15768689068907 -1.10140001610161 -0.50206238023802
 6  4.51299523052305  1.16887230113011  0.14115848684868
 6 -3.95833125312531 -0.35383158925893 -0.28039536953695
 6  3.12245485048505  1.54291488938894  0.25603726872687
 6 -2.62162592659266 -0.81235556565657 -0.38322598259826
 6  2.78634891589159  2.96553600250025  0.58365107410741
 6 -2.51478697269727 -2.23690099219922 -0.67504854485449
 6  2.14464403940394  0.59946711061106 -0.07604672967297
 6 -1.64288561156116  0.12687239313931 -0.23611543854385
 6  0.69768693769377  0.88348311621162  0.09509538953895
 6 -0.23244211321132 -0.10628273337334 -0.31450909090909
 1  13.68020729272927 -0.54878831393139  1.25774061206121
 1  13.49530476647665 -2.15237581868187  1.69564969696970
 1 -14.50618339533954 -0.47015717271727  1.41182838883888
 1 -14.35396676367637 -0.27226414941494 -0.24867648764877
 1  13.19115431743174 -2.93578832193219 -0.62090015501550
 1 -12.95286074707471  1.65956047404740  1.58855832883288
 1  13.89866079807981  0.04602188208821 -1.34056994099410
 1  13.08639013201320 -1.18842106920692 -2.44658533453345
 1 -13.32524806880688  1.38272959395940 -1.43371130413041
 1 -12.63613222022202  2.87320938493849 -0.71642852585258
 1  11.78265688568857 -0.53565429152915  3.34413907490749
 1  10.32189805480548  0.21859234913491  2.50084896589659
 1  11.92599186918692  0.85111484438444  2.49244837983798
 1  10.88900790379038 -2.83865444554456  0.39259464546455
 1  11.07554847184718 -3.00141505860586  2.13780370437044
 1  9.62706870787079 -2.25679667276728  1.63135807880788
 1 -11.96328322832283 -0.13193762276228  2.69841373437344
 1 -10.96708121712171 -1.40112726772677  1.99227523152315
 1 -12.44978613761376 -1.72444334933493  2.79425202120212
 1 -13.61007078807881 -2.68144939693969  0.68220272927293
 1 -11.94007705570557 -3.31899392739274  0.40794585058506
 1 -12.66209656765677 -2.31972228022802 -0.83762223622362
 1  8.94216604060406 -0.20427874797480  0.73399758375838
 1 -10.44326405840584 -2.05795951995200 -0.75128476147615
 1  10.09490190919092  0.73012311021102 -2.35637034003400
 1  11.51367980298030  1.42048633953395 -2.62754246824683
 1  11.23567780278028 -0.24124461156116 -3.32384951495150
 1 -11.15605661266127  2.23057628662866 -2.39771126412641
 1 -10.04241978097810  0.74937557455746 -2.17286189218922
 1 -9.94492624762476  2.24565317831783 -1.19610320632063
 1  15.09261581458146 -2.91713061816182 -0.03022112911291
 1 -15.23373280828083  1.81383629762976  1.44715292029203
 1  10.16104158615862  2.34331763566357 -0.61381069606961
 1 -8.91952864986499  0.43513561156116  0.19142432943294
 1  8.71897475947595  4.05723557645765 -0.61754805780578
 1  7.10705409440944  4.32184759365937  0.11329716271627
 1  8.72266697669767  3.92666555345534  1.15615863386339
 1 -8.22971000100010 -3.29894682378238 -0.05956179517952
 1 -8.15487124312431 -2.92714172827283 -1.72873920392039
 1 -6.56353520252025 -3.33377702980298 -0.78794558655866
 1  7.04663632663266  0.48229197209721 -0.30273366536654
 1 -6.39554981698170  0.37204704460446  0.11399902290229
 1  5.44773415741574  2.93758890679068  0.70797305230523
 1 -4.99209302930293 -2.12546385348535 -0.72313971397140
 1  4.85201830083008  0.08555680158016  0.11767335633563
 1 -4.25060056405641  0.72000711761176  0.04066686268627
 1  3.16188397339734  3.23883792569257  1.67843404440444
 1  1.93736038903890  3.29737840874087  0.51892430043004
 1  3.32255627762776  3.56055388928893 -0.18412890889089
 1 -2.72441457845785 -2.82994014111411  0.27636459245925
 1 -3.04014352235224 -2.70589170927093 -1.58200216721672
 1 -1.26260305930593 -2.48037821292129 -0.91314435043504
 1  2.36697385538554 -0.33811246234623 -0.53995189918992
 1 -2.16080548154815  1.13736365426543 -0.17296390939094
 1  0.40430617761776  1.80242294819482  0.56965276027603
 1  0.09093186318632 -1.03670362046205 -0.74118170217022

