%nproc=4
%Mem=2GB
# td=(NStates=1) CAM-B3LYP/6-31G(d,p) 

TD

0 1
 8  14.71176939593959 -2.18955642674267 -0.50712956595660
 8 -15.01343794079408  1.76463831983198  0.52219131313131
 6  11.55177847184718 -1.11347198129813  1.23714707570757
 6 -12.37451508350835 -0.92025458545855  0.75168069006901
 6  13.05124385638564 -1.43260629872987  1.05690326232623
 6 -13.79622223122312 -0.33997015701570  0.69593848984898
 6  13.34154614861486 -1.97767329442944 -0.24663955295530
 6 -13.57874021402140  1.22037483548355  0.75087687168717
 6  10.93887241324133 -0.31370558665867  0.09629538353835
 6 -11.37942504350435 -0.25815684468447 -0.17860861486149
 6  12.88903312231223 -0.97370812791279 -1.31971284428443
 6 -12.87362812281228  1.81365934293429 -0.35775281728173
 6  11.60109485648565 -0.31462183528353 -1.07006552255226
 6 -11.54560815081508  1.00064638763876 -0.68179771877188
 6  11.58853958095810 -0.27286644474447  2.50950139113911
 6  10.71776121712171 -2.41548202930293  1.48729684968497
 6 -11.91598379237924 -0.89022085008501  2.19209778977898
 6 -12.57828853085309 -2.40063550655066  0.34829673367337
 6  9.71610643664367  0.47308834573457  0.36642332233223
 6 -10.10231159815982 -0.97624170917092 -0.31059974097410
 6  11.05144790979098  0.36721118601860 -2.34100830783078
 6 -10.57490992999300  1.67177756175618 -1.48812811981198
 6  9.43755372237224  1.76236967486749  0.05745037103710
 6 -8.88762924792479 -0.46767032403240 -0.20353139913991
 6  8.02008799479948  2.21213095299530  0.22318798779878
 6 -7.66481162316232 -1.25785011811181 -0.42656798879888
 6  8.04047452845285  3.77806601150115  0.52972433843384
 6 -7.70445155115512 -2.77099684778478 -0.97193736873687
 6  6.92208761576158  1.63007300120012 -0.08396840284028
 6 -6.47596939993999 -0.55620109520952 -0.25075808180818
 6  5.63865441744174  2.08655636253625  0.03700861686169
 6 -5.09771089308931 -1.12797267336734 -0.44585675967597
 6  4.56937086808681  1.30803621752175 -0.22853848284828
 6 -3.99700512051205 -0.40035624172417 -0.33699102910291
 6  3.16764936993699  1.66186678457846 -0.03452178717872
 6 -2.59207297129713 -0.80809513961396 -0.48949660966097
 6  2.82032231323132  2.99369881878188  0.41758446744674
 6 -2.39735522952295 -2.30307760986099 -0.70801184118412
 6  2.20962053705371  0.76705386928693 -0.31907103210321
 6 -1.56850817381738  0.10990069596960 -0.32301412841284
 6  0.75460262926293  0.88078284618462 -0.31544566456646
 6 -0.17463633263326 -0.13097520262026 -0.31587922792279
 1  13.63665293729373 -0.53842727782778  0.95015985398540
 1  13.46708194419442 -2.05225580668067  1.85827595959596
 1 -14.36918969596960 -0.66034619161916  1.45570277627763
 1 -14.39560092709271 -0.57482440544054 -0.27839945994599
 1  12.65919112111211 -2.85671041414141 -0.41971003600360
 1 -13.00832629362936  1.66963148114812  1.62863233623362
 1  13.61082201420142  0.04293157305731 -1.41700758475848
 1  13.08784027702770 -1.52709493659366 -2.40209088508851
 1 -13.44318986298630  1.87533885488549 -1.26054398739874
 1 -12.44260286728673  2.89208127212721 -0.22820970397040
 1  12.09069768976898 -0.68145887198720  3.38530319131913
 1  10.50491635663566  0.06711720162016  2.78718759975998
 1  11.98470774077408  0.73131286418642  2.26550568556856
 1  10.77520652365236 -3.07430801090109  0.60436582258226
 1  11.32736365336534 -2.87992290939094  2.37995791979198
 1  9.58990499149915 -2.26290728382838  1.91959690269027
 1 -11.90187708770877  0.19807537853785  2.67150104310431
 1 -10.84375888488849 -1.05592274727473  2.17609361336134
 1 -12.58827998699870 -1.57129803480348  2.85785838183818
 1 -13.40051983298330 -3.07142839483948  0.88493300230023
 1 -11.78997204520452 -2.83161518951895  0.65193024902490
 1 -12.77884824282428 -2.80773108110811 -0.66505497949795
 1  8.77476930093009 -0.09891821192119  0.86975115911591
 1 -10.39609934193419 -2.03154687868787 -0.44374400740074
 1  10.22657507650765  1.02593269116912 -2.36228093109311
 1  11.80540897589759  1.14413870477048 -2.90042975697570
 1  10.72153638863887 -0.53489397649765 -3.20418754875488
 1 -11.17080808780878  2.09451268026803 -2.27790928392839
 1 -9.66709224822482  1.00438107510751 -1.83015762176218
 1 -10.18959071407141  2.67501611461146 -0.91515511151115
 1  15.25709226222622 -2.69465837093709  0.34456634963496
 1 -15.33782321732173  1.46304121812181  1.30626883188319
 1  10.19656513851385  2.34543784768477 -0.27956727172717
 1 -8.83656035303530  0.55540763876388  0.06444163116312
 1  8.83982684468447  4.03600345324533 -0.13303960696070
 1  7.15211860086009  4.36041145004500  0.59092492549255
 1  8.52517722772277  3.84853774067407  1.54285730373037
 1 -8.16179320932093 -3.47443437253725 -0.18695453445344
 1 -8.47952370837084 -2.74209322342234 -1.90251658165817
 1 -6.85639448844884 -3.37068072017202 -1.38548534053405
 1  6.98139980298030  0.66948069096910 -0.52392578457846
 1 -6.35322558455846  0.63173301320132 -0.14869724672467
 1  5.46615599959996  2.98720386828683  0.54333658865887
 1 -4.92873669366937 -2.13710501760176 -0.75511291129113
 1  4.78811191019102  0.33586183208321 -0.66832524352435
 1 -4.02535803980398  0.65699081598160 -0.26381358535854
 1  3.36127391239124  3.36158019991999  1.30220642164216
 1  1.72852950595060  3.22147081798180  0.56902931093109
 1  3.20187420942094  3.83717155105511 -0.28984948094809
 1 -2.57560969796980 -2.98294544164416  0.20157711371137
 1 -3.07690719871987 -2.50722184228423 -1.65147911491149
 1 -1.20068686768677 -2.29652982808281 -0.56379941594159
 1  2.45643280128013 -0.29250790189019 -0.46918482248225
 1 -1.84169357035704  1.24810472837284 -0.22823943694369
 1  0.24254000100010  1.91435414131413 -0.22299650465047
 1  0.17744051405141 -1.12534248434843 -0.58113569756976

