%nproc=4
%Mem=2GB
# td=(NStates=1) CAM-B3LYP/6-31G(d,p) 

TD

0 1
 8  14.71372959195920 -2.20632810391039 -0.42215106810681
 8 -14.77046364336434  2.03191504750475  0.77679677367737
 6  11.48279157315732 -1.02835346944694  1.23871723272327
 6 -12.22248988098810 -0.88130069006901  0.75016053805381
 6  12.90305903790379 -1.31262430053005  1.06130370237024
 6 -13.64564717371737 -0.08380454045405  0.81351024702470
 6  13.28840083408341 -1.88995452255226 -0.31959684868487
 6 -13.49323166316632  1.38156095409541  0.83271505550555
 6  10.90054858085809 -0.30917513361336  0.01368712271227
 6 -11.28812591359136 -0.25693672267227 -0.21198195219522
 6  12.88466268526853 -0.85879663676368 -1.33533440644064
 6 -12.77365812581258  1.77853583058306 -0.45961300330033
 6  11.51574632163216 -0.26563693679368 -1.16158467446745
 6 -11.51490508050805  0.95808213121312 -0.74178371737174
 6  11.27878860586059 -0.36037519561956  2.59018945994599
 6  10.71276071707171 -2.35145562666267  1.36552467246725
 6 -11.66462865686569 -0.96123795179518  2.19539811981198
 6 -12.59940064206421 -2.41271671467147  0.46804870887089
 6  9.58236306230623  0.32345338223822  0.27604428442844
 6 -10.07021838883888 -1.05560964596460 -0.49989867086709
 6  10.92243500850085  0.42647711261126 -2.40853506050605
 6 -10.59677211621162  1.51293167716772 -1.76165547254725
 6  9.37548751575157  1.62884632253225  0.00431505750575
 6 -8.82212269726973 -0.59419297629763 -0.29530057605761
 6  8.06097208320832  2.24280402030203  0.06768243724372
 6 -7.53842898489849 -1.32003633673367 -0.54195952795280
 6  8.16312679367937  3.76255446034603  0.44750611661166
 6 -7.60263136913691 -2.77953770187019 -0.95268544354435
 6  6.89043445044504  1.59021901580158  0.10413040704070
 6 -6.37601940494049 -0.70115559065907 -0.44969797579758
 6  5.54756530853085  2.09329703660366  0.19074399039904
 6 -5.05191631363136 -1.23111298739874 -0.44075624962496
 6  4.47691162216222  1.25077049094909  0.01069544054405
 6 -4.01854727472747 -0.40824703080308 -0.23933126312631
 6  3.09370197519752  1.63512411031103 -0.02742107710771
 6 -2.66351011501150 -0.86783111321132 -0.53289094909491
 6  2.82843312431243  3.06989643854385  0.31979468846885
 6 -2.31752724672467 -2.23847114921492 -0.81813285328533
 6  2.11941151615162  0.77632479637964 -0.30080920592059
 6 -1.67180850385039  0.02263196909691 -0.20943277027703
 6  0.61709887888789  0.94617938583858 -0.15017913791379
 6 -0.24843371237124 -0.16925903100310 -0.33953159315932
 1  13.42069134113411 -0.36660009510951  1.33749858785879
 1  13.17891312731273 -1.95355593669367  1.87348748074807
 1 -14.30964374137414 -0.23754391139114  1.68588579457946
 1 -14.18010937793779 -0.39152607560756 -0.05522714271427
 1  12.72307750975098 -2.94596934003400 -0.44238230323032
 1 -12.87995345634564  1.70741525952595  1.79366883988399
 1  13.65108604060406 -0.16317903800380 -1.14370025402540
 1  13.20538203120312 -1.16689891699170 -2.46637731373137
 1 -13.40460600460046  1.68089941094109 -1.24585251825182
 1 -12.49763837083708  2.84724678867887 -0.62863974697470
 1  11.67419603960396 -0.86000672677268  3.59806446744674
 1  10.29194505950595 -0.34406391649165  3.09003788478848
 1  11.87448671867187  0.68242797569757  2.66848598359836
 1  10.62047105010501 -2.91606218631863  0.41350673667367
 1  10.94473539053905 -2.93030794789479  2.38717864186419
 1  9.62693869486949 -2.03207420052005  1.74759970297030
 1 -11.71195809580958  0.02759833083308  2.66023991699170
 1 -10.74534904390439 -1.77010416541654  2.23761976597660
 1 -12.34275543454345 -1.51292219721972  2.76158875487549
 1 -13.57474725572557 -2.66028728072807  1.05943045204520
 1 -11.73763681168117 -3.02106413441344  0.53248830483048
 1 -12.91357171517152 -2.64467477547755 -0.54489296329633
 1  8.61620344434443 -0.36796511661166  0.57896208020802
 1 -10.22560229222922 -2.18990271427143 -0.83675330833083
 1  10.03955637463746  0.83719381728173 -2.16866156915692
 1  11.58599703470347  1.26007029792979 -2.43444315831583
 1  11.13399763476348 -0.01514200130013 -3.34332146214622
 1 -11.24177518451845  1.83217644664466 -2.69313080608061
 1 -9.75268080708071  0.91304194119412 -2.06532113811381
 1 -10.38871062606261  2.47508612161216 -1.18911250725072
 1  14.95661221422142 -2.55911481658166  0.52952484548455
 1 -15.11919135413541  1.89932484648465  1.70564876987699
 1  10.22948843084308  2.12263556745675 -0.26579589458946
 1 -8.71248794579458  0.33563566156616 -0.15392020502050
 1  8.91911477347735  4.08459831273127 -0.25360166316632
 1  7.00792418141814  4.38458386728673  0.48759459245925
 1  8.46466117611761  3.87835072197220  1.47267028502850
 1 -7.95382241224122 -3.54210113921392 -0.30630646964696
 1 -8.34065982198220 -2.86473548764877 -1.87464379437944
 1 -6.61985083408341 -3.15981963406341 -1.19363615561556
 1  6.88004966796680  0.39879362226223 -0.09567295929593
 1 -6.55224548654865  0.38447828772877  0.16809443244324
 1  5.50513989798980  3.22299744764476  0.50216247124712
 1 -4.92449626962696 -2.24724603170317 -0.73928132813281
 1  4.79097219621962  0.25201344724472 -0.27504591559156
 1 -4.19181468546855  0.56192130903090 -0.00736794079408
 1  2.88063584858486  3.26662070397040  1.46282248324832
 1  1.79512616561656  3.40753942484248  0.13186559455946
 1  3.40860488248825  3.76503433733373 -0.34345484148415
 1 -2.26017815481548 -2.89464661176118  0.22650960696070
 1 -3.00594010201020 -2.69979109920992 -1.61517548454845
 1 -1.23326012501250 -2.34648482358236 -0.88086112211221
 1  2.44576173417342 -0.29375802690269 -0.68903680768077
 1 -1.93199260026003  1.03629354725473  0.14249763676368
 1  0.06685243224322  1.94680738663866 -0.04568877387739
 1  0.30991376137614 -1.12668261836184 -0.33894147814782

