%nproc=4
%Mem=2GB
# td=(NStates=1) CAM-B3LYP/6-31G(d,p) 

TD

0 1
 8  14.71608982798280 -2.22144961606161 -0.44285313831383
 8 -14.79701629862986  1.92569442544254  0.64355344934493
 6  11.48202149614962 -1.04887552165217  1.14298765976598
 6 -12.22913054505450 -0.85493805380538  0.84202972497250
 6  12.93841257325733 -1.37120015811581  1.06179375137514
 6 -13.71282389138914 -0.26251241124112  0.78536743274327
 6  13.36750874487449 -1.95255078217822 -0.33120800980098
 6 -13.55552789278928  1.30490328832883  0.68653043704370
 6  10.90016854285429 -0.34333854995500 -0.05369961596160
 6 -11.30570767176718 -0.29453048204820 -0.22493324732473
 6  12.95549976897690 -0.92976373347335 -1.37006787978798
 6 -12.91962272227223  1.68192616961696 -0.62197923992399
 6  11.55957070407041 -0.30103047614761 -1.20873938993899
 6 -11.53938752875288  0.90261658465847 -0.84493403240324
 6  11.27615834283428 -0.24813397149715  2.52750319131913
 6  10.63778321932193 -2.25537601870187  1.48863698369837
 6 -11.64006620062006 -0.87062889088909  2.11162974297430
 6 -12.60875157715772 -2.42206764976498  0.47462936693669
 6  9.60799562556256  0.30217125402540  0.10629730973097
 6 -10.04022538953895 -1.09517360236024 -0.43830251125113
 6  11.04899766476648  0.25846031093109 -2.49591379837984
 6 -10.71535397439744  1.50103048704871 -1.84282358935894
 6  9.35437540454045  1.60040347824782 -0.11329670367037
 6 -8.78297878287829 -0.59105266226623 -0.22284333033303
 6  8.12081806780678  2.23434317421742  0.04285995499550
 6 -7.57288243024302 -1.37402173527353 -0.41029636163616
 6  8.21982246324633  3.74696290119012  0.41763312931293
 6 -7.64068517451745 -2.74879462756276 -0.97383755875588
 6  6.91382678967897  1.55966596049605  0.00149014301430
 6 -6.48141994499450 -0.64293976907691 -0.25026803280328
 6  5.60617116911691  2.13657136403640  0.31517643364336
 6 -5.07121824382438 -1.14340421652165 -0.39969214321432
 6  4.41495542654265  1.41393680758076  0.00521489248925
 6 -4.00607602760276 -0.36061226732673 -0.20456778677868
 6  3.01579418441844  1.70347094499450  0.15470713571357
 6 -2.61437520152015 -0.72011634173417 -0.39479713971397
 6  2.84560484148415  3.11378082698270  0.65084779377938
 6 -2.37822331633163 -2.10807810991099 -1.03986502650265
 6  2.09737931293129  0.80488765266527 -0.04536366136614
 6 -1.55682700570057  0.13913361926193 -0.14854668166817
 6  0.65616278527853  0.87420218811881  0.14143002300230
 6 -0.25070393939394 -0.04827693279328 -0.24028166816682
 1  13.64579385138514 -0.35630906600660  1.03624846284628
 1  13.16067130313031 -2.09585016611661  1.80967109910991
 1 -14.08626140314031 -0.64867502450245  1.70468767476748
 1 -14.30910227722772 -0.65457238023802  0.05536391639164
 1  12.69975517751775 -2.92286702980298 -0.45834389938994
 1 -12.97495295629563  1.78425294329433  1.64918439143914
 1  13.87616854885488 -0.29610233033303 -1.21484736873687
 1  13.25909740274027 -1.44581680878088 -2.41933260926093
 1 -13.64692023602360  1.25160648164816 -1.35882381538154
 1 -12.81744035103510  2.72673473747375 -0.81711859485949
 1  11.78480710071007 -0.87213793989399  3.28289295029503
 1  10.22005787078708 -0.16581609170917  2.81967084808481
 1  11.94804407440744  0.77101683458346  2.67878701370137
 1  10.72891189418942 -3.09913049314931  0.84601998799880
 1  10.79751066806681 -2.74099901700170  2.33063298729873
 1  9.61904790579058 -2.00526151925192  1.55051999499950
 1 -11.31805870587059  0.23801937293729  2.43471736473647
 1 -10.67358186718672 -1.59780693569357  1.94512051605161
 1 -12.17725888488849 -1.27135804080408  2.92945554155416
 1 -13.47042682368237 -2.95686693869387  0.76445095409541
 1 -11.88223127112711 -3.16672870087009  0.80098515451545
 1 -12.45699605760576 -2.36086639463946 -0.72461093509351
 1  8.67132895689569 -0.50490881098110  0.42444662866287
 1 -10.33030276227623 -2.05758948294829 -0.73693332633263
 1  9.97796021502150  0.42604270217022 -2.52091679467947
 1  11.47665610061006  1.28996328722872 -2.99402911691169
 1  11.21536577157716 -0.50426091319132 -3.54068119811981
 1 -11.27150815781578  1.97495072407241 -2.83669516251625
 1 -9.97676321532153  0.87283792079208 -2.15183978997900
 1 -10.20555231023102  2.43227184018402 -1.47026062206221
 1  14.87287384038404 -3.10305921102110  0.24573646664666
 1 -15.12850228522852  1.90833574757476  1.63460166516652
 1  10.10848633063306  2.39111241514151 -0.21239055405541
 1 -8.66450314731473  0.39357145514551  0.10895608260826
 1  8.85390825282528  4.23495334823482 -0.36097240024002
 1  7.10883427242724  4.21831724062406  0.41855768876888
 1  8.69316402640264  3.65817870477048  1.49249226722672
 1 -8.49296632663266 -3.23482041114111 -0.44993083208321
 1 -8.01631738773877 -2.61036005010501 -2.06188251825183
 1 -6.68744759375938 -3.31810546264626 -1.11010780278028
 1  7.00226188918892  0.43585732863286 -0.52419581158116
 1 -6.74648491049105  0.37774761466147  0.18483610661066
 1  5.51890127412741  3.28425357325733  0.68861111611161
 1 -4.99461328132813 -2.21110241734173 -0.57004440444044
 1  4.65633873287329  0.38247649354935 -0.32743115411541
 1 -4.10065556955696  0.73049816671667 -0.05421262526253
 1  3.40051783678368  3.30925496739674  1.48664486548655
 1  1.77418407140714  3.34256292719272  0.78983139113911
 1  3.17612163416342  3.77328516241624 -0.03835433143314
 1 -2.82607474447445 -2.81014816191619 -0.40759380338034
 1 -2.56626613461346 -2.35967708780878 -2.17334130113011
 1 -1.21992879187919 -2.33983415851585 -0.78355139113911
 1  2.33114027202720 -0.15113376447645 -0.80122802680268
 1 -1.97946734773477  1.19690960886089  0.15601898889889
 1  0.42922866986699  1.93257596349635  0.43692948794880
 1  0.19537230723072 -1.06532648274828 -0.58564614861486

