%nproc=4
%Mem=2GB
# td=(NStates=1) CAM-B3LYP/6-31G(d,p) 

TD

0 1
 8  14.68412663166317 -2.16177364846485 -0.54157301030103
 8 -14.69948654565457  2.12279413541354  0.62552164616462
 6  11.43533682768277 -1.08290892499250  1.10729409040904
 6 -12.35306293829383 -0.79407196719672  0.70845636763676
 6  12.95756448844885 -1.42484552265227  1.00036760876088
 6 -13.59580218921892 -0.09450561056106  0.53190208620862
 6  13.35851784578458 -1.81913744084408 -0.35535042404240
 6 -13.43098543854386  1.41683448144815  0.58829061306131
 6  10.90924945094510 -0.27656187228723 -0.15014926092609
 6 -11.28272537353735 -0.20743177217722 -0.23220397439744
 6  13.06681090009001 -0.74896565366537 -1.36132700570057
 6 -12.64917567756776  1.84106208320832 -0.65886292829283
 6  11.65829057605761 -0.11302167526753 -1.23481199719972
 6 -11.47718130813081  0.90503682668267 -0.84136367536754
 6  11.24420514751475 -0.12146130423042  2.28333877487749
 6  10.67721716271627 -2.31054153525353  1.37072519251925
 6 -11.74008620262026 -0.81472330033003  2.13264184418442
 6 -12.64359506150615 -2.23414885788579  0.43747565156516
 6  9.65552037803780  0.27832886978698  0.02465914591459
 6 -10.08671003800380 -1.11333541854185 -0.52453113411341
 6  11.32105487048705  0.72802726762676 -2.34746895389539
 6 -10.56157859685969  1.52083246724672 -1.87992729972997
 6  9.30034000100010  1.59664310221022 -0.02715808980898
 6 -8.83702418741874 -0.60608416541654 -0.20006105210521
 6  7.95234122012201  2.19295903580358  0.05983165216522
 6 -7.58110325232523 -1.37664199729973 -0.38326365836584
 6  8.09897037803781  3.67758596349635  0.50692205820582
 6 -7.75108621462146 -2.74238398649865 -0.83258343334333
 6  6.82193760076008  1.48478847274727  0.02081207520752
 6 -6.40323212621262 -0.83079855495550 -0.15031803780378
 6  5.45732628462846  2.02563026992699  0.25907082308231
 6 -5.07441856385639 -1.31406128222822 -0.29471164516452
 6  4.46570050105010  1.19171458535854 -0.02320794979498
 6 -4.03951937193719 -0.50235644174417 -0.10145747574757
 6  3.03594619961996  1.54086468436844  0.23152481748175
 6 -2.67617138113811 -1.00879520962096 -0.26822448244824
 6  2.73742402340234  2.99179862876288  0.63050575957596
 6 -2.27441293529353 -2.44895219731973 -0.63409444944494
 6  2.03634320932093  0.67392455635564  0.00441131613161
 6 -1.64933625662566 -0.05228552265227 -0.06880870787079
 6  0.57672484148415  0.83310807870787 -0.00429454945495
 6 -0.33233210221022 -0.20535264036404 -0.23002064206421
 1  13.56189546154615 -0.45499893499350  1.02695753375338
 1  13.20352558855886 -2.28733931503150  1.68665879787979
 1 -14.19936271327133 -0.17378753575358  1.50304751075108
 1 -14.19080044704470 -0.38980590359036 -0.46384800480048
 1  12.56683188518852 -2.68705344844484 -0.61372943794379
 1 -12.89167462846285  1.70571508950895  1.44166363936394
 1  13.68857978997900  0.13201048094810 -1.21883776777678
 1  13.17524901790179 -1.17087931503150 -2.23411408740874
 1 -13.34337988198820  2.03379470047005 -1.54341227422742
 1 -12.26250485748575  2.80745280928093 -0.35384226722672
 1  11.50263888388839 -0.82250297639764  3.29018367936794
 1  10.17761362636264  0.16118660856086  2.31592047304731
 1  11.95625489548955  0.62377211011101  2.27224635963596
 1  10.76530553355335 -3.18049862996300  0.73341872787279
 1  10.92547346434644 -2.63283820092009  2.51252117611761
 1  9.59893589458946 -2.02612360546055  1.25506044904490
 1 -11.57854475447545  0.24173974497450  2.42871676467647
 1 -10.73874838383838 -1.21233838883888  2.10875687968797
 1 -12.28135929492949 -1.49273017801780  2.71577417341734
 1 -13.35078485948595 -2.70560181218122  1.27439194819482
 1 -11.85714876287629 -2.91570359835984  0.46551160716072
 1 -13.11435179317932 -2.49480978897890 -0.56275474947495
 1  8.96397822182218 -0.36854517461746  0.51685586958696
 1 -10.18120785278528 -2.17111083508351 -1.11634126712671
 1  10.32255467446745  1.31694179207921 -2.33580828382838
 1  12.23281171617162  1.55294958585859 -2.49501921592159
 1  11.42435667066707  0.15642515541554 -3.42723985398540
 1 -11.05183619061906  2.05898912791279 -2.65538703170317
 1 -9.86172171117112  0.88405904290429 -2.69234384038404
 1 -9.94624637963796  2.25389400240024 -1.43681727772777
 1  15.01960851385138 -2.85383428852885  0.20670256325633
 1 -15.14129356435643  1.96621153515352  1.44971317631763
 1  10.03137861986199  2.54859816371637 -0.22776209120912
 1 -8.52532922992299  0.31277337533753  0.23576876387639
 1  8.66073893589359  4.20428028092809 -0.27045334833483
 1  7.21769515851585  4.17641305020502  0.62555838883888
 1  8.73483819381938  3.70383327022702  1.38077109510951
 1 -8.55019204920492 -3.29744667376738 -0.11645748474847
 1 -8.14285004100410 -2.75968498259826 -1.92391872187219
 1 -6.90454930393039 -3.47116076817682 -0.89244603660366
 1  6.97658932193219  0.52788653155316 -0.26819021102110
 1 -6.39603986598660  0.30840067996800  0.09841746474647
 1  5.43801318531853  3.09889503740374  0.36421867686769
 1 -4.86638045804581 -2.26282758985899 -0.48684608460846
 1  4.50955405440544  0.21846009190919 -0.30596900790079
 1 -4.17198270227023  0.53178829572957  0.30314311031103
 1  3.40457824282428  3.19300334223422  1.50179638063806
 1  1.84231088408841  3.16592526342634  1.07178958695870
 1  3.03623764576458  3.86029386328633 -0.04312480848085
 1 -2.91229336633663 -3.22202935003500  0.12786974297430
 1 -2.64375388338834 -2.49788090819082 -1.66834080108011
 1 -1.19866666566657 -2.64483465856586 -0.70908394439444
 1  2.36959411741174 -0.25939459055906 -0.27725562956296
 1 -2.05659506050605  1.08328824672467 -0.09040565356536
 1  0.32358810581058  2.00032273817382  0.05921171617162
 1  0.19101187118712 -1.19246919701970 -0.16003358735874

