%nproc=4
%Mem=2GB
# td=(NStates=1) CAM-B3LYP/6-31G(d,p) 

TD

0 1
 8  14.68635685468547 -2.30125759685969 -0.43165201820182
 8 -14.86581317831783  1.92919477547755  0.54025311931193
 6  11.36678997299730 -1.09814044814481  1.15834919591959
 6 -12.33638127012701 -0.94270683068307  0.74496001800180
 6  12.94321305330533 -1.44695773387339  0.99236680868087
 6 -13.60710331933193 -0.25625178517852  0.71525042104210
 6  13.32901489548955 -1.98739426652665 -0.27745263426343
 6 -13.60266260626063  1.35868866686669  0.65254703870387
 6  10.93915244124413 -0.27364158025803 -0.03263750975098
 6 -11.39617671867187 -0.35952698169817 -0.28691944594459
 6  12.98926314531453 -1.02987374447445 -1.47328820182018
 6 -12.74116487648765  1.75676365336534 -0.55253229522952
 6  11.62508725572557 -0.33067344044404 -1.20566908290829
 6 -11.48495208520852  0.83678000100010 -0.85351489048905
 6  11.16137686468647 -0.42202136023602  2.46801724272427
 6  10.58942838383838 -2.51906238733873  1.11527964796480
 6 -11.74292648664866 -0.76538836683668  2.14600318031803
 6 -12.44354505650565 -2.43915935893589  0.65501740574057
 6  9.66218104410441  0.42752378927893  0.14164084408441
 6 -10.07372873987399 -0.99791387638764 -0.49128780978098
 6  11.22779554455446  0.55320978587859 -2.39054326132613
 6 -10.54343678267827  1.48541892589259 -1.81859116611661
 6  9.28857882488249  1.62648608650865 -0.10854622862286
 6 -8.74265475047505 -0.61148470547055 -0.33507455345535
 6  8.00715670167017  2.26145588548855  0.15026069506951
 6 -7.56041118311831 -1.42417675077508 -0.53504883688369
 6  8.17067754875488  3.76962516741674  0.44633599959996
 6 -7.72813391939194 -2.76934668276828 -1.06326650165017
 6  6.87768317531753  1.60346033993399 -0.02987299329933
 6 -6.41160296329633 -0.76714218931893 -0.30506351235124
 6  5.51717226922692  2.14566227312731  0.16746166216622
 6 -5.02887400940094 -1.21194107020702 -0.41290346434643
 6  4.44393832483248  1.34438985288529  0.06892126312631
 6 -3.91783720372037 -0.45529173527353 -0.19019634963496
 6  3.01908451345134  1.79708030593059  0.25619728472847
 6 -2.52470623462346 -0.82715704580458 -0.21081874187419
 6  2.73981426242624  3.29440888978898  0.37665037403740
 6 -2.22932842684268 -2.23199050115011 -0.59653069306931
 6  2.06346592159216  0.77375453935394  0.09807068206821
 6 -1.62177350035003  0.22886259215922 -0.01071289828983
 6  0.58663583258326  1.10831559945995  0.16829270927093
 6 -0.24160302930293  0.08299619451945 -0.09081672167217
 1  13.42588186018602 -0.51003443854385  1.10261509950995
 1  13.18704394039404 -2.08188876997700  1.85156528852885
 1 -14.21869464646465 -0.53970412741274  1.52431963796380
 1 -14.29713108010801 -0.58257518051805  0.02747112711271
 1  12.69230443244325 -2.75485022812281 -0.53298136313631
 1 -13.04810027102710  1.93063758175818  1.55737521052105
 1  13.81247217921792 -0.40872359245925 -1.45781166516652
 1  12.86465795879588 -1.56152837993799 -2.49845052105211
 1 -13.33032857685768  1.70682200320032 -1.43981191419142
 1 -12.52101070807081  2.75133719771977 -0.53906078907891
 1  11.48134675467547 -0.99843056915692  3.52457711871187
 1  9.97060292529253 -0.42536204630463  2.46290517151715
 1  11.70363963396340  0.68158789168917  2.30869000400040
 1  10.69044804780478 -2.86463704380438  0.03885927192719
 1  11.24504542154216 -3.12615753285329  1.77157708170817
 1  9.52901890289029 -2.26481747484748  1.59645458845885
 1 -11.36048294829483  0.21357692869287  2.36790068306831
 1 -10.80856536553655 -1.35627278227823  2.06122212621262
 1 -12.39606076507651 -1.21700260526053  2.67486008200820
 1 -13.10738051905190 -2.88258951095110  1.12430693969397
 1 -11.44624767276728 -3.03310533853385  0.72181723772377
 1 -12.95482584058406 -2.65728603660366 -0.49235770977098
 1  8.85346717071707 -0.31395971607161  0.30443462746275
 1 -10.00243997599760 -2.06196992099210 -0.62646227922792
 1  10.12643506250625  0.95510560846085 -2.32421712471247
 1  11.85675411041104  1.26411070197020 -2.45110482448245
 1  11.45450968596860  0.18255776867687 -3.39673680368037
 1 -11.25555656265627  1.97228045704570 -2.56566805980598
 1 -9.77896343534353  0.99215985298530 -2.23472807880788
 1 -9.95280703570357  2.30120873387339 -1.60175377137714
 1  14.77615416841684 -3.09560846594660  0.33996588958896
 1 -15.60624005900590  1.71793670767077  1.31451965696570
 1  9.92872835483548  2.33702700660066 -0.60578989398940
 1 -8.59565626262626  0.37291938993899 -0.06187100010001
 1  8.87443030503050  4.21013086598660 -0.22247855085509
 1  7.22681607060706  4.41388679757976  0.27920375337534
 1  8.39879458945894  3.85425831273127  1.43383640164016
 1 -8.38483551355135 -3.40528745784578 -0.38154399339934
 1 -8.06629238523852 -2.87256627072707 -2.04693102310231
 1 -6.73447229622962 -3.28966261836184 -1.03501029302930
 1  6.81586324932493  0.66613035593559 -0.39014240624062
 1 -6.43273353535354  0.29978981888189  0.12000962396240
 1  5.47854723872387  3.14142929082908  0.68045030003000
 1 -4.67111093109311 -2.17600890799080 -0.40785818581858
 1  4.52936603560356  0.24430267616762 -0.19662807380738
 1 -4.27456296029603  0.64427954485449 -0.06331353535354
 1  3.31159894489449  3.58699274117412  1.28477467846785
 1  1.68568522152215  3.64070274117412  0.48291069906991
 1  3.14969899189919  3.85216305020502 -0.38946944294429
 1 -2.58178031503150 -2.94728187528753 -0.00514355835584
 1 -2.57817732573257 -2.32104322442244 -1.65598956595660
 1 -1.20753755275528 -2.50234040914091 -0.55591862786279
 1  2.45513267126713 -0.30639929102910  0.19839193519352
 1 -2.12710211121112  1.10815073297330  0.27661104810481
 1  0.26070181718172  2.19593229912991 -0.00847505250525
 1  0.14858762876288 -0.99024897499750 -0.03452103610361

