%nproc=4
%Mem=2GB
# td=(NStates=1) CAM-B3LYP/6-31G(d,p) 

TD

0 1
 8  14.61554977397740 -2.35579305040504 -0.48372722572257
 8 -14.81562815981598  2.00360221622162  0.49684877887789
 6  11.44935822982298 -1.22580321442144  1.13672703370337
 6 -12.34332196419642 -0.96803936393639  0.77339286128613
 6  12.90361909390939 -1.59836287438744  0.96476404840484
 6 -13.72648525752575 -0.22746890689069  0.71946084208421
 6  13.28578057205721 -2.03117864496450 -0.48566345534553
 6 -13.66328866886689  1.25901869986999  0.57877966196620
 6  10.98367689368937 -0.27643185928593  0.00488624262426
 6 -11.35878297929793 -0.40026105510551 -0.16343709770977
 6  12.92030624962496 -0.90292104920492 -1.46956782978298
 6 -12.78779953995400  1.54045202220222 -0.63105014701470
 6  11.64862960996100 -0.13126349944995 -1.18048656465647
 6 -11.61608519851985  0.85014133713371 -0.89795933493349
 6  11.25124585158516 -0.38752791089109  2.52518295929593
 6  10.49368880988099 -2.46661714281428  1.32261038103810
 6 -11.77838003200320 -0.98472030003000  2.22491107110711
 6 -12.67316801880188 -2.41502694569457  0.38444034803480
 6  9.65755058105811  0.37522855975598  0.20139681968197
 6 -10.06978834583458 -1.13498758375838 -0.43529221022102
 6  11.29105187018702  0.58233269816982 -2.37564177117712
 6 -10.68433087208721  1.36209659365937 -1.96158546554655
 6  9.44269423642364  1.66208964686469 -0.05366074007401
 6 -8.82698318331833 -0.67755131213121 -0.10332137813781
 6  8.08207419341934  2.24351409130913  0.10750641964196
 6 -7.52305744774477 -1.26488082118212 -0.36776210821082
 6  8.03302378337834  3.72465066996700  0.44104547054705
 6 -7.53426453245325 -2.76050579867987 -0.89396957195720
 6  6.95864127112711  1.56036603050305 -0.01099110511051
 6 -6.40786258925893 -0.55068054315432 -0.15139814581458
 6  5.56486703870387  2.10322802970297  0.26626154215422
 6 -5.09387050905091 -1.00288016411641 -0.13766594059406
 6  4.48372230323032  1.30477589148915  0.09042341334133
 6 -3.97368278827883 -0.19728593469347 -0.14417174717472
 6  3.10836344134413  1.73434403230323  0.19438110311031
 6 -2.63000676467647 -0.58422275237524 -0.39239689968997
 6  2.90525080608061  3.17857730663066  0.40046275527553
 6 -2.32651814581458 -2.02139944204420 -0.63924496449645
 6  2.11609118411841  0.81611877577758 -0.05262438743874
 6 -1.55268659165917  0.21150085598560 -0.16972879987999
 6  0.72596976597660  1.06026079397940 -0.05225934593459
 6 -0.16980584958496 -0.00279238433843 -0.27527516751675
 1  13.51938121012101 -0.73303673877388  1.25423026102610
 1  13.20869610561056 -2.49546012711271  1.66491662366237
 1 -14.30907368436844 -0.70402055905591  1.58293549954995
 1 -14.24031539853985 -0.45678260126013 -0.28125974597460
 1  12.54526972897290 -2.81310605370537 -0.64838290329033
 1 -13.01785724672467  1.64362888088809  1.45232470547055
 1  13.79625055705571 -0.21017373747375 -1.53093897789779
 1  12.80770226322632 -1.24320654775478 -2.52680335633563
 1 -13.32594813881388  1.53472479347935 -1.46790472347235
 1 -12.52078068506851  2.50303236723672 -0.56404328732873
 1  11.91206982698270 -0.80197092319232  3.47713237423742
 1  10.22477834283428 -0.30659016911691  2.89944882588259
 1  11.77452672267227  0.69023875677568  2.62475161016102
 1  10.73507251025102 -3.15393597369737  0.42298768476848
 1  10.67847876487649 -2.82301721882188  2.23606353035304
 1  9.42244824582458 -1.99764075717572  1.20548549154915
 1 -11.63492039203920 -0.01055548454845  2.67162105510551
 1 -10.74850935993599 -1.28937609260926  2.23728973297330
 1 -12.32121328032803 -1.69477038203820  2.92716531253125
 1 -13.46069585058506 -2.75951720372037  1.15352986198620
 1 -11.87850089808981 -3.06939896789679  0.57072212821282
 1 -13.05356571457146 -2.48405871387139 -0.62465093909391
 1  8.87630945494549 -0.31732005210521  0.92290647464746
 1 -10.16301603360336 -2.23584730873087 -0.66492612561256
 1  10.24177659665967  0.93470356825683 -2.17315201820182
 1  12.05586402140214  1.25815010591059 -2.48241795579558
 1  11.44621885688569 -0.08829931703170 -3.10972810281028
 1 -11.12293330033003  1.78746197519752 -2.80160165316532
 1 -9.85712125112511  0.77514815181518 -2.48929353535354
 1 -10.29973172817282  2.24759337233723 -1.43226682268227
 1  14.76755330833083 -3.02850175527553  0.20127202020202
 1 -15.33444287928793  1.71359627362736  1.25754395939594
 1  10.10035551755175  2.36180948484848 -0.57155647064706
 1 -8.68526522352235  0.47743984198420  0.15793098009801
 1  8.67615047704771  4.07051690459046 -0.44513081608161
 1  7.22953634263426  3.99319472837284  0.16746257925793
 1  8.49645435543554  3.80779366626663  1.36662968096810
 1 -7.89248627862786 -3.34179110821082 -0.17236307530753
 1 -8.21042679867987 -2.68090710481048 -1.80545687568757
 1 -6.56162501150115 -3.25286893899390 -1.19965675767577
 1  6.65083674667467  0.57727147004700 -0.68091148314831
 1 -6.39310957295730  0.45053489338934  0.29763738673867
 1  5.58653803780378  3.02824797269727  0.58289054405441
 1 -4.59021284128413 -2.14382568966897 -0.27092449244925
 1  4.76738983798380  0.20327857375738 -0.09472788378838
 1 -4.20424592859286  0.90734585148515 -0.07117432143214
 1  3.33636142114211  3.51467550945095  1.37612381338134
 1  1.87154380738074  3.58862753365336  0.47671007900790
 1  3.46804082608261  3.83143097699770 -0.36411690769077
 1 -2.96281841884188 -2.57860500760076  0.15244220022002
 1 -2.83149265726573 -2.61558267836784 -1.43963793079308
 1 -1.34191099009901 -2.35616579167917 -0.64499753575358
 1  2.47037419541954 -0.31323997509751 -0.31974987898790
 1 -1.87565696669667  1.13591350925093  0.02820620762076
 1  0.37165291229123  2.02532523842384  0.17594338933893
 1  0.22794556455646 -0.97909785988599 -0.54121170517052

