%nproc=4
%Mem=2GB
# td=(NStates=1) CAM-B3LYP/6-31G(d,p) 

TD

0 1
 8  14.69970818981898 -2.28117558865887 -0.39106795979598
 8 -14.84259085608561  2.01943379937994  0.37517661166117
 6  11.43597689168917 -1.05140577467747  1.15414877587759
 6 -12.36233386538654 -0.90289284928493  0.86440196219622
 6  12.94495322732273 -1.40285332343234  0.99936750875088
 6 -13.68509111811181 -0.17417357735774  0.66916581258126
 6  13.33307530153015 -1.96827235433543 -0.41982687168717
 6 -13.61521386138614  1.33714651265127  0.62504428842884
 6  10.87351587758776 -0.28515273137314 -0.08702294829483
 6 -11.31311841284128 -0.19499052805281 -0.08019877387739
 6  13.07095131413141 -0.81970272737274 -1.32917379037904
 6 -12.78320908090809  1.75859383638364 -0.57738478047805
 6  11.66821156815682 -0.17329770287029 -1.14025254125413
 6 -11.50423401340134  0.96665298829883 -0.73866340534053
 6  11.29621034803480 -0.19114827292729  2.44825526652665
 6  10.59893933493349 -2.34094457555756  1.32127024702470
 6 -11.71422361636164 -0.80382221022102  2.27375595559556
 6 -12.63264396639664 -2.38151359435944  0.42800470447045
 6  9.62160698669867  0.36689772667267  0.17404408440844
 6 -10.08078944594459 -1.02807689268927 -0.26323500450045
 6  11.25718848384838  0.62901736663666 -2.42505671267127
 6 -10.52253469246925  1.58679906390639 -1.81234054105411
 6  9.29659962696270  1.69765320322032 -0.13660903490349
 6 -8.79592007700770 -0.59092264926493 -0.18311935793579
 6  8.05081106710671  2.28985872577258  0.07194286328633
 6 -7.49006414841484 -1.41557589068907 -0.33772910491049
 6  8.04766524752475  3.75271347624762  0.45113647964796
 6 -7.64474558055806 -2.88397814591459 -0.66904707970797
 6  6.88902430943094  1.57787778167817 -0.06327633363336
 6 -6.37142894589459 -0.60841631673167 -0.26509951595160
 6  5.56422697469747  1.96047375427543  0.26935185118512
 6 -5.04565568756876 -1.12972284838484 -0.55380755475548
 6  4.49673360436044  1.16628204210421  0.01006537753775
 6 -3.98643406340634 -0.36310251635164 -0.28975630563056
 6  3.07102970797080  1.54985558345835  0.21893355835584
 6 -2.64744850885088 -0.86037036713671 -0.55223288328833
 6  2.78483876487649  2.96366581548155  0.66401911091109
 6 -2.49573506750675 -2.22743004510451 -1.03229426942694
 6  2.07042661766177  0.67305446934693  0.00875175017502
 6 -1.58823014601460  0.00949065496550 -0.19752157915792
 6  0.68915608460846  0.84787955585559  0.10120600060006
 6 -0.22198106710671 -0.09908201330133 -0.34113175317532
 1  13.56746601860186 -0.39710314541454  1.06406124412441
 1  13.11584682068207 -2.20631121222122  1.90593072507251
 1 -14.44218699569957 -0.55221537853785  1.35412261826183
 1 -13.86773814081408 -0.45220214321432 -0.60378199819982
 1  12.93231843384338 -2.94949969306931 -0.85920398539854
 1 -13.25997145814581  1.79954447244724  1.63201267426743
 1  13.79742067406741  0.01032831273127 -1.28058394239424
 1  13.08265975897590 -1.18652087918792 -2.39437011301130
 1 -13.48035357935793  1.51498281928193 -1.49377731073107
 1 -12.45320392739274  2.82911497549755 -0.39776665966597
 1  11.62464108410841 -0.72872359845985  3.48920358135814
 1  10.25536140114011  0.22799328922892  2.64054293529353
 1  11.84526379637964  0.63502323522352  2.39776891189119
 1  10.70468947194719 -3.00856143624362  0.51272665866587
 1  11.07131804880488 -3.09215413251325  2.06566649064906
 1  9.38713471447145 -2.26492748584859  1.71070601360136
 1 -11.43019991999200  0.21201677267727  2.44818871187119
 1 -10.79957446644664 -1.25925308030803  2.02761876587659
 1 -12.30656181518152 -1.37297820282028  3.00492308830883
 1 -13.49651943294329 -2.84609586158616  1.12357686668667
 1 -11.70323337133713 -3.03124515251525  0.55550060606061
 1 -13.06074643264327 -2.46275658365836 -0.62071054505450
 1  9.00018184218422 -0.05267358745875  0.68041222522252
 1 -10.05164489648965 -2.02347607160716 -0.83579321232123
 1  10.02943536253625  0.56869696759676 -2.32980768376838
 1  11.82028046304631  1.55416970787079 -2.41620133413341
 1  11.40750498549855 -0.18190867796780 -3.32248937893789
 1 -11.08202920992099  2.04769799879988 -2.59563105610561
 1 -9.98685422442244  0.63976461346135 -2.23734834083408
 1 -9.94486624162416  2.27436604960496 -1.22295589158916
 1  14.93475002800280 -2.87132603770377  0.25449734273427
 1 -15.25779521452145  1.89923483748375  1.23441164616462
 1  10.15166064806481  2.14123742764276 -0.66446576157616
 1 -8.61032772977298  0.39973207120712  0.27365255225523
 1  8.55952881488149  4.33558341124112 -0.13909021202120
 1  7.06878026702670  4.30238564746475  0.33531936493649
 1  8.19428413841384  3.96973986088609  1.48749176717672
 1 -8.20466749674967 -3.48137506660666 -0.04208004700470
 1 -8.18441419741974 -3.13337235133513 -1.67167349734974
 1 -6.61446029502950 -3.54029768186819 -0.47672446444644
 1  6.90673233623362  0.51728547144714 -0.46339973197320
 1 -6.57967822982298  0.40280011991199  0.11455907890789
 1  5.22279166316632  2.84600974887489  0.82780503550355
 1 -5.09806362636264 -2.07509881698170 -0.95561296129613
 1  4.72457555655566  0.17486573247325 -0.53439185018502
 1 -4.32462796679668  0.58757387428743  0.09355215121512
 1  3.40316810181018  3.22517655955596  1.55766196719672
 1  1.76887354035404  3.21474014491449  1.03044545254525
 1  3.03033705570557  3.62627046094609 -0.24322481848185
 1 -3.19828196519652 -2.87875502260226 -0.57268031203120
 1 -2.54682419041904 -2.31026214631463 -2.13185715271527
 1 -1.36867366636664 -2.42292246734673 -0.62749578557856
 1  2.19450660866087 -0.32193084418442 -0.39042694669467
 1 -1.87383678467847  1.02215213311331  0.02508589558956
 1  0.26976272327233  1.87971067696770  0.20811660666067
 1  0.32023479347935 -1.03976392649265 -0.64952253625363

