%nproc=4
%Mem=2GB
# td=(NStates=1) CAM-B3LYP/6-31G(d,p) 

TD

0 1
 8  14.53712193119312 -2.43168063916392 -0.54662351535154
 8 -14.92092868986899  1.84789664566457  0.47968706270627
 6  11.45748904290429 -1.16502713681368  1.17976133713371
 6 -12.24159179117912 -0.87997055705571  0.84495001700170
 6  12.94279301130113 -1.43134617271727  1.01971954395440
 6 -13.72797540654065 -0.28191435143514  0.68734763076308
 6  13.21692368636864 -1.92823835093509 -0.31038592759276
 6 -13.60822316231623  1.29872267026703  0.60542232623262
 6  10.88783730973097 -0.32633684978498 -0.04415866186619
 6 -11.31009811081108 -0.27073810281028 -0.16878763276328
 6  12.97767198619862 -0.86697745484548 -1.39124999799980
 6 -12.86523728372837  1.72718069506951 -0.58062510451045
 6  11.61630637763776 -0.24241461456146 -1.15550406640664
 6 -11.55258884888489  0.90747707070707 -0.81826136513651
 6  11.27539826682668 -0.02775193329333  2.38476891789179
 6  10.57163660466047 -2.29391987308731  1.46884500450045
 6 -11.70409260326032 -0.67992982098210  2.18480706070607
 6 -12.56783748574857 -2.40610605360536  0.53218512251225
 6  9.60831565756576  0.31577261416142  0.09873655365537
 6 -10.12580394739474 -1.09206329132913 -0.37737641864186
 6  11.31179394439444  0.47942240714071 -2.42879708670867
 6 -10.56779921892189  1.51194157815782 -1.77877718471847
 6  9.24864483148315  1.63418685658566 -0.14401977597760
 6 -8.84721520652065 -0.58715227222722 -0.26068711471147
 6  8.00110609660966  2.24533427332733  0.19126479547955
 6 -7.55769091109111 -1.32373670677068 -0.56056138813881
 6  8.14347482848285  3.63608181308131  0.67004837083708
 6 -7.51980308630863 -2.87229697779778 -0.81832200720072
 6  6.89934534153415  1.57958795269527 -0.11447145314531
 6 -6.36823862686269 -0.62159763486349 -0.27667067306731
 6  5.57924847684768  2.10189789668967  0.12357727372737
 6 -5.00906202820282 -1.11811168726873 -0.45764793879388
 6  4.50475440644064  1.27237265116512 -0.07675330433043
 6 -3.95700112011201 -0.41092729882988 -0.14514184418442
 6  3.06157876287629  1.67588818671867  0.26660832583258
 6 -2.53853761776178 -0.75671000110011 -0.39961762176218
 6  2.89128940994099  3.07608705760576  0.77328003700370
 6 -2.25076057005701 -2.24103140524052 -0.95311635163516
 6  2.13480305530553  0.78798596249625 -0.17430655565557
 6 -1.70122144514451  0.12417212311231 -0.04619644664466
 6  0.70874804380438  0.89730449834984  0.04604048404840
 6 -0.19267813681368 -0.01372347744774 -0.24404204420442
 1  13.54736400840084 -0.46128956405641  1.14096893489349
 1  13.21618685468547 -2.40676125722572  1.62335246724673
 1 -14.23017579457946 -0.56430658765877  1.51955916191619
 1 -14.27823919091909 -0.46465338833883 -0.31296291629163
 1  12.54399960196020 -2.74182892599260 -0.45287335233523
 1 -13.04990045104510  1.74899941794179  1.45240471347135
 1  13.63410434243424  0.02786006590659 -1.45090097409741
 1  12.84906639963996 -1.48248047514751 -2.31506218221822
 1 -13.36640218421842  1.71815313631363 -1.89182711571157
 1 -12.76563517051705  2.94043610761076 -0.45943282628263
 1  11.94017263726373 -0.31676240234023  3.27588224922492
 1  10.20371623662366  0.19642013191319  2.57464634563456
 1  11.79426869686969  0.90557028992899  2.15649478447845
 1  10.89762876587659 -3.10701128122812  0.66701208720872
 1  10.89791070807081 -2.82708762586259  2.48990891489149
 1  9.54998099909991 -2.06115710881088  1.64105904890489
 1 -11.97173407340734  0.47585315631563  2.49325321832183
 1 -10.57394190319032 -1.01473862886289  2.51498750275027
 1 -12.21871303030303 -1.09667057205721  3.01070366636664
 1 -13.56810659165916 -2.66230748274827  1.07384189318932
 1 -11.59135218321832 -3.03397542554255  0.73687874387439
 1 -12.79899025702570 -2.60375068306831 -0.54952342634263
 1  8.57906973097310 -0.06886520662066  0.43931811581158
 1 -10.22669240124012 -2.02226595059506 -0.89728936193619
 1  10.25513793279328  1.06150624852485 -2.37542224522452
 1  12.08038647364737  1.25705999689969 -2.68488820282028
 1  11.44739897489749 -0.09337982508251 -3.27052418241824
 1 -10.94886589358936  1.91158438743874 -2.50537203020302
 1 -9.80160569956996  0.66460709770977 -1.98492309830983
 1 -9.95907766276628  2.40376898989899 -1.40415401140114
 1  14.61032758575858 -3.31189009410941  0.01666355935594
 1 -15.54294372937294  1.78817373137314  1.36697490249025
 1  10.14335981798180  2.20760406430643 -0.51262057705771
 1 -8.81175787278728  0.35729782778278  0.23890907790779
 1  8.70674353635363  4.19979983288329 -0.15027133013301
 1  7.07597098609861  4.10610601950195  0.79731556455646
 1  8.61076578657866  4.05152803970397  1.69405242324232
 1 -7.94884191419142 -3.60435736483648 -0.15144098309831
 1 -8.11513726972697 -2.93724273837384 -1.86398272827283
 1 -6.42915176417642 -3.26161981408141 -0.98425521752175
 1  7.01072273527353  0.58765250815081 -0.44360775277528
 1 -6.52140240224022  0.42185202510251  0.40872849584958
 1  5.37145652965297  3.02796794469447  0.39376163116312
 1 -5.03734755475548 -2.02348365546555 -1.11075847584758
 1  4.59090218921892  0.39065731163116 -0.42819123012301
 1 -4.09076458045805  0.63710882778278  0.27522031803180
 1  3.27758554355436  3.11945598749875  1.61724792579258
 1  1.80394704770477  3.31299997089709  0.75647805580558
 1  3.61385540754075  3.65463329722972  0.18438794279428
 1 -2.44852698969897 -2.79357650475047  0.03376033203320
 1 -3.01444095209521 -2.52348346844685 -1.74329829682968
 1 -1.20870766976698 -2.44806498159816 -1.56304934093409
 1  2.41441859985999 -0.15168381948195 -0.63085098909891
 1 -1.86744614561456  1.23531344924492  0.15988937593759
 1  0.31430717771777  1.78847155305531  0.18018381338134
 1  0.01544431443144 -1.09130908100810 -0.53957154115412

