%nproc=4
%Mem=2GB
# td=(NStates=1) CAM-B3LYP/6-31G(d,p) 

TD

0 1
 8  14.93008122712271 -2.07116458755876 -0.32442129512951
 8 -14.86283288028803  1.95914777077708  0.74998409240924
 6  11.64912820682068 -1.13447408150815  1.23392675367537
 6 -12.34277190919092 -0.88016057605761  0.83275879787979
 6  13.08511724372437 -1.37242028012801  1.16342391439144
 6 -13.73138574757476 -0.17978413841384  0.83684258025803
 6  13.52630462446245 -1.79343487058706 -0.31210609960996
 6 -13.52277461746175  1.30632343034303  0.72617440144014
 6  11.09999852585259 -0.36943115921592  0.03201895589559
 6 -11.35874297529753 -0.29631066006601 -0.20064081808181
 6  13.14422864186418 -0.90265102220222 -1.36583745674567
 6 -12.89134989498950  1.67253523052305 -0.58476551855186
 6  11.75573032003200 -0.16914728782878 -1.13359187518752
 6 -11.63147673767377  0.90205652865287 -0.76029556855686
 6  11.39596032303230 -0.26506566466647  2.46188662966297
 6  10.82136157715772 -2.45685616671667  1.44599271927193
 6 -11.78171036503650 -0.90557238523852  2.25398397839784
 6 -12.60455115711571 -2.41721716471647  0.46453835783578
 6  9.72906773277328  0.19080011691169  0.22991967196720
 6 -10.13256462346235 -1.06805089008901 -0.38287696869687
 6  11.16739950495050  0.64832929782978 -2.36272047904790
 6 -10.64605704470447  1.46998738273827 -1.78761806880688
 6  9.31754172117212  1.53515695359536  0.00981560756076
 6 -8.94292477747775 -0.62596615361536 -0.17312835883588
 6  8.01701768776878  2.26446618651865  0.19024469346935
 6 -7.65222036403640 -1.25261959505951 -0.54348968096810
 6  8.13708418941894  3.66445465036504  0.31957332333233
 6 -7.80091119711971 -2.58126787488749 -0.97605778077808
 6  6.91924733173317  1.46354634853485  0.01156115011501
 6 -6.54373617661766 -0.57009248434844 -0.21784479047905
 6  5.51144169616962  1.92770047694769  0.16114103010301
 6 -5.20302142414241 -1.09218909500950 -0.46074824882488
 6  4.43924785578558  1.11210662456246 -0.00577620662066
 6 -4.04449986998700 -0.34644085018502 -0.21688901890189
 6  3.06819942494249  1.61175177307731  0.02457412241224
 6 -2.66231999599960 -0.75178950905091 -0.46495415541554
 6  2.67187746874687  3.00974042294229  0.39507221622162
 6 -2.44933042704270 -2.22745004710471 -0.89353039303930
 6  2.14036361136114  0.70095725962596 -0.25878500350035
 6 -1.74262558555856  0.23271297719772 -0.30821264826483
 6  0.70265743474347  0.91863663156316 -0.20171429142914
 6 -0.27599646864686  0.06643453835384 -0.53438107810781
 1  13.64143341534153 -0.41185462056206  1.43309814781478
 1  13.49341457745775 -2.07921850295030  1.79476960896090
 1 -14.24047682468247 -0.42599275627563  1.81313851985199
 1 -14.48918028502850 -0.47767469046905  0.09406778677868
 1  13.03182838483848 -2.60204494759476 -0.38956702170217
 1 -12.94780024102410  1.71911642964296  1.57625709870987
 1  14.02368330033003 -0.16330905100510 -1.39065494949495
 1  13.18568006100610 -1.21689391649165 -2.17866854285429
 1 -13.57706325032503  1.71339266026603 -1.44087202020202
 1 -12.61824043104310  2.71798386238624 -0.65157204020402
 1  11.50455907590759 -0.94348507460746  3.41714637563756
 1  10.50809667466747  0.01089157905791  2.74974385538554
 1  12.01543081308131  0.55457519041904  2.37171630663066
 1  10.84991399439944 -3.30408098819882  0.75605099109911
 1  10.97726864386439 -3.00232514961496  2.51414133813381
 1  9.70580658165817 -2.37554854795480  1.64467941094109
 1 -11.42902980298030  0.13714928592859  2.32969686268627
 1 -10.92424693369337 -1.48248540354035  2.20572657665767
 1 -12.54154531353135 -1.28899980498050  2.77722031803180
 1 -13.29346912791279 -2.88075932793279  1.11502601160116
 1 -11.71560460846085 -3.07524955295530  0.48812386838684
 1 -12.87993835183518 -2.46895720372037 -0.55164363836384
 1  8.99615143914392 -0.47165548564856  0.68889307330733
 1 -10.35443517551755 -2.21630535453545 -0.72774240724072
 1  10.06311873087309  0.73742384028403 -2.29949465246525
 1  11.67475591059106  1.65149944084409 -2.47356707070707
 1  11.41811604660466 -0.02177266436644 -3.29780691069107
 1 -11.32784379137914  1.92436566556656 -2.55758725172517
 1 -9.75982152115212  0.79401003800380 -1.98644325032503
 1 -10.22525428042804  2.43816242924292 -1.39321291729173
 1  14.95896244924492 -2.91296020112011  0.23786567956796
 1 -15.39973940894089  1.75647056105611  1.56821502650265
 1  10.12428791079108  2.02027533143314 -0.56783609860986
 1 -8.65878257525753  0.34909700770077  0.30449563656366
 1  8.42091495349535  4.05199505240524 -0.70536683968397
 1  7.00913430243024  4.01410681958196  0.70146597959796
 1  8.95166987698770  3.86144903180318  1.15097811581158
 1 -8.54340137013701 -3.22137906700670 -0.36602244124412
 1 -8.39727548354836 -2.63764277837784 -1.85831216121612
 1 -6.91056990599060 -2.95875952805281 -1.20280707270727
 1  6.90212187518752  0.53281702460246 -0.58649204120412
 1 -6.65999626162616  0.39746958685869  0.17300492349235
 1  5.12809219321932  2.94755990389039  0.59485174017402
 1 -5.03816763676368 -2.18264957205721 -0.68242564256426
 1  4.60866396539654  0.20851909780978 -0.47880629162916
 1 -4.10007551155116  0.60156527342734  0.50309310531053
 1  3.06619440444044  3.28201224312431  1.41719792079208
 1  1.63160981398140  3.02581125202520  0.73395580358036
 1  2.86339036103610  3.81124895879588 -0.27696819281928
 1 -2.97079921692169 -2.85464261136114 -0.11351439543954
 1 -2.91170067806781 -2.53652477257726 -1.90180414741474
 1 -1.29240603960396 -2.20993116821682 -0.87457049304931
 1  2.45271242924292 -0.42605125622562 -0.37215511951195
 1 -2.05080448144814  1.03554347224723  0.10779416641664
 1  0.63645939293929  1.95597830373037  0.00350614561456
 1  0.12138490849085 -0.99383933403340 -1.11437902190219

