%nproc=4
%Mem=2GB
# td=(NStates=1) CAM-B3LYP/6-31G(d,p) 

TD

0 1
 8  14.70679889888989 -2.33510098119812 -0.35191404440444
 8 -14.89391598859886  2.00803265926593  0.60305939993999
 6  11.46823011701170 -1.07678831293129  1.19936329732973
 6 -12.38532616461646 -0.97107966796680  0.69691521352135
 6  12.96075480748075 -1.54002704080408  1.16540411241124
 6 -13.74586719571957 -0.24418057805781  0.73835273127313
 6  13.32570456445645 -1.90401592869287 -0.24297918691869
 6 -13.65148748874888  1.19911270927093  0.76226801080108
 6  11.02811133713371 -0.30151436753675 -0.03858810481048
 6 -11.37433453445344 -0.30425145414541 -0.09525027902790
 6  13.13958817781778 -0.86724748184818 -1.23730460346035
 6 -12.81900266026603  1.70590856785679 -0.43435047704770
 6  11.72583733073307 -0.26711708480848 -1.15422393839384
 6 -11.61305489548955  0.88583490649065 -0.80129966896690
 6  11.27020774777478 -0.24648380648065  2.47126756775678
 6  10.56476591759176 -2.42469295039504  1.34429254925493
 6 -11.87884007800780 -1.02635446344634  2.18713729372937
 6 -12.72827352935294 -2.42286772977298  0.27518942294229
 6  9.75774060006001  0.36569760666067  0.12257893789379
 6 -10.09798116511651 -1.04293837883788 -0.41636031703170
 6  11.21704446944694  0.46942140704070 -2.50283449044904
 6 -10.68410084908491  1.52779316331633 -1.77436674367437
 6  9.48507847484748  1.61284472237224 -0.19184455845585
 6 -8.90026051105110 -0.56791034803480 -0.13501454745475
 6  8.18311429742974  2.30348008790879  0.06859252825283
 6 -7.61308645064506 -1.32256658975898 -0.32896822882288
 6  8.17758823982398  3.71890009490949  0.41666303230323
 6 -7.80779188518852 -2.73729347744774 -0.77239741474147
 6  6.97811321832183  1.63131312521252 -0.02801280728073
 6 -6.45133693669367 -0.63972944804480 -0.27969097509751
 6  5.61251180318032  2.06622432933293  0.17282219821982
 6 -5.07822894489449 -1.13485336143614 -0.55492766676668
 6  4.49893382438244  1.29356477037704 -0.07594322332233
 6 -4.06357177717772 -0.28946515261526 -0.32334966496650
 6  3.05272787778778  1.73928452635264  0.08343000800080
 6 -2.62973673767377 -0.74707903800380 -0.42718037803780
 6  2.94724500550055  3.15275472437244  0.54616732573257
 6 -2.39146464046405 -2.11112841494149 -0.83204424442444
 6  2.13058263326333  0.74598176207621 -0.09164828982898
 6 -1.59753107610761  0.18747845374537 -0.22962478947895
 6  0.71616878587859  0.96087085498550 -0.08874299429943
 6 -0.13081195019502 -0.10443254835484 -0.39484712471247
 1  13.80025929792979 -0.75387882298230  1.25615045304530
 1  13.10836607260726 -2.29184976607661  1.90117024902490
 1 -14.46241901890189 -0.73667382438244  1.40817802380238
 1 -14.16643801080108 -0.48452537553755 -0.21108272827283
 1  12.88336353835384 -2.72849759285929 -0.85606367136714
 1 -13.19632509350935  1.51563608160816  1.76696616961696
 1  13.77460839283929 -0.09609232933293 -0.85964184818482
 1  13.47007850085009 -1.13357558465847 -2.18974965096510
 1 -13.50871641564156  2.01298261926193 -1.13191112411241
 1 -12.58536714371437  2.75365742974297 -0.14173105610561
 1  11.95284390439044 -0.66648737483748  3.14479914091409
 1  10.21404726972697  0.04997548744874  2.79244812581258
 1  11.78223749374937  0.88640837373737  2.27860699569957
 1  10.94023302630263 -3.19021960206021  0.50781616761676
 1  10.71772268926893 -2.98928384548455  2.25195511951195
 1  9.59358535953595 -2.08823981708171  1.43011795479548
 1 -11.63759065906591 -0.08275270427043  2.77821171417142
 1 -10.84347885688569 -1.56620377537754  2.08060406440644
 1 -12.69022018101810 -1.52226313131313  2.83954655065507
 1 -13.51529131013101 -2.72951420342034  1.18297280628063
 1 -11.82467551555155 -3.04565659365937  0.40637569356936
 1 -13.12631298929893 -2.59542985098510 -0.73104157815782
 1  9.02543436743674  0.07057873777378  0.76649083308331
 1 -10.25885561756176 -2.18132185618562 -0.63753338633863
 1  10.21340375937594  0.79493959185919 -2.26666136913691
 1  11.74747318231823  1.58507279817982 -2.57196691069107
 1  11.64286852185219 -0.12344283138314 -3.48594572457246
 1 -11.14370537753775  2.22719594859486 -2.48276976997700
 1 -10.12708824782478  0.71507214421442 -2.28266287228723
 1 -9.64016577157716  2.08691730473047 -1.25462905890589
 1  14.78275482848285 -3.03309221432143  0.34877677067707
 1 -15.48111754675467  1.60736565056506  1.31746995199520
 1  10.28698418041804  2.26865016891689 -0.62720203520352
 1 -8.86682337933793  0.47801989999000  0.14985017201720
 1  8.83209607160716  4.09222907580758 -0.28128443144314
 1  7.07485087408741  4.15633104200420  0.07433326632663
 1  8.45605031503150  3.80369325622562  1.49553257125713
 1 -8.41069809980998 -3.28647557665766 -0.03647948694869
 1 -8.16820257625763 -2.84351336543654 -1.89661599159916
 1 -6.88554740374037 -3.14216786888689 -0.64055084708471
 1  7.03333499649965  0.53882762566257 -0.22572596459646
 1 -6.49330959295930  0.35642548244824  0.18777640064006
 1  5.44202358635864  3.05457060496050  0.61842409740974
 1 -5.06513033303330 -2.32486379347935 -0.57797519751975
 1  4.84698779777978  0.18408665456546 -0.58461687268727
 1 -4.32551805580558  0.58501361826183  0.37475027102710
 1  3.44547233223322  3.22292633453345  1.49086528752875
 1  1.96628328132813  3.58715738663866  0.70999340734073
 1  3.56410043204320  3.80831866576658 -0.18206870287029
 1 -2.88772090909091 -2.80005715281528 -0.06364940894089
 1 -2.84234374237424 -2.31676279637964 -1.81429539653965
 1 -1.41582838183818 -2.45700587568757 -0.84660769676968
 1  2.58152531053105 -0.34978362946295 -0.09884778877888
 1 -1.74484388538854  1.11295121302130  0.08256164316432
 1  0.16145189218922  2.02452515841584  0.11772756775678
 1  0.12690546054605 -1.12178212831283 -0.56431401540154

