%nproc=4
%Mem=2GB
# td=(NStates=1) CAM-B3LYP/6-31G(d,p) 

TD

0 1
 8  14.71024924392439 -2.13931140224022 -0.28900775377538
 8 -14.88334493149315  1.89601145714571  0.69435852985299
 6  11.38053134713471 -1.08397903200320  1.19236259725973
 6 -12.34173180518052 -0.97629018901890  0.75141066306631
 6  12.87633636563656 -1.42901593969397  1.10032760476048
 6 -13.70336294529453 -0.21307746774677  0.57752664866487
 6  13.32834482848285 -1.89913544064406 -0.27333222222222
 6 -13.57477981798180  1.30598339633963  0.77881966596660
 6  10.97407593359336 -0.26593080918092 -0.00795504150415
 6 -11.42710981198120 -0.38155918491849 -0.18123887788779
 6  13.18137235623562 -0.83640439753975 -1.33408428142814
 6 -12.79802056205621  1.67853583058306 -0.44334137613761
 6  11.80853560056006 -0.20567094019402 -1.09791830783078
 6 -11.56599018901890  0.91980830383038 -0.67071661066107
 6  11.20596132313231 -0.27346650475048  2.55975641664166
 6  10.57656709770977 -2.36102658375838  1.35264338433843
 6 -11.86090828482848 -0.66927875587559  2.26949552955296
 6 -12.60451115311531 -2.35928137113711  0.43758566256626
 6  9.72704753075308  0.36206724362436  0.06667334733473
 6 -10.03993536053605 -1.05753983898390 -0.53386206720672
 6  11.39657242224222  0.44145861076108 -2.39216342334233
 6 -10.69196163516352  1.64587497149715 -1.73353266026603
 6  9.33961392839284  1.60987442534253 -0.11717709170917
 6 -8.82736322132213 -0.59221277827783 -0.19269031503150
 6  8.10746673267327  2.24389412931293  0.08450411941194
 6 -7.53896903890389 -1.28058239133913 -0.46833216521652
 6  8.10892137313731  3.75488369326933  0.28362972897290
 6 -7.68887999399940 -2.70989073717372 -0.84466464146415
 6  6.93363877087709  1.47350734463446 -0.11343134913491
 6 -6.38656045904590 -0.58191366646665 -0.27699070507051
 6  5.59873042504250  1.95345305220522  0.09093400940094
 6 -5.03044416641664 -1.08452832893289 -0.49698187218722
 6  4.46514044504450  1.26622203610361 -0.14651028002800
 6 -3.97831325132513 -0.33781998809881 -0.13387071707171
 6  3.02370497549755  1.60475107300730  0.04982664766477
 6 -2.67427119111911 -0.76157048714871 -0.40550821082108
 6  2.68795907690769  3.02936238513851  0.60463317231723
 6 -2.39389488348835 -2.09523682578258 -1.01756279627963
 6  2.10219979497950  0.68945610951095 -0.15580470547055
 6 -1.65939726272627  0.07675738163816 -0.19959178617862
 6  0.66971414041404  0.72422719061906 -0.00241436143614
 6 -0.21206007500750 -0.16906901200120 -0.18456609660966
 1  13.48991826382638 -0.66510994609461  1.35425026302630
 1  13.25149038503850 -2.11222180328033  2.06035616761676
 1 -14.40254303130313 -0.65890604760476  1.25769297529753
 1 -14.27770913791379 -0.40227715071507 -0.48668028802880
 1  12.82083728572857 -2.89333407650765 -0.78418648364836
 1 -12.96907236823682  1.44829934793479  1.74145361836184
 1  13.95618655065507 -0.01071379147915 -1.31485736973697
 1  13.33064455745575 -1.39370159725973 -2.31736241224122
 1 -13.40078562256226  1.47404872587259 -1.38693662666267
 1 -12.56965557255726  2.76086815081508 -0.29410629362936
 1  11.64344296429643 -0.82917364346435  3.22938759975998
 1  10.23225909090909  0.02862335223522  2.94893377437744
 1  11.93596286628663  0.61026075897590  2.35108424342434
 1  10.76863586658666 -3.19974055415542  0.54367975397540
 1  10.66357727472747 -2.71139605670567  2.34859478347835
 1  9.53929993099310 -2.01852284538454  1.29015395839584
 1 -11.58821572157216  0.32547811881188  2.66354024702470
 1 -10.83357786678668 -1.32189934493449  2.38467447144714
 1 -12.40739189818982 -1.34715562056206  2.88257085308531
 1 -13.36110589158916 -3.01256250825083  1.09199370837084
 1 -11.72411545954595 -3.03095512351235  0.83845890189019
 1 -12.86657701570157 -2.59957026502650 -0.69298777277728
 1  8.83578540254025 -0.15080340044004  0.54898908290829
 1 -10.07150688268827 -2.13018674267427 -0.99272890589059
 1  10.23880629962996  0.88234833273327 -2.38450315331533
 1  12.08506694169417  1.38554284518452 -2.44637435143514
 1  11.50147438243824 -0.08692918001800 -3.24621175117512
 1 -11.31486249324933  1.87804103310331 -2.79708120112011
 1 -9.59724526352635  1.11353199019902 -1.85280988698870
 1 -10.45781753675368  2.83552216521652 -1.38902249824982
 1  15.04988154115411 -2.95394429952995  0.23146503950395
 1 -15.39059849484948  1.60881579557956  1.43561176617662
 1  10.27026250825083  2.45336864076408 -0.20162947794779
 1 -8.69405610261026  0.40940303830383  0.29998518551855
 1  8.65754861686169  4.12724257715772 -0.65639194219422
 1  7.14724811381138  4.04373978287829  0.29888572157216
 1  8.49612432243224  3.93320620752075  1.20883390139014
 1 -8.18994602460246 -3.43354028312831 -0.18050388938894
 1 -8.26973272927293 -2.94594360846085 -1.64261059105911
 1 -6.68091694069407 -3.11754540664066 -1.17313410541054
 1  6.87499916291629  0.47179092199220 -0.28229162116212
 1 -6.35475573757376  0.41417125702570 -0.03809618661866
 1  5.41360074407441  3.02933808170817  0.50599285428543
 1 -4.89274309430943 -2.05530683778378 -0.72087948794879
 1  4.39867296629663  0.16417466336634 -0.60202861386139
 1 -4.10221572557256  0.77661277817782  0.05063785978598
 1  3.21494927992799  3.13683772567257  1.72383858485849
 1  1.73667032003200  3.14994366526653  0.71293370137014
 1  3.40335435743574  3.99580741464146  0.08541804580458
 1 -2.62116425342534 -2.81645879297930 -0.23176622062206
 1 -2.71012052005201 -2.34532565266527 -2.06148011501150
 1 -1.51708850785079 -2.33456363146315 -1.28475151115111
 1  2.58321547954796 -0.25088373947395 -0.60482838683868
 1 -2.06939634063406  1.15277519541954  0.28275166216622
 1  0.34807055405541  1.73195590149015  0.46089188418842
 1  0.14758752875288 -1.15267521762176 -0.64334191819182

