%nproc=4
%Mem=2GB
# td=(NStates=1) CAM-B3LYP/6-31G(d,p) 

TD

0 1
 8  14.61617983698370 -2.35581305240524 -0.34565341834183
 8 -14.63553015001500  1.98355021102110  0.82180127412741
 6  11.39161245524553 -1.16788742284228  1.25672903390339
 6 -12.18036566856686 -1.00906346634663  0.83496901890189
 6  12.84438317031703 -1.60658369646965  1.18600617261726
 6 -13.60629323832383 -0.30990715071507  0.78347724372437
 6  13.22755474947495 -2.08908443554355 -0.21032592159216
 6 -13.39223156315632  1.23221601960196  0.77850963496350
 6  10.97177570357036 -0.39840405650565 -0.05725997199720
 6 -11.25929303030303 -0.35080610961096 -0.20021077507751
 6  13.01420563956396 -0.93784454155416 -1.23691456445645
 6 -12.78625938593859  1.66308428542854 -0.41102814481448
 6  11.71913666066607 -0.21602197529753 -1.08844736073607
 6 -11.44304789478948  0.91875819881988 -0.63437297629763
 6  11.28051877887789 -0.27387654575458  2.50804124512451
 6  10.39226866786679 -2.38516899799980  1.47856597659766
 6 -11.58638083208321 -0.99549137713771  2.25199377937794
 6 -12.64238494049405 -2.44586002900290  0.39306121012101
 6  9.73539836583658  0.37321835873587  0.25371205120512
 6 -10.13101446844684 -1.10974505950595 -0.46362504350435
 6  11.28428119311931  0.56072053695370 -2.27932213921392
 6 -10.72912535153515  1.53748413241324 -1.74452375937594
 6  9.29764973197320  1.64781821972197 -0.19211458545855
 6 -8.80807129212921 -0.63125668266827 -0.24606565256526
 6  7.93772975897590  2.35233497339734  0.01150681968197
 6 -7.58356349834984 -1.29973430653065 -0.55062039403940
 6  8.08170865186519  3.78991719661966  0.25931729772977
 6 -7.67666877287729 -2.70215996409641 -0.98825900090009
 6  6.89195460246025  1.56955694959496 -0.12408241424142
 6 -6.39650145314531 -0.56546202130213 -0.35175818181818
 6  5.59211976397640  2.07761546844684 -0.00746583058306
 6 -5.08882000400040 -1.15631550765076 -0.58189036303630
 6  4.42638656965697  1.33992940684068 -0.05969159815982
 6 -4.01583700370037 -0.30825703180318 -0.32646997699770
 6  3.02656526152615  1.74074467236724  0.08083974897490
 6 -2.58817258125813 -0.69512384248425 -0.50199785978598
 6  2.74135441644164  3.21100054895490  0.42649535853585
 6 -2.27730322432243 -2.06636393849385 -0.97983902390239
 6  2.06520609560956  0.79400656455646 -0.06881600660066
 6 -1.71061238423842  0.19163886978698 -0.23360518751875
 6  0.60508767776778  1.01714648254825  0.02542842284228
 6 -0.20838970797080  0.04078197309731 -0.43617125712571
 1  13.54908418041804 -0.84144757985799  1.43999883788379
 1  13.07830306630663 -2.33110369146915  1.83510364236424
 1 -14.31879465646565 -0.83839399639964  1.61957916391639
 1 -14.17713908090809 -0.51984890789079 -0.14361598159816
 1  12.55644084608461 -2.95423016611661 -0.47092515751575
 1 -12.82498795979598  1.58598311631163  1.62314178717872
 1  13.80446137813781 -0.15311803190319 -1.18407429142914
 1  13.19001049404940 -1.28856108320832 -2.41058173417342
 1 -13.43513905790579  1.33771509250925 -1.41636956995700
 1 -12.78818742574257  2.67873993799380 -0.48353523652365
 1  11.51265988598860 -0.89387011311131  3.39372403340334
 1  10.25742160716072 -0.02514202430243  2.75547442844284
 1  11.99925919591959  0.57449718261826  2.53466260126013
 1  10.23529253225322 -2.95444602470247  0.47033241924192
 1  10.66209712671267 -2.95580049714972  2.38517844184418
 1  9.31991799279928 -2.01908290139014  1.46759170217022
 1 -11.49384628462846  0.03702927392739  2.81262515551555
 1 -10.76684119311931 -1.51407856285629  2.13715971997200
 1 -12.47680883988399 -1.59786069106911  2.85958855485549
 1 -13.36401618261826 -2.92245349734973  1.09095360436044
 1 -11.70245329332933 -3.17788981698170  0.22844790079008
 1 -13.09591994999500 -2.48134844284428 -0.44256273027303
 1  8.72131395539554 -0.02890121022102  0.88164234823482
 1 -10.20175990799080 -2.30591431543154 -0.64050368336834
 1  10.14220663966397  0.56194629252925 -2.23932863586359
 1  11.67956639163916  1.72238652955295 -2.27335704970497
 1  11.65642987798780 -0.07729821692169 -3.17631476147615
 1 -11.41163217021702  1.77778100710071 -2.48474996799680
 1 -9.88720425942594  0.86861749874987 -1.95209981598160
 1 -10.20528228322832  2.55333394639464 -1.57318091409141
 1  15.02897945094509 -2.68865777087709  0.64350624362436
 1 -14.75662509750975  2.06059097309731  1.94950315531553
 1  10.14104958695870  2.11562486638664 -0.67651696669667
 1 -8.87004370137014  0.24353645164516  0.40372555955596
 1  9.17015987798780  4.21069092199220 -0.22446874987499
 1  7.11057444644464  4.47291270017002 -0.06371053805380
 1  8.25311002100210  4.07903078997900  1.28887190519052
 1 -8.00804783478348 -3.17899482858286 -0.03592943194319
 1 -8.27875363136314 -2.98513752785279 -1.86578290829083
 1 -6.58218706770677 -3.03224687678768 -1.18739553155316
 1  7.03117478047805  0.41323506640664 -0.19702309430943
 1 -6.37985824782478  0.33205304520452 -0.05928830583058
 1  5.57840722472247  3.27548269616962  0.00248250325032
 1 -4.81268508850885 -2.26706801390139 -0.85208260826083
 1  4.55267836683668  0.36649489538954 -0.21782019301930
 1 -4.16743224722472  0.61411652855286  0.09838263426343
 1  3.03985177017702  3.73488753065307  1.47192339333933
 1  1.57876452945295  3.55037370827083  0.29432184018402
 1  3.41348537053705  4.02612044594459 -0.29836033203320
 1 -2.74773691069107 -2.91060820792079 -0.17999104310431
 1 -2.53728323632363 -2.29018013811381 -2.08522248924893
 1 -1.12480927992799 -2.46135631073107 -0.94826786278628
 1  2.38850600860086 -0.22531118221822 -0.44122202620262
 1 -2.02911231223122  1.15532545044504  0.10280366736674
 1  0.33266901390139  1.85730843674367  0.41973776877688
 1  0.17737050705070 -0.88544849494950 -0.61319890389039

