%nproc=4
%Mem=2GB
# td=(NStates=1) CAM-B3LYP/6-31G(d,p) 

TD

0 1
 8  14.63769198819882 -2.31054852595260 -0.49210806380638
 8 -14.73713031003100  1.99904176017602  0.85986508050805
 6  11.52665595959596 -1.04130476457646  1.32608596959696
 6 -12.25801343334333 -0.87651021102110  0.74421994399440
 6  13.03091182318232 -1.19323236133613  1.03781135313531
 6 -13.67756036503650 -0.18325448544854  0.75325422142214
 6  13.36748874287429 -1.95268079517952 -0.21683657265727
 6 -13.54210655065507  1.34257705570557  0.80420220422042
 6  10.91746027202720 -0.21988620472047  0.02852860686069
 6 -11.34287138813881 -0.27810883988399 -0.24066482048205
 6  12.97715193419342 -0.91985274237424 -1.39985085808581
 6 -12.72865362536254  1.84833281028103 -0.38078512051205
 6  11.55997074407441 -0.23801417451745 -1.14070258625863
 6 -11.55212880288029  0.88858518151815 -0.83948348734873
 6  11.50266099309931  0.02950379227923  2.43734417541754
 6  10.75608504950495 -2.24791527262726  1.60623874387439
 6 -11.63575576957696 -0.89914174217422  2.19060764076408
 6 -12.60349105110511 -2.38822426542654  0.42936484048405
 6  9.59913473947395  0.44072510941094  0.23589026902690
 6 -10.08435980298030 -1.10866495149515 -0.54608328932893
 6  11.03466623162316  0.34743920882088 -2.40914512151215
 6 -10.63663610261026  1.60797118111811 -1.75202450945095
 6  9.24222418941894  1.56197963586359 -0.10756613061306
 6 -8.84573505850585 -0.59014257125713 -0.33145419141914
 6  7.99610559655966  2.21605134503450 -0.08312264326433
 6 -7.55585072707271 -1.31060539363936 -0.68888422042204
 6  8.09474995599560  3.63268147304730  0.46074744074407
 6 -7.62757386338634 -2.70270001810181 -1.14332450745075
 6  6.86939234623462  1.53481347524752 -0.02197220322032
 6 -6.48577038003800 -0.52955843094309 -0.44042704870487
 6  5.48782933493349  1.97767547444744  0.09885480148015
 6 -5.08347946994699 -1.09120899699970 -0.59663183718372
 6  4.49196312731273  1.19555496939694 -0.22197782678268
 6 -4.01063648364836 -0.40488669476948 -0.21801913191319
 6  3.11766437143714  1.57123772167217  0.20269193419342
 6 -2.62782654665467 -0.83332766286629 -0.36555421542154
 6  2.85510579157916  3.02084153305331  0.67875058405841
 6 -2.43357885188519 -2.29932723482348 -0.83287432743274
 6  2.08431800680068  0.68966613051305 -0.15474459945995
 6 -1.66989831283128  0.06424613051305 -0.06812863986399
 6  0.70025719471947  0.74630939883988  0.09937581758176
 6 -0.12977184618462 -0.19059116421642 -0.26928456845685
 1  13.42991226322632 -0.19404283938394  1.12486732473247
 1  13.46666190219022 -1.76257683878388  1.98701883388339
 1 -14.41748452545255 -0.72780293729373  1.47670487648765
 1 -14.12387375437544 -0.30976789978998 -0.32144376437644
 1  12.71647684968497 -2.84260900400040 -0.10770883588359
 1 -13.04358981998200  1.28072259025903  1.75186465946595
 1  13.86607753975398 -0.23595631573157 -1.45812169616962
 1  12.85676716971697 -1.50518274537454 -2.28897957395740
 1 -13.33063860786079  1.92515383638364 -1.22103003600360
 1 -12.50303891089109  2.72358442244224  0.00560367736774
 1  11.77197581758176 -0.61217194329433  3.36367102810281
 1  10.51852771777178  0.61946243614361  2.49354823582358
 1  12.14002327232723  0.87908764166417  2.31789092409241
 1  10.80908991199120 -3.14859543964396  0.93797918391839
 1  11.31560247724773 -2.57131204830483  2.50179010301030
 1  9.60296629762976 -1.99348034113411  1.92582752575257
 1 -11.44616151615162  0.10819639063906  2.46639053205321
 1 -10.78409291829183 -1.27360451545155  2.10581658565857
 1 -12.44491565056506 -1.34093499849985  2.86484908090809
 1 -13.44748452945294 -2.89511076307631  1.21308581758176
 1 -11.70608365636564 -2.90285231323132  0.39239429542954
 1 -13.27009736773677 -2.48252856085609 -0.51256973097310
 1  8.77211903590359 -0.19240756085609  0.78772295629563
 1 -10.00396012801280 -2.12420614461446 -0.86924655765577
 1  9.79096151515152  0.34239433733373 -2.70212491549155
 1  11.42078051305131  1.37225151605161 -2.94269398339834
 1  11.05223945894589 -0.40040052715271 -3.10811794179418
 1 -11.33960496749675  2.18398162716272 -2.47818931193119
 1 -10.07654319331933  0.91925256225622 -2.28751335733573
 1 -10.01893364836484  2.45175378837884 -1.32824642064206
 1  14.93002955595560 -2.78913781888189  0.25645753875388
 1 -15.38325776077608  1.52489740374037  1.59542774777478
 1  9.94550003200320  2.29611291519152 -0.50494980998100
 1 -8.83323002000200  0.39403150115012  0.14180936793679
 1  8.71697455945595  4.16202605550555 -0.29158546154616
 1  7.05822921192119  4.13373878277828  0.32840867386739
 1  8.39427413741374  3.92006489338934  1.49364238223822
 1 -8.22278930893089 -3.34370129922992 -0.29265510451045
 1 -8.32448820482048 -2.69687870197020 -1.98273460346035
 1 -6.75062391139114 -3.54512816491649 -1.38312510451045
 1  6.92939460246025  0.55399914281428 -0.30537392939294
 1 -6.67284754675468  0.46500634053405  0.01863948694869
 1  5.18611799579958  2.89802495039504  0.62899515451545
 1 -4.93499731973197 -1.93106441354135 -0.95018241824182
 1  4.49645274427443  0.30102834873487 -0.71291970297030
 1 -4.06436194019402  0.44899001590159  0.57820061606161
 1  3.40379816481648  3.18781282318232  1.55301150215022
 1  1.64459111211121  3.04505317621762  0.75799820782078
 1  2.97089111111111  3.76761459535954 -0.20600109610961
 1 -2.72725486248625 -2.96366351345134  0.03617057305731
 1 -3.01207071507151 -2.36377749784978 -1.69356332333233
 1 -1.32778957795780 -2.36304647974797 -1.24706774277428
 1  2.32582974097410 -0.26904555565557 -0.49842774677468
 1 -1.80421982298230  1.02856277417742  0.22295568256826
 1  0.41959770677068  1.61158386428643  0.59366516151615
 1  0.14728749874988 -1.23823377347735 -0.56099368336834

