%nproc=4
%Mem=2GB
# td=(NStates=1) CAM-B3LYP/6-31G(d,p) 

TD

0 1
 8  14.64853307230723 -2.16365383648365 -0.49425827882788
 8 -14.54630122712271  2.09823167916792  0.78060715471547
 6  11.40898419241924 -1.10078071217122  1.28466182718272
 6 -12.28273590559056 -0.90881344134413  0.80221574357436
 6  12.88936766876688 -1.39138217631763  1.04765233723372
 6 -13.62871548054805 -0.11479763976398  0.86132502850285
 6  13.24231622562256 -1.96048157525753 -0.43660854985499
 6 -13.28798113811381  1.42400519851985  0.69929171317132
 6  10.88292681868187 -0.34864908100810  0.00701645564556
 6 -11.33527062806280 -0.39631066006601 -0.22738349234924
 6  12.84703892289229 -0.96726748384838 -1.45295616861686
 6 -12.75787654765477  1.66230420742074 -0.63282032403240
 6  11.50391513851385 -0.27800817391739 -1.18920743674367
 6 -11.53523711371137  0.75380170317032 -0.92735227422742
 6  11.39594032103210 -0.28764792289229  2.50909135013501
 6  10.63330277127713 -2.32009249034903  1.26974509450945
 6 -11.56696889088909 -0.86331815981598  2.21797037703770
 6 -12.67349805180518 -2.32334777777778  0.46386829082908
 6  9.58884371037104  0.36965800270027  0.26383306330633
 6 -10.03936530353035 -1.08483256825683 -0.42903158415842
 6  10.89988275327533  0.38318278317832 -2.26657086408641
 6 -10.76081852085209  1.18023840784078 -2.06753606060606
 6  9.27725769276928  1.64534797269727 -0.00807618161816
 6 -8.77293777877788 -0.55036859385939 -0.24640568656866
 6  8.04336032203220  2.29016875677568  0.09674534353435
 6 -7.57784292629263 -1.32782711581158 -0.42773810581058
 6  8.06979746074608  3.74114231913191  0.44331569756976
 6 -7.59093019901990 -2.69499924802480 -0.92166234123412
 6  6.88272367936794  1.58673866776678 -0.02276228222822
 6 -6.36632843584358 -0.64223969906991 -0.22505551155116
 6  5.49798035003500  2.12818052495250  0.12757767376738
 6 -4.98941006300630 -1.15573544964496 -0.50739291329133
 6  4.46645057605761  1.35938135203520  0.10285465646565
 6 -3.95525094509451 -0.40130633673367 -0.33559088908891
 6  3.01127373237324  1.73664426232623  0.24204586958696
 6 -2.55983974797480 -0.72475680578058 -0.54930259025903
 6  2.74281456245625  3.11886133503350  0.70551326032603
 6 -2.32904839883988 -2.25388269036904 -0.89442048204820
 6  2.07099667466747  0.75127229112911  0.03372424742474
 6 -1.60708203120312  0.11094079998000 -0.28642046904690
 6  0.65244241324132  0.87373214111411  0.04311019101910
 6 -0.20301917091709 -0.10684278937894 -0.31270891089109
 1  13.43772304430443 -0.52901633673367  1.04075891389139
 1  13.37698293429343 -2.05511609270927  1.56264639663966
 1 -14.08894167116712 -0.37441759875988  1.75983318931893
 1 -14.35690705770577 -0.51372829582958  0.08344672467247
 1  12.57984318631863 -2.74732947604760 -0.58132619761976
 1 -12.47155261626163  1.75842036003600  1.47827730073007
 1  13.65596652865286 -0.18865158525853 -1.42432831683168
 1  12.93767526052605 -1.41897412451245 -2.45704638063806
 1 -13.52447799179918  1.86216753775378 -1.44578251125113
 1 -12.21581018801880  2.74042610661066 -0.67075395839584
 1  11.47818643864387 -0.79135986208621  3.58086274727473
 1  10.49942580758076 -0.15790530063006  2.83765264626463
 1  11.80585985598560  0.61172090499050  2.58246738173817
 1  10.90461946494649 -3.25093567366737  0.44034942094209
 1  10.84771568856886 -2.94591950905091  2.28607853185319
 1  9.65879188018802 -2.23962495559556  1.53057800080008
 1 -10.99935683568357  0.11436700770077  2.56339023202320
 1 -10.70431494049405 -1.68931608660866  1.95722172617262
 1 -12.23933509250925 -1.18700960596060  2.93882647864787
 1 -13.59019880088009 -2.71086233823382  0.99282379137914
 1 -11.70914396239624 -2.97751977997800  0.78785384138414
 1 -12.94885524352435 -2.37707801580158 -0.76164463846385
 1  8.99882170617062 -0.35811413151315  0.52981716571657
 1 -10.19272900490049 -2.18798252225223 -0.62268190119012
 1  9.73907632663266  0.52929302720272 -2.07756245924592
 1  11.49342777777778  1.57897218811881 -2.41994170817082
 1  11.10346458145815 -0.39431991909191 -3.16671380138014
 1 -11.31240224722472  1.40520374937494 -3.08808030103010
 1 -9.89906544554456  0.56647728472847 -2.34206881288129
 1 -10.08228998399840  2.02376098909891 -1.82267586358636
 1  14.95563211621162 -2.82367127222722  0.28705059805981
 1 -14.79287872287229  2.12206712071207  1.81818002300230
 1  9.93007848984898  2.34903820772077 -0.48524783978398
 1 -8.82622931993199  0.47007910591059  0.08801398839884
 1  8.86575943794379  4.18919877277728 -0.05626192919292
 1  6.81799518851885  4.27713312221222  0.09430526352635
 1  8.28640335033503  4.02797568446845  1.47518053605360
 1 -8.15790282028203 -3.25570249934994 -0.07860369936994
 1 -8.15712146814682 -2.66713572767277 -1.97276360636064
 1 -6.60698954795480 -3.15061871397140 -0.92269906190619
 1  6.96338800180018  0.41077482038204 -0.43380677267727
 1 -6.26592685468547  0.35940578047805  0.11766938993899
 1  5.34430381438144  3.17402255015501  0.31464371937194
 1 -5.00553437343734 -2.31176248334833 -0.69640704070407
 1  4.51763486248625  0.46365461136114 -0.38269668066807
 1 -4.10422592659266  0.56278139503950 -0.31942914691469
 1  3.04370215521552  3.45851989388939  1.64183038403840
 1  1.56067272027203  3.17710638153815  0.63392580058006
 1  3.29374339633963  3.67961579547955  0.01184068806881
 1 -2.94469660666067 -2.86825397249725 -0.28383142714271
 1 -2.57318682668267 -2.17246836693669 -1.93911787878788
 1 -1.24902170117012 -2.49118929402940 -0.81624466046605
 1  2.44508166616662 -0.27608625972597 -0.25883378737874
 1 -2.06212561356136  1.01265118301830  0.08243163016302
 1  0.23220896789679  1.87814051995199  0.43932972797280
 1  0.33510628062806 -1.08133808390839 -0.70664824882488

