%nproc=4
%Mem=2GB
# td=(NStates=1) CAM-B3LYP/6-31G(d,p) 

TD

0 1
 8  14.60716893589359 -2.32567003810381 -0.32007086008601
 8 -14.77769436643664  2.03069492549255  0.79498859285929
 6  11.39916321032103 -1.07550818491849  1.27880124112411
 6 -12.33202083408341 -0.92566512651265  0.76429195119512
 6  12.85250398239824 -1.40826386448645  1.06655422742274
 6 -13.73653626262626 -0.20130629062906  0.66425532153215
 6  13.19120111411141 -2.00639616671667 -0.20311520052005
 6 -13.45652799279928  1.25968876687669  0.85096688068807
 6  10.88279680568057 -0.27923213931393  0.00823657765777
 6 -11.27829493049305 -0.25702673167317 -0.15833658765877
 6  12.93736795579558 -0.98658941604160 -1.31145201820182
 6 -12.73746450645065  1.79099707670767 -0.38442548454845
 6  11.69711445844585 -0.19348972207221 -1.07432594859486
 6 -11.46996058605860  0.89842616561656 -0.72792233123312
 6  11.08283901090109 -0.40953011111111  2.54807524852485
 6  10.44949439043904 -2.49117959905991  1.32562068206821
 6 -11.87177937193719 -1.03695552355236  2.16197477747775
 6 -12.63012371437144 -2.47959340234023  0.27212911691169
 6  9.66396122212221  0.45037607450745  0.17081376137614
 6 -10.00276164316432 -1.01635572057206 -0.32168084908491
 6  11.40865363036304  0.59823428832883 -2.45631983898390
 6 -10.58285072407241  1.57935831983198 -1.75031433843384
 6  9.38395836283628  1.68851228912891 -0.12234760876088
 6 -8.79128961396140 -0.60237379437944 -0.23567461346135
 6  8.00485647164716  2.28262800270027  0.09424509350935
 6 -7.53326846884688 -1.29708404150415 -0.49137446944694
 6  7.95967644864487  3.74104230913091  0.22504387038704
 6 -7.66827793379338 -2.65264501260126 -1.02970314531453
 6  6.86583199019902  1.71801179507951 -0.09224923092309
 6 -6.38290009300930 -0.59822529762976 -0.30290329632963
 6  5.57176772877288  2.18077578447845  0.04183909990999
 6 -5.09930105210521 -1.14630450655065 -0.48549072307231
 6  4.49226315731573  1.35429084298430 -0.08520414941494
 6 -3.94704012401240 -0.53045925202520 -0.16368369836984
 6  3.07411001600160  1.73527412531253  0.08958062306231
 6 -2.54294805880588 -0.90258458855886 -0.37041470147015
 6  2.80007028802880  3.24199364826483  0.23937664666467
 6 -2.19417491149115 -2.28705600770077 -0.77916895689569
 6  2.08114768976898  0.79649681358136 -0.04891401640164
 6 -1.56743806680668  0.02112181808181 -0.09456128312831
 6  0.72148931793179  0.89613438133813  0.05126100610061
 6 -0.13079194819482 -0.07432953805381 -0.26022366236624
 1  13.50596986898690 -0.63481691679168  1.22648748674868
 1  13.20332556855686 -2.21987256835684  1.86995712771277
 1 -14.37155993299330 -0.73043320032003  1.34294150015002
 1 -14.24408577557756 -0.33989091209121 -0.51237285728573
 1  12.56196139813981 -2.90687543064306 -0.21094915991599
 1 -13.13065852685268  1.26224074207421  1.79268874187419
 1  14.01299223122312 -0.34933765386539 -1.32422830683068
 1  13.20536202920292 -1.39212143924392 -2.27783845984598
 1 -13.48913445744574  1.82934425542554 -1.20794872787279
 1 -12.21012961996200  2.84151621562156 -0.39356623962396
 1  11.36624524452445 -1.12135286138614  3.38126278727873
 1  10.20322618761876  0.04429491939194  2.52887176817682
 1  11.79441871187119  0.39236896979698  2.64386352135214
 1  10.80575957895790 -3.13291387148715  0.63440882688269
 1  10.74393531053105 -2.83904882198220  2.41037096109611
 1  9.37911391239124 -2.24323531663166  1.05540048304830
 1 -11.86604350435043 -0.12429685868587  2.82217611061106
 1 -10.83702821182118 -1.42766992199220  2.15290129412941
 1 -12.54516567556756 -1.95257616261626  2.63417601360136
 1 -13.45154493549355 -2.79128038003800  0.97831234023402
 1 -11.60759380738074 -3.00047207520752  0.47479253525353
 1 -12.64084444244424 -2.45011531953195 -0.88114658865887
 1  8.72877470147015 -0.40943926402640  0.51529571357136
 1 -10.15658539053906 -2.19461318531853 -0.46420605360536
 1  10.48840125912591  0.91692179007901 -2.41408611161116
 1  12.33189162416242  1.26656094699470 -2.72124183818382
 1  11.58909314431443 -0.15135562266227 -3.36292342234223
 1 -11.06053706070607  2.08963219221922 -2.43655514851485
 1 -9.67746328532853  0.81218185518552 -2.10363496949695
 1 -9.80714246924692  2.31432004500450 -1.16518011401140
 1  14.83181973497350 -2.69429833493349  0.44524641764176
 1 -15.26608604360436  1.58458337233723  1.44958316331633
 1  10.16130161216122  2.47528083198320 -0.49193850885089
 1 -8.69074577157716  0.49535163316332 -0.12108692169217
 1  8.54986784878488  4.16552640554055 -0.48155445844584
 1  6.96515990499050  4.22658806770677  0.10353618661866
 1  8.48600331033103  4.06279916681668  1.17815083308331
 1 -8.03114014401440 -3.43254018311831 -0.33413925292529
 1 -8.56736249224923 -2.44111312541254 -1.79513584358436
 1 -6.67941679067907 -3.01050470257026 -1.71475826782678
 1  6.88452011501150  0.58326206910691 -0.40496388838884
 1 -6.43723398539854  0.41000083998400  0.08058568156816
 1  5.32763214721472  3.27881302920292  0.16556881188119
 1 -5.11088490849085 -2.18650995809581 -1.12830023002300
 1  4.75067816681668  0.35594384028403 -0.29382779377938
 1 -4.18660416441644  0.37338245514551  0.34517731373137
 1  3.24617240224022  3.49508355025503  1.25022122312231
 1  1.76167282028203  3.49029770067007  0.39513192119212
 1  3.10359438143814  3.92994082798280 -0.41725222122212
 1 -2.97275941294129 -2.99575672277228 -0.31395443944394
 1 -2.55169467746775 -2.50113123322332 -1.81948591559156
 1 -1.20293709270927 -2.46695687078708 -0.31858489448945
 1  2.52998015601560 -0.17431608270827 -0.27624552855286
 1 -1.93200260126013  0.89743966186619  0.03824721172117
 1  0.32111785878588  2.04233693959396 -0.05400960596060
 1  0.29134190419042 -1.19464941504150 -0.21554913891389

