%nproc=4
%Mem=2GB
# td=(NStates=1) CAM-B3LYP/6-31G(d,p) 

TD

0 1
 8  14.75162338133813 -2.35955342644264 -0.47629648264826
 8 -14.89323592059206  2.00355221122112  0.78592768676868
 6  11.52169546354635 -1.07684831893189  1.25375873687369
 6 -12.27439507150715 -0.96361892189219  0.95299082108211
 6  13.04355308730873 -1.49728276637664  1.01518909090909
 6 -13.66115872487249 -0.24692085208521  0.88482737873787
 6  13.27209920392039 -1.92975850295030 -0.37365225422542
 6 -13.66164850485048  1.31253405140514  0.83193497749775
 6  11.05795432143214 -0.35113933003300  0.08344409840984
 6 -11.35511261226122 -0.25547657665767 -0.11222197619762
 6  13.02364658365837 -0.82249300640064 -1.40319119211921
 6 -12.82649340934094  1.73834181118112 -0.40587762976298
 6  11.77144189118912 -0.21984235733573 -1.08792730873087
 6 -11.62199578957896  0.86445276827683 -0.77811735073507
 6  11.44748547554756 -0.18870802890289  2.47804824582458
 6  10.77688712971297 -2.29223970507051  1.65534365436544
 6 -11.76659885388539 -0.85463729172917  2.35478405840584
 6 -12.52488319031903 -2.47943338633863  0.60927283128313
 6  9.66584141014101  0.29039007590759  0.30438711871187
 6 -10.08669003600360 -0.94854893989399 -0.38692737373737
 6  11.23557632263226  0.56710117501750 -2.24018822582258
 6 -10.87414985398540  1.53316370037004 -1.98684799179918
 6  9.42111207820782  1.60464390229023  0.17050167616762
 6 -8.85024550955096 -0.49685324232423 -0.36338738473847
 6  8.04737072307231  2.22632237213721  0.17236290529053
 6 -7.62183732573257 -1.24163849694969 -0.53132846484648
 6  8.06986746774677  3.72795100000000  0.60710207620762
 6 -7.70418152415241 -2.78965871397140 -0.92544271927193
 6  6.90399580658066  1.52829282318232 -0.02623262926293
 6 -6.42253405640564 -0.63137861296130 -0.55784879087909
 6  5.56997754975498  1.96397410431043  0.16833174917492
 6 -5.08466958895890 -1.08505838193819 -0.64451662566257
 6  4.45117904890489  1.21982739663966 -0.11380700970097
 6 -3.96802222222222 -0.30009621572157 -0.54770210021002
 6  3.03321592659266  1.61333193109311 -0.02736107110711
 6 -2.61495525952595 -0.83352768286829 -0.66706436643664
 6  2.76110639163916  3.16613606250625  0.18679138813881
 6 -2.28238373237324 -2.19926722882288 -0.89416045604560
 6  2.02993256825683  0.74509167306731 -0.11751087608761
 6 -1.63856517951795  0.09795950185019 -0.31498332533253
 6  0.59119628862886  0.91268603650365 -0.07421154115412
 6 -0.22164103310331 -0.15828793389339 -0.28788642864286
 1  13.53457272927293 -0.43343677877788  1.22381721972197
 1  13.18440367636764 -2.21665224632463  1.70811094309431
 1 -14.10607338433844 -0.34182433943394  1.88812601860186
 1 -14.31468283528353 -0.80524744774477  0.02466084608461
 1  12.55873107510751 -2.80905564866487 -0.64466253125313
 1 -13.12459792079208  1.77521203920392  1.68546801980198
 1  13.83775470747075  0.00345762566257 -1.50113599759976
 1  13.07849934293429 -1.21695392249225 -2.61415209120912
 1 -13.59174471847185  1.67186850785079 -1.31318925192519
 1 -12.56052465946595  2.72793485748575 -0.24007089008901
 1  12.31994061406141 -0.46490721682168  3.19838449944995
 1  10.39618548354836 -0.38840835093509  3.10546942794279
 1  11.56514578457846  1.03978371127113  2.22529166416642
 1  10.60129913291329 -3.03432401250125  0.80590597659766
 1  11.14511542854286 -2.85857077417742  2.62115203920392
 1  9.58809481048105 -2.01755274837484  1.59852479547955
 1 -11.72682958295830  0.09907547854785  2.77050094309431
 1 -10.82133664266427 -1.30967812281228  2.40706671067107
 1 -12.43184434343434 -1.38469937493749  2.98422101810181
 1 -13.46967674867487 -2.94888614061406  1.10800530953095
 1 -11.59368241624162 -3.02311433943394  0.71970702670267
 1 -12.55417577557756 -2.38316862486249 -0.46662513651365
 1  8.99329115311531 -0.26559487958796  0.85641982598260
 1 -10.30508024002400 -2.10594431843184 -0.53109274227423
 1  10.29734215321532  0.63496359425943 -2.24710941394139
 1  11.59006744174417  1.46953124402440 -2.16484619861986
 1  11.67808204320432  0.09131864476448 -3.21813894389439
 1 -11.60840184718472  1.52542577157716 -2.87579907290729
 1 -10.09557509650965  0.66818745574557 -2.35373997999800
 1 -10.46197795279528  2.41518013101310 -1.61833542954295
 1  15.06167272027203 -3.04103300840084  0.02441433443344
 1 -15.27073650865086  1.69474438843884  1.70953915891589
 1  10.15497097909791  2.46389969386939 -0.19726904190419
 1 -8.73499019601960  0.48582068006801 -0.28547336033603
 1  8.78815167716772  4.27691754465447  0.02584628162816
 1  6.98214160316032  4.20418582748275  0.48978481148115
 1  8.17376208620862  3.82074496139614  1.65793881188119
 1 -8.26980401040104 -3.34131106020602 -0.12825866486649
 1 -8.32524828082808 -2.85052406650665 -1.68598492849285
 1 -6.76330517951795 -3.40600425252525 -1.05671246324632
 1  6.97108877187719  0.46550029292929 -0.42359575157516
 1 -6.38218848084808  0.54515435533553 -0.52479485648565
 1  5.32282166616662  2.93486863476348  0.53886614161416
 1 -4.83596741674167 -2.11509281638164 -0.78104550455046
 1  4.54883798279828  0.26797504340434 -0.47330574157416
 1 -4.26380188418842  0.72096721362136 -0.33973117711771
 1  3.08108589358936  3.33605764766477  1.32123832483248
 1  1.84387104010401  3.51843051395139  0.08470087808781
 1  3.65715973797380  3.79441727562756 -0.36145664166417
 1 -3.05984812181218 -2.95413256035604 -0.31792483648365
 1 -2.61510101810181 -2.45418653875388 -1.99187315431543
 1 -1.34199099809981 -2.48155833093309 -0.88116115211521
 1  2.39771692969297 -0.30748940004000 -0.12855075907591
 1 -2.04715411641164  1.04393431133113  0.03072645964596
 1  0.27609335633563  2.01122382828283 -0.02239644464446
 1  0.21231400140014 -1.11152110221022 -0.52738032203220

