%nproc=4
%Mem=2GB
# td=(NStates=1) CAM-B3LYP/6-31G(d,p) 

TD

0 1
 8  14.69223744274428 -2.21109858095810 -0.48484733773377
 8 -14.75480207720772  2.08759061506151  0.53251234523452
 6  11.44141743574357 -1.11661229532953  1.17761112211221
 6 -12.40279791179118 -0.94444700470047  0.76218174017402
 6  12.85721445344534 -1.48257129522952  1.01248882088209
 6 -13.65462807180718 -0.16454261426143  0.65509440544054
 6  13.24308630263026 -1.91278680578058 -0.40397528652865
 6 -13.47015935593559  1.35564836283628  0.61735351935194
 6  10.92243076907691 -0.26748096419642 -0.09951419741974
 6 -11.24391149214921 -0.25976700570057 -0.20776153015302
 6  13.00129434843484 -0.82818357545755 -1.33477435043504
 6 -12.71701246124612  1.79801777877788 -0.66147318931893
 6  11.54312905990599 -0.17978835193519 -1.15818433443344
 6 -11.48348193819382  0.82770909390939 -0.85803534253425
 6  11.28654938193819 -0.28680783888389  2.39761020202020
 6  10.53817325832583 -2.37143762486249  1.28795691569157
 6 -11.84172636663666 -0.84999682768277  2.18040662066207
 6 -12.71605230723072 -2.47771321432143  0.35791769576958
 6  9.63811863786379  0.33567460436044  0.16681336133613
 6 -9.99933130013001 -1.05680976597660 -0.34214289528953
 6  11.28101086608661  0.52556702160216 -2.38628283528353
 6 -10.44486692569257  1.46645702970297 -1.81219052605261
 6  9.33494346134613  1.61614505240524 -0.13008838283828
 6 -8.77497798279828 -0.63578713571357 -0.15056610261026
 6  8.03198918491849  2.18312805270527  0.07085275427543
 6 -7.56177131913191 -1.42493682678268 -0.33422875487549
 6  8.07026750775078  3.68266647154715  0.59597096309631
 6 -7.72158326432643 -2.81524127222722 -0.67015719071907
 6  6.86142154915492  1.60173016691669  0.04688468246825
 6 -6.38522032503250 -0.75257073217322 -0.10770377637764
 6  5.49449000100010  2.03034074097410  0.24565948194819
 6 -5.06304742674267 -1.23282315841584 -0.40756293029303
 6  4.50996492749275  1.28428384228423 -0.00157578657866
 6 -3.99188460846085 -0.46522272837284 -0.32665999599960
 6  3.03371597659766  1.67983858175818  0.15327699269927
 6 -2.56846061006101 -0.75952028212821 -0.42705036503650
 6  2.82019230023002  3.11935138403840  0.51452416141614
 6 -2.27111260526053 -2.18676597869787 -0.80739177917792
 6  2.13733330833083  0.78801596549655 -0.14457358235824
 6 -1.67431875487549  0.17881758765877 -0.13224505150515
 6  0.73469063806381  1.00386515441544  0.04865074507451
 6 -0.31239010801080  0.01836973187319 -0.16677431743174
 1  13.59729900190019 -0.57898133323332  0.89534437243724
 1  13.15269050505051 -2.09521010211021  1.88833896589659
 1 -14.23333611061106 -0.54356451345135  1.49629683568357
 1 -14.12434380138014 -0.36378330133013 -0.30184180418042
 1  12.61410661266127 -2.86072081518152 -0.80464852985299
 1 -13.03379884088409  1.80389490749075  1.51675114811481
 1  13.62422335433543 -0.25646836693669 -1.15472135613561
 1  13.28102959595959 -1.03604583168317 -2.38364904090409
 1 -13.45015055905591  1.57985930693069 -1.50834876787679
 1 -12.19701830883088  2.86089815381538 -0.82160904390439
 1  11.35646426642664 -0.94184491059106  3.22863752475248
 1  10.18372423742374  0.11129161906191  2.60176905790579
 1  12.06814608460846  0.61086081898190  2.35481461646165
 1  10.37215621862186 -2.88963954405441  0.15866125212521
 1  10.66951786878688 -3.08295321242124  1.97870779477948
 1  9.59478547954796 -1.71318231133113  1.42174711771177
 1 -11.51056795679568  0.35332090309031  2.44617851085108
 1 -10.96533104210421 -1.49437659265927  2.31425742974297
 1 -12.50648180718072 -1.09288019301930  3.14780737673767
 1 -13.54214399539954 -2.78069932193219  1.07447195619562
 1 -12.10643369136914 -3.35447747574758  0.44593964996500
 1 -13.29974033203320 -2.45483579157916 -0.70126860086009
 1  8.72741456545655 -0.17921624172417  0.58483266726673
 1 -10.29363909590959 -2.13085680968097 -0.66127576057606
 1  10.17054947394739  0.62077217511751 -2.47381208420842
 1  11.68053648864887  1.58704299519952 -2.40701041504150
 1  11.43315755075508  0.00932044494449 -3.40782791279128
 1 -11.19998100510051  2.03671690069007 -2.57882937593759
 1 -9.71140667966797  0.65685632263226 -2.35437004300430
 1 -9.74304605960596  2.31208982198220 -1.46092968896890
 1  14.83120967396740 -2.93356226132613 -0.00665877287729
 1 -15.30213964896490  1.90152506650665  1.27251545654565
 1  10.21060654265426  2.14165746964696 -0.52019133413341
 1 -8.73156985398540  0.35178727672767  0.20955614261426
 1  9.09951281328133  3.97908776167617  0.05480917791779
 1  7.15505889488949  4.28501391029103  0.37943377637764
 1  8.18489319931993  3.87675056195620  1.61031404940494
 1 -8.29197622762276 -3.43306023512351  0.10359452045205
 1 -8.32226798279828 -2.81513052715272 -1.71644797479748
 1 -6.84361321032103 -3.48491214331433 -0.96111290329033
 1  6.76712837583758  0.57833157605761 -0.31256464846485
 1 -6.56238650065006  0.29127896779678  0.17066468946895
 1  5.57093647764776  3.07945309320932  0.54399665466547
 1 -4.93100692069207 -2.29199050615061 -0.73515091509151
 1  4.62912601160116  0.14160240614061 -0.22830124112411
 1 -4.09087459145915  0.56740185708571  0.11937473347335
 1  3.45952373737374  3.28902294419442  1.43345954695470
 1  1.76752340534053  3.06118478937894  0.98620102810281
 1  3.11125514751475  3.67467530143014 -0.11171166716672
 1 -2.31530366736674 -2.91719886698670  0.10752770877088
 1 -2.83322283028303 -2.54215533563356 -1.55141910891089
 1 -1.13709050805081 -2.29712988808881 -0.99090212621262
 1  2.49432659065907 -0.23896254735474 -0.30524842884288
 1 -1.91830123112311  1.12555247314731  0.14705809280928
 1  0.34813056005601  2.10805351125113 -0.02869707470747
 1 -0.02272950295029 -1.20977092719272 -0.44729231323132

