%nproc=4
%Mem=2GB
# td=(NStates=1) CAM-B3LYP/6-31G(d,p) 

TD

0 1
 8  14.74590280928093 -2.08954642574257 -0.48354720772077
 8 -14.67602419941994  2.15411726772677  0.65543463746375
 6  11.54770806480648 -0.93008364246425  1.18454181518152
 6 -12.39044667666767 -0.86092865286529  0.81212673467347
 6  13.01776050805081 -1.23726676477648  1.03139071107111
 6 -13.69053166216622 -0.07057321732173  0.77149604560456
 6  13.30248224222422 -1.88416394349435 -0.27598248724872
 6 -13.43495583558356  1.35797859585959  0.64726651065107
 6  11.01072959895990 -0.34451866796680 -0.10550479647965
 6 -11.29921702270227 -0.29577060606061 -0.16418717271727
 6  12.89500371937194 -0.91377213431343 -1.50709158215822
 6 -12.75076583658366  1.77599557655766 -0.56479352135214
 6  11.59424417141714 -0.32090246334633 -1.31814033003300
 6 -11.57351094109411  0.88186450945094 -0.83679321832183
 6  11.34088481548155 -0.01551070917092  2.48982942394239
 6  10.89506894789479 -2.26247672877288  1.55686380638064
 6 -11.66270846484648 -0.81983381138114  2.28967754775478
 6 -12.71297199919992 -2.38744418741874  0.54604650865087
 6  9.69810463646365  0.37405844274427  0.08495517551755
 6 -10.00853222022202 -1.02821690669067 -0.44747342834283
 6  11.09490225522552  0.28648311321132 -2.60718492549255
 6 -10.65840827982798  1.37814819881988 -1.94025333233323
 6  9.34145411241124  1.60701413931393 -0.13390876487649
 6 -8.83637412241224 -0.61211476847685 -0.27886893289329
 6  8.01881786778678  2.23526326622662  0.11446711571157
 6 -7.61218636063606 -1.34711904500450 -0.58541387338734
 6  8.05509599059906  3.61464966986699  0.71142250825083
 6 -7.70629173517352 -2.76050579867987 -0.93025320032003
 6  6.85498090509051  1.53805379927993 -0.04577458345835
 6 -6.40354215721572 -0.72470794589459 -0.51675468146815
 6  5.53567411941194  1.95411311821182  0.21496641264126
 6 -5.04195531753175 -1.15721559765977 -0.67772994699470
 6  4.42196612761276  1.18031344524452  0.01634600560056
 6 -4.00939635963596 -0.38719492559256 -0.41304863486349
 6  3.08679128412841  1.53789438733873  0.25811747674767
 6 -2.64175793979398 -0.80258458855886 -0.41312897289729
 6  2.79591987298730  2.96782623152315  0.72239494849485
 6 -2.47831332533253 -2.23194049614961 -0.99601064106411
 6  2.00331990699070  0.65355251915192  0.12013288828883
 6 -1.65047637063706  0.17668737463746 -0.16702852985299
 6  0.58675584458446  0.77524229212921  0.32265814581458
 6 -0.28335720472047 -0.12408451355136 -0.05123276327633
 1  13.66750602260226 -0.39712314741474  0.88760359835984
 1  13.55183041904191 -1.63013359445945  2.01235136713671
 1 -14.39155193219322 -0.43508366536654  1.56874408040804
 1 -14.15213658065807 -0.59772669566957 -0.05231685168517
 1  12.76675187718772 -2.84758950205021 -0.36147421242124
 1 -12.90873633463346  1.57736225422542  1.54120359335934
 1  13.54929586158616  0.04292157205721 -1.43956984098410
 1  12.78303979697970 -1.63988621572157 -2.39240991699170
 1 -13.24276982098210  1.66344766576658 -1.53331126412641
 1 -12.30986959395940  2.75589765376538 -0.68179506250625
 1  11.60068868886889 -0.56161688778878  3.51465612661266
 1  10.31831769676968  0.34263475337534  2.61521040204020
 1  11.74622389238924  0.93902363526353  2.42649178417842
 1  11.09532853585358 -3.19922050215022  0.78145353135314
 1  11.38341925892589 -2.68770368746875  2.55411533553355
 1  9.87732373337334 -2.21841283438344  1.74142908590859
 1 -11.35020192019202  0.11291686268627  2.53289718271827
 1 -10.95353986298630 -1.59501665666567  2.13610961496150
 1 -12.29943110211021 -1.33207411241124  2.98112070807081
 1 -13.59725950695069 -2.72563381538154  1.01217572657266
 1 -11.75326837483748 -2.81066309430943  0.71310636663666
 1 -13.06612697069707 -2.40891119911991 -0.48481695569557
 1  8.92151397539754 -0.37774609470947  0.31576576057606
 1 -10.05126485848585 -2.08194191819182 -0.52610224322432
 1  10.04052647164716  0.57022712061206 -2.36982168516852
 1  11.71209964496450  1.13856814771477 -2.72440215421542
 1  11.01827606260626 -0.34171465856586 -3.46151328132813
 1 -11.29074008100810  1.64041727072707 -2.83110460346035
 1 -9.69757529652965  0.80411104810481 -2.12321692769277
 1 -10.34140589558956  2.45057367036704 -1.80900449644965
 1  15.09218577157716 -2.75033393849385  0.02325421842184
 1 -15.24741417641764  1.92088700270027  1.47624582958296
 1  10.06095157715771  2.33236654055406 -0.59359867486749
 1 -8.64326102310231  0.36708880688069 -0.07517233023302
 1  8.34216707870787  4.38887874077408  0.08288198519852
 1  7.12226561556156  3.80803621252125  1.08962479547955
 1  8.64296900690069  3.46601948884889  1.57965098309831
 1 -7.86895392539254 -3.38288521762176 -0.11504734373437
 1 -8.43453920992099 -2.80629964406441 -1.70779710971097
 1 -6.65993484248425 -3.28903255535554 -1.44551134313431
 1  6.98687035003500  0.47167090999100 -0.55844923692369
 1 -6.67736799879988  0.35461530143014 -0.07792016901690
 1  5.37861724572457  2.90796594449445  0.46363861886189
 1 -4.98691251125113 -2.18991029812981 -0.91344874487449
 1  4.60115321432143  0.16094434033403 -0.28747715871587
 1 -4.21345684968497  0.55856097299730  0.17813060906091
 1  2.91174895989599  3.04933897579758  1.89052525352535
 1  1.79797645064506  3.40772944384438  0.52282469046905
 1  3.48793281528153  3.81387922182218  0.11316082008201
 1 -3.12406454345435 -2.80808795589559 -0.27614065806581
 1 -2.74170367836784 -2.15878699879988 -2.14632859985999
 1 -1.38069486848685 -2.66658683378338 -0.85797883388339
 1  2.42562972097210 -0.15648429952995 -0.19415731973197
 1 -2.21511091209121  1.04798471637164  0.08529191619162
 1  0.08693444044404  1.63380608650865  0.56944273927393
 1  0.07755052505251 -1.08482843294329 -0.23796138013801

