%nproc=4
%Mem=2GB
# td=(NStates=1) CAM-B3LYP/6-31G(d,p) 

TD

0 1
 8  14.80192841184118 -1.97567503860386 -0.13912276527653
 8 -14.71781837883788  2.12037389338934  0.78783787778778
 6  11.44554784878488 -1.08918955305531  1.21709507050705
 6 -12.36748438043804 -0.85109766976698  0.91030655265527
 6  12.83623235523552 -1.31378441654165  1.19840741274127
 6 -13.68154076307631 -0.15787194719472  0.76857575357536
 6  13.35093708770877 -1.85521104820482 -0.16868175717572
 6 -13.47249958995900  1.38222102010201  0.76396818081808
 6  10.98405693169317 -0.33642785888589 -0.03046729272927
 6 -11.33051015201520 -0.29122015101510 -0.15970672467247
 6  13.15461968096810 -0.89058981608161 -1.27527840084008
 6 -12.61535229522952  1.82260023702370 -0.36321336333633
 6  11.76446119311931 -0.17969834293429 -1.15148366436644
 6 -11.43891748174818  0.97049337233723 -0.67467700670067
 6  11.08703943094310 -0.17743690179018  2.44952539353935
 6  10.44541398239824 -2.40854133523352  1.34209232923292
 6 -11.66277847184718 -0.74120594859486  2.34197277727773
 6 -12.50908161016102 -2.35845128812881  0.57374927892789
 6  9.65788061406141  0.34527556445645  0.10098677867787
 6 -10.09156052305230 -1.13914799979998 -0.40414909590959
 6  11.40627339233923  0.41991645654565 -2.40709491649165
 6 -10.67778021702170  1.53644402840284 -1.82541184818482
 6  9.33931389838984  1.60616405430543 -0.23171854585459
 6 -8.82195268026803 -0.73849740674067 -0.23346439243924
 6  7.97376336233623  2.21240097999800  0.00332600160016
 6 -7.55136027802780 -1.44749908300830 -0.52152748474847
 6  7.99253973497350  3.69367757265727  0.50870223622362
 6 -7.73584469046905 -2.76685643374337 -1.11372154715472
 6  6.84129953695370  1.49808980288029 -0.02903290929093
 6 -6.36865866886689 -0.80701617671767 -0.22164517051705
 6  5.47823837583758  1.95379308620862  0.06512142814281
 6 -5.08477959996000 -1.17569744584458 -0.62351452545255
 6  4.42035596659666  1.17559297319732 -0.10637626662666
 6 -4.00664608460846 -0.44186039213921 -0.42505983598360
 6  3.01387399239924  1.59677027492749  0.06994865986599
 6 -2.66148991299130 -0.78505283538354 -0.63408106810681
 6  2.81596187718772  2.97706715561556  0.65621833083308
 6 -2.30502599659966 -2.14960226232623 -1.24779581958196
 6  2.01855143014301  0.68046521042104 -0.19800892589259
 6 -1.64602592559256  0.09003870977098 -0.13126495349535
 6  0.60452762176218  0.97379214711471 -0.10664478447845
 6 -0.24060292929293 -0.10410251535154 -0.29461710171017
 1  13.58917818981898 -0.51070450555056  1.25633047104711
 1  13.14939017501750 -2.01698227932793  2.13321345334533
 1 -14.56717949494950 -0.47634779177918  1.49851705770577
 1 -14.24042540954095 -0.49334625762576 -0.23406502650265
 1  12.82411761376138 -2.69530427352735 -0.47188525352535
 1 -12.92794825582558  1.64598911691169  1.80586005900590
 1  13.87271820382038 -0.04722744284428 -1.34800068406841
 1  13.19595108810881 -1.55027725482548 -2.13375405140514
 1 -13.20168571257126  1.94889621062106 -1.22903083608361
 1 -12.19225783278328  2.75854791879188 -0.07715459845985
 1  11.35810443044305 -0.69608033413341  3.40011467246725
 1  9.91086695169517 -0.07283679377938  2.60685956695670
 1  11.62358162816282  0.90469020192019  2.44195333033303
 1  10.76047505050505 -3.14581516161616  0.35467085308531
 1  10.66287720472047 -3.06471138823882  2.05506543054305
 1  9.39085508650865 -2.15630662376238  1.24270921392139
 1 -11.51117801780178  0.36739231023102  2.55355924892489
 1 -10.69101361036104 -1.32187934293429  2.35154115811581
 1 -12.36445760476048 -1.24310521552155  3.21398399439944
 1 -13.39100888188819 -2.93120437243724  1.13329783878388
 1 -11.67969101710171 -3.08351037903790  0.81172622862286
 1 -13.01249160716072 -2.69458976697670 -0.52134060806081
 1  8.78442026602660 -0.15108342844284  0.81844602860286
 1 -10.23199293129313 -2.19217294129413 -1.05568520152015
 1  10.46775919491949  0.85655575347535 -2.47703240624062
 1  12.07756619161916  1.23548783968397 -2.88689840384038
 1  11.14987922292229 -0.24194468156816 -3.07143427342734
 1 -11.43212421942194  1.76768999799980 -2.56981847484748
 1 -9.78741428042804  0.98558919591959 -2.19629423542354
 1 -10.22999475447545  2.58069668266827 -1.56273986998700
 1  14.97653420642064 -2.56250515561556  0.53461535453545
 1 -15.23396283128313  1.84273918791879  1.53349155415542
 1  10.03917939993999  2.23327663156316 -0.73544285928593
 1 -8.88529522652265  0.26577867586759  0.29709489648965
 1  8.82427528952895  4.24239409230923 -0.09619592259226
 1  6.85253864286429  3.93371878077808  0.12351818481848
 1  8.14997970797080  3.93484637153715  1.73818683668367
 1 -8.55216224622462 -3.40093702280228 -0.33010884988499
 1 -8.28657441344135 -2.91938095219522 -2.00518684868487
 1 -6.81120996999700 -3.40048370047005 -1.27754454645465
 1  7.00432209520952  0.37452119501950 -0.04389778177818
 1 -6.32667292929293  0.28130797069707  0.02524014701470
 1  5.46242562656266  3.02094724262426  0.42643489848985
 1 -4.96132995299530 -2.20822212931293 -0.99841724172417
 1  4.64173727272727  0.08472671857186 -0.44978338933893
 1 -4.18317382138214  0.63775889278928 -0.11430863486349
 1  3.37516530153015  3.07830187208721  1.62963916491649
 1  1.67690434343434  2.92398106900690  0.85913832183218
 1  2.96174019601960  3.58971680558056 -0.09199969596960
 1 -2.50279241624162 -2.95246239333933 -0.53949699369937
 1 -2.76789629762976 -2.23829494959496 -2.13549751675167
 1 -1.22267906690669 -2.44119429452945 -1.28764180018002
 1  2.41246840484048 -0.20212886398640 -0.62465036903690
 1 -2.10024942594259  0.97828774667467  0.31974536153615
 1  0.20378612561256  1.99152185808581  0.00404619961996
 1  0.49353212321232 -1.14473442354235 -0.48745632963296

