%nproc=4
%Mem=2GB
# td=(NStates=1) CAM-B3LYP/6-31G(d,p) 

TD

0 1
 8  14.65567378637864 -2.21638911001100 -0.38016686968697
 8 -14.72324892189219  2.01325318131813  0.80024911891189
 6  11.44181747574758 -1.07103773787379  1.25731909290929
 6 -12.26666429842984 -0.94734729472947  0.81002652465247
 6  12.84098283028303 -1.39394243234323  1.17069464146415
 6 -13.70597320632063 -0.32926908690869  0.76739563556356
 6  13.31388338233823 -1.94430995809581 -0.30797568656866
 6 -13.45567790779078  1.25782858085809  0.80071185518552
 6  10.92677120312031 -0.39219343544354  0.01020677467747
 6 -11.35242234323432 -0.31666269526953 -0.11772252625263
 6  12.93329754875487 -0.90550130723072 -1.36869774277428
 6 -12.71951271127113  1.77667564456446 -0.41226826882688
 6  11.58347309430943 -0.34962533563356 -1.19131764776478
 6 -11.56161975197520  0.88510483348335 -0.73636317531753
 6  11.26308703570357 -0.15238439653965  2.51418185918592
 6  10.65469491049105 -2.40646112721272  1.52960108010801
 6 -11.70530272427243 -0.88967079507951  2.24762334233423
 6 -12.48350905290529 -2.42472791579158  0.49796170017002
 6  9.58925375137514  0.34410544744474  0.24070075007501
 6 -10.01947331433143 -1.05890997599760 -0.38454713571357
 6  11.02135490049005  0.26143060796080 -2.43436764376438
 6 -10.66847928692869  1.62797318131813 -1.77173648064807
 6  9.31293126012601  1.59905334323432 -0.03093846784678
 6 -8.81228171317132 -0.58649220622062 -0.28265931193119
 6  8.03503948994899  2.26002574247425  0.15697136613661
 6 -7.64040918291829 -1.34830916401640 -0.58227355935594
 6  8.03850433143314  3.75235344024402  0.40493185918592
 6 -7.61017212321232 -2.78890863896390 -1.16282645764576
 6  6.93683909090909  1.49331932583258 -0.01435144114411
 6 -6.44283608660866 -0.69627510261026 -0.25632863886389
 6  5.52986353835384  2.04755246214621  0.10899581558156
 6 -4.98324944694469 -1.10979085518552 -0.52068424242424
 6  4.37051098209821  1.32444785868587 -0.14650027902790
 6 -3.93553897389739 -0.39680588668867 -0.39403673367337
 6  3.08026063106311  1.79144974287429  0.06589825482548
 6 -2.52931669566957 -0.79296362646265 -0.50785844584458
 6  2.78029831083108  3.17229667856786  0.48732144114411
 6 -2.18745423942394 -2.19494679677968 -0.92629366936694
 6  2.11316089108911  0.83394055795580 -0.12932205720572
 6 -1.61915323832383  0.23114282018202 -0.22914474147415
 6  0.61274844384438  1.01069583748375 -0.11733585358536
 6 -0.23170203920392 -0.01768387348735 -0.36745438543854
 1  13.40878015001500 -0.56665010011001  1.40253509150915
 1  13.24442967896790 -2.00048062916292  1.97204733673367
 1 -14.25473825082508 -0.58501865886589  1.54637184318432
 1 -14.14671603860386 -0.48907583058306 -0.28421004100410
 1  12.63855905790579 -2.90882562566257 -0.33295136013601
 1 -12.95279074007401  1.52246676467647  1.58699817281728
 1  13.81563249524953 -0.19511223132313 -1.32898878287829
 1  13.22347384038404 -1.27613984108411 -2.45377605360536
 1 -13.76610215421542  1.54405572657266 -1.08288622162216
 1 -12.55669427642764  2.90987305130513 -0.45920280328033
 1  11.55638425842584 -0.67847857395740  3.46960162116212
 1  10.21967783278328  0.22245273517352  2.63609249024902
 1  11.78853812381238  0.77526725962596  2.52005114011401
 1  10.81167017001700 -3.24286486658666  0.74704009000900
 1  10.96559747674767 -2.94473939103910  2.46235615961596
 1  9.56707270827083 -2.24765575867587  1.47782272527253
 1 -11.70251715171517  0.16361193219322  2.92757665066507
 1 -10.71563607260726 -1.41570872587259  2.28058406240624
 1 -12.22525368436844 -1.42709361436144  3.01913450945095
 1 -13.36786656765677 -2.83768502050205  0.95727023602360
 1 -11.64765781378138 -3.05040706870687  0.66387144314431
 1 -12.76238659665967 -2.44481478947895 -0.59713818781878
 1  8.87350917491749 -0.38995731583158  0.75406959095910
 1 -10.21213094509451 -2.27583130713071 -0.83377301030103
 1  10.02558497749775  0.30386048394839 -2.34547925092509
 1  11.62846128112811  1.25955024592459 -2.44783449744975
 1  11.34014824982498 -0.12345283238324 -3.30497762776278
 1 -11.18987999499950  2.23975720472047 -2.57160865386539
 1 -10.02098763776378  0.89861049804980 -2.10425503150315
 1 -10.16978873387339  2.45211382438244 -1.46854045004500
 1  15.04203075607561 -2.50784969006901  0.49260115311531
 1 -15.38014744974497  1.52551746574658  1.47249545454545
 1  9.82683816581658  2.46062936683668 -0.47220653565356
 1 -8.71847854485448  0.54694679267927 -0.15703051605161
 1  8.85302816481648  4.28069792269227 -0.09696599959996
 1  7.13190657965797  4.27096250515052  0.34684051705171
 1  8.41516622662266  3.93549643654365  1.45039805780578
 1 -7.88215524552455 -3.47882481158116 -0.35851169016902
 1 -8.35264102010201 -2.78786780088009 -2.05145147514751
 1 -6.69362821182118 -3.28536218831883 -1.50001679367937
 1  6.91363302630263  0.52119586248625 -0.57637102910291
 1 -6.50131039303930  0.25535537543754  0.40497812081208
 1  5.42453183718372  2.97033218111811  0.61890414541454
 1 -5.02180600060006 -2.23548485558556 -0.49084648464847
 1  4.47079017801780  0.19417766366637 -0.45084349534953
 1 -3.84257976197620  0.50439555645565 -0.21858906290629
 1  3.28509629462946  3.28445248714872  1.46916311731173
 1  1.79686633963396  3.50135880678068  0.62995540354035
 1  3.27584160616062  3.73414124802480 -0.33197369336934
 1 -2.64887702470247 -2.89898704580458 -0.20787383138314
 1 -2.76184569256926 -2.49716083618362 -2.02186615361536
 1 -1.14731153015302 -2.48756893199320 -0.90541357735774
 1  2.46945410341034 -0.09506815791579 -0.36200410441044
 1 -1.94832423342334  1.23860377827783 -0.04935154815482
 1  0.15471121812181  1.88282098799880  0.12979877487749
 1  0.18171094109411 -0.96306625672567 -0.69506709070907

