%nproc=4
%Mem=2GB
# td=(NStates=1) CAM-B3LYP/6-31G(d,p) 

TD

0 1
 8  14.66848506750675 -2.14761223232323 -0.46244509750975
 8 -14.75324192119212  1.99839169516952  0.58506760076008
 6  11.54297759175918 -1.10153078717872  1.22565592659266
 6 -12.33013064506451 -0.89962252225223  0.74268979097910
 6  13.05735446744674 -1.38843188128813  0.99944751675168
 6 -13.66630923992399 -0.19058521852185  0.66338523452345
 6  13.33047504150415 -1.92415794289429 -0.38793368236824
 6 -13.48053039303930  1.24852765076508  0.66148793279328
 6  10.94174270027003 -0.30319453555356 -0.02943718971897
 6 -11.34632173317332 -0.24154518351835 -0.15438619261926
 6  12.98835305430543 -0.85836659375938 -1.37105797879788
 6 -12.62222298229823  1.84722269926993 -0.41615865786579
 6  11.59472421942194 -0.15663603670367 -1.15171368736874
 6 -11.48249183918392  0.97652397539754 -0.81053059205921
 6  11.40518124512451 -0.16580573867387  2.37853829482948
 6  10.74012345334534 -2.37390787188719  1.55996411641164
 6 -11.78785097909791 -0.81355318331833  2.15415399539954
 6 -12.45093579557956 -2.43568901190119  0.41281318531853
 6  9.56795162116212  0.27187822472247  0.17463414341434
 6 -10.14189555655566 -1.04346843184318 -0.34096277727773
 6  11.11411417641764  0.52998746364636 -2.46196040304030
 6 -10.59613205220522  1.55747613161316 -1.91791109810981
 6  9.28424839183918  1.59042248014801 -0.15038041204120
 6 -8.84749523452345 -0.52088564556456 -0.35062610861086
 6  7.97841382738274  2.26273601350135  0.10151582058206
 6 -7.65265040704070 -1.31172550565057 -0.46052138413841
 6  7.99002948394840  3.75212341724172  0.18439980598060
 6 -7.73936504250425 -2.73902365046505 -1.05154532953295
 6  6.83879928692869  1.51412140604060  0.04529452345235
 6 -6.46956875987599 -0.60688616371637 -0.23459646564656
 6  5.52036258825883  2.06175388228823  0.22195711171117
 6 -5.05034615661566 -1.13223309940994 -0.36756893089309
 6  4.49705363636364  1.17716313021302  0.09127349834983
 6 -3.95665108510851 -0.39043524962496 -0.12285961596160
 6  3.05855846084608  1.63583418131813  0.13726539153915
 6 -2.59082284628463 -0.81674600470047 -0.34393205320532
 6  2.75267554855486  3.02945239413941  0.66625933493349
 6 -2.50956645064506 -2.26257355945595 -0.85999703970397
 6  2.17611718671867  0.66783394729473 -0.00703982898290
 6 -1.60632195519552  0.02712241814181 -0.04308613561356
 6  0.68340550955095  0.75661042894289  0.16472235223522
 6 -0.23989285828583 -0.23687579267927 -0.24684232423242
 1  13.52747201920192 -0.24285772087209  1.06932177017702
 1  13.34684992099210 -2.10307088818882  1.76019615161516
 1 -14.35440821782178 -0.80390054705471  1.36696390239024
 1 -13.90458182518252 -0.58173509650965 -0.43326494649465
 1  12.60242544454445 -2.65520026312631 -0.56677474247425
 1 -13.00781624262426  1.76992151015102  1.74381385438544
 1  13.71366229822982 -0.05487820792079 -1.11356724072407
 1  12.92507400040004 -1.35932815991599 -2.44068474447445
 1 -13.43900944494449  1.94978629962996 -1.27431536453645
 1 -12.37583619061906  2.93561562556256 -0.28205508850885
 1  11.83670229022902 -0.45312603870387  3.51668632963296
 1  10.25199106410641  0.13181367126713  2.37977685868587
 1  11.83198246824682  0.74892462536254  2.16682581758176
 1  10.80889989298930 -3.21021160126013  0.84093947994800
 1  11.08945986298630 -2.86227114421442  2.57169709370937
 1  9.57471347234723 -2.19295028812881  1.48074301730173
 1 -12.03910081008101  0.14587015801580  2.63258715171517
 1 -10.50742525152515 -0.83836099109911  2.09700570457046
 1 -12.12673383238324 -1.85387629262926  2.80151274727473
 1 -13.34141392239224 -3.05622687468747  0.87107161616162
 1 -11.48823187118712 -2.96133816181618  0.82276733273327
 1 -12.58399875787579 -2.72508281628163 -0.54975344934493
 1  8.77260908490849 -0.18849716981698  0.88078226222622
 1 -10.12514224622462 -1.99795351935194 -0.79439907290729
 1  10.00004242324232  0.77094719261926 -2.37275197819782
 1  11.57471590659066  1.45583987488749 -2.69280899489949
 1  11.35419965496550 -0.12934342144214 -3.30427755775578
 1 -11.05772677967797  1.78855208420842 -2.57379887288729
 1 -9.89859539853985  0.92395303230323 -2.28534314031403
 1 -10.00738249324933  2.49326793979398 -1.65978957495750
 1  14.78962551555155 -2.92964186928693  0.15919781278128
 1 -15.29824925992599  1.54576949094910  1.35272347734773
 1  10.00372585458546  2.30813411731173 -0.74018333333333
 1 -8.62522921992199  0.65616771477148 -0.31245605860586
 1  8.63530639263926  4.16524637753775 -0.71349765276528
 1  7.03753714271427  4.04306971587159  0.07237307030703
 1  8.68942365236524  4.10714360126013  1.04324734273427
 1 -8.32613964396440 -3.40740766986699 -0.58355419441944
 1 -8.10698645464547 -2.63703271737174 -2.03456978697870
 1 -6.63400224922492 -3.12692634473447 -1.05223201520152
 1  7.06787845084508  0.50741448434844 -0.11033442544254
 1 -6.52583284528453  0.33001284118412 -0.08198057505751
 1  5.45782516651665  3.02870801870187  0.40013226822682
 1 -4.92166598659866 -2.18496980408041 -0.73630103010301
 1  4.48884198319832  0.07090533643364 -0.23928233923392
 1 -4.13760926492649  0.61405652255225  0.38293108910891
 1  3.37710549554955  3.04837887978798  1.53481968296830
 1  1.61082773577358  3.05025369626963  0.88098050605060
 1  2.94792881488149  3.82670050395039 -0.02523301930193
 1 -3.22202433943394 -3.05485263236324 -0.23941698569857
 1 -2.53995350335033 -2.39909102920292 -1.91192515951595
 1 -1.53834063306331 -2.64729490459046 -0.66767980398040
 1  2.56429358735874 -0.27498614971497 -0.37737564156416
 1 -1.86741614261426  1.07478739663966  0.39885327232723
 1  0.11587733473347  1.46294900080008  0.56584237923792
 1  0.07069983998400 -1.08965891599160 -0.66423400740074

