%nproc=4
%Mem=2GB
# td=(NStates=1) CAM-B3LYP/6-31G(d,p) 

TD

0 1
 8  14.62408062706271 -2.29992746384638 -0.33182203520352
 8 -14.56293289028903  2.14335619161916  0.86447554155416
 6  11.47208050205021 -1.06257689178918  1.33001636263626
 6 -12.31893952595260 -0.97993055305531  0.80987650965097
 6  12.98272700470047 -1.36503954205421  1.14671224322432
 6 -13.59855246424642 -0.15415157515752  0.73637253325333
 6  13.30156215021502 -1.97186271337134 -0.28016290529053
 6 -13.41952429242924  1.37623042104210  0.85911769576958
 6  10.98937746374638 -0.25391960806081  0.06638239223922
 6 -11.37084418541854 -0.25008603760376 -0.15728648264826
 6  13.01161538053805 -0.86599735683568 -1.35830670367037
 6 -12.70171093109311  1.77739571657166 -0.51062810481048
 6  11.63732847984799 -0.25930630373037 -1.15816433243324
 6 -11.52630622062206  0.87193351635164 -0.77143668266827
 6  11.31278200520052 -0.08949810791079  2.52577301830183
 6  10.62187162816282 -2.29237971907191  1.44710283028303
 6 -11.78645083908391 -0.95961778977898  2.24994357435744
 6 -12.65333603560356 -2.32584802780278  0.47052895689569
 6  9.59366419241924  0.34171520842084  0.10200688068807
 6 -10.15016638363836 -1.19290337533753 -0.40729941094109
 6  11.30941370637064  0.50985545044504 -2.41543575057506
 6 -10.65645808480848  1.57352773677368 -1.83505281228123
 6  9.34191415841584  1.64126756465647 -0.21287666166617
 6 -8.91061154615462 -0.66694025102510 -0.38952999899990
 6  7.99348533453345  2.34341408130813 -0.05829016001600
 6 -7.60350549254925 -1.41772610571057 -0.54365969796980
 6  8.00445092609261  3.83487169206921  0.44392575857586
 6 -7.76055716171617 -2.80891063916392 -0.86243641864186
 6  6.85900130713071  1.62899289318932 -0.15151515751575
 6 -6.42510431343134 -0.70309578467847 -0.41589459545955
 6  5.53970452245225  1.86641434833483  0.18268318431843
 6 -5.09158028002800 -1.13387326342634 -0.64944711871187
 6  4.41402533353335  1.17143255715572 -0.07526315531553
 6 -3.97145256525653 -0.45929213531353 -0.41136846684668
 6  3.02588519351935  1.54892549044904  0.10228189318932
 6 -2.60523428742874 -0.73266759685969 -0.45243290329033
 6  2.77208748974898  2.90436988588859  0.77987069606961
 6 -2.36665215921592 -2.14067136923692 -0.91846288628863
 6  2.02196177117712  0.63008017191719 -0.21777090209021
 6 -1.62672399539954  0.15735544144414 -0.13387521452145
 6  0.70358752775278  0.93232800070007 -0.08268238823882
 6 -0.23953282228223 -0.06344844994499 -0.34550219021902
 1  13.62282155415542 -0.46464990009001  1.19817465546555
 1  13.36391162716272 -2.09770035113511  1.99401953395340
 1 -14.00901367836784 -0.47903806080608  1.63749095509551
 1 -14.18039940694069 -0.43879080208021 -0.22712433243324
 1  12.73125832783278 -2.88591333443344 -0.57553561856186
 1 -12.73011847284728  1.73956847484748  1.77464693769377
 1  13.87250818281828 -0.20785350545055 -1.32421830583058
 1  13.19416090909091 -1.33562578967897 -2.34194487048705
 1 -13.33878942294229  1.56967828882888 -1.41321925492549
 1 -12.25124373137314  2.88992105610561 -0.55617250025003
 1  11.84743336333633 -0.56791751785179  3.52624728572857
 1  10.26841270627063  0.27973846374637  2.68525740674067
 1  11.90247951795179  0.76997673057306  2.39102823782378
 1  10.38224722772277 -2.69844042414241  0.37267265326533
 1  11.13230414741474 -3.10895581268127  1.94455437943794
 1  9.61260726172617 -2.12537353045305  1.79118406140614
 1 -11.52953985398540  0.08347391839184  2.63049694269427
 1 -10.94986949594960 -1.68331548654865  2.12814881888189
 1 -12.43995515451545 -1.54178508350835  2.90964356035604
 1 -13.32931271227123 -2.70234148614862  1.13080758975898
 1 -11.63647669566957 -2.96993902190219  0.84838989498950
 1 -12.72155251325133 -2.48017832583258 -0.57848632263226
 1  8.83407523152315 -0.19548786888689  0.45665984998500
 1 -10.29819955195520 -2.18232195619562 -0.80288992199220
 1  10.33916633563356  0.74606470437044 -2.28726342934293
 1  11.89600803580358  1.45266955785579 -2.12669238323832
 1  11.48610284528453  0.06347586048605 -3.42719984998500
 1 -11.33661466846685  2.02580580958096 -2.62398389138914
 1 -9.87674321332133  1.02044268126813 -2.41026563256326
 1 -9.99954170917092  2.50829944294429 -1.57133072907291
 1  14.82798935193519 -2.81238014311431  0.58496038903890
 1 -14.92193162816281  2.04055896989699  1.71999020402040
 1  10.03131861386139  2.22346565046505 -0.38839815481548
 1 -8.93903060006000  0.41116321432143 -0.37547236023602
 1  8.80147300930093  4.43715356825683  0.12594629162916
 1  7.02598598759876  4.19296470537054  0.08970480348035
 1  8.24576928692869  3.86798968586859  1.65455847384738
 1 -7.98341537153715 -3.30009693879388 -0.06676251525153
 1 -8.34625038103810 -3.14105311941194 -1.77733406340634
 1 -6.77360620962096 -3.37520117221722 -0.98551534353435
 1  7.11308297129713  0.53945768866887 -0.37950134213421
 1 -6.57816807880788  0.40455029492949 -0.15122749974997
 1  5.12463184718472  2.91041618951895  0.52494474947495
 1 -5.04460828082808 -2.40061136823682 -0.82072947294730
 1  4.59127222622262  0.26640488638864 -0.53193160416042
 1 -3.92878838283828  0.60112522942294 -0.26320352435244
 1  3.09024680968097  3.15279932183218  1.73696989798980
 1  1.79365601860186  3.17412608350835  0.97189959795980
 1  3.26787080908091  3.58951678557856  0.30430993499350
 1 -3.06748888588859 -2.84142128922892 -0.47516056005601
 1 -2.63526303430343 -2.21690281038104 -2.07594156115612
 1 -1.42079887888789 -2.40671084618462 -0.77841087708771
 1  2.52124928292829 -0.31663031413141 -0.66353425742574
 1 -2.05979538053805  1.30151006890689  0.01851523852385
 1  0.41841758875888  1.83967667356736  0.57408320332033
 1  0.20807357735774 -0.90861081118112 -0.60548813281328

