%nproc=4
%Mem=2GB
# td=(NStates=1) CAM-B3LYP/6-31G(d,p) 

TD

0 1
 8  14.73487170617062 -2.34767223832383 -0.48250710371037
 8 -14.87832442944294  1.89531138713871  0.64385347934793
 6  11.41262455645565 -1.15328596269627  1.16405976697670
 6 -12.30387801980198 -0.97280984098410  0.84501002300230
 6  12.95641437343734 -1.52666570467047  0.98261583358336
 6 -13.75272788178818 -0.28347450745075  0.85264416041604
 6  13.26451844584458 -1.94639016611661 -0.37467235623562
 6 -13.62609494949495  1.31266406440644  0.63065484948495
 6  10.85855438143814 -0.27262147824782  0.00646640064006
 6 -11.35346244724472 -0.29561059005901 -0.17482823682368
 6  13.00086430543054 -0.74792554965497 -1.34237511051105
 6 -12.97700846084609  1.54227220422042 -0.76486352835284
 6  11.59244399139914 -0.22648302140214 -1.12160067606761
 6 -11.64131772177218  0.80708703170317 -0.87221676067607
 6  11.37451817881788 -0.42876203430343  2.54632507350735
 6  10.57722716371637 -2.51458193929393  1.26134425442544
 6 -11.76392858685869 -0.66448827682768  2.29913849384939
 6 -12.38772947494749 -2.46794223722372  0.73495539953995
 6  9.57578240424042  0.31981301820182  0.27844452445245
 6 -10.05474684168417 -1.05163924892489 -0.33585226622662
 6  11.25473823882388  0.51264572947295 -2.40633484048405
 6 -10.74859729872987  1.43015339933993 -1.98887819481948
 6  9.40787075407541  1.63826726462646 -0.04222959695970
 6 -8.85371585658566 -0.55761931893189 -0.35867691369137
 6  8.04599058505850  2.26811655155516  0.15172084108411
 6 -7.55926106810681 -1.31016534963496 -0.54247957995800
 6  8.04404488548855  3.74865307020702  0.38745011101110
 6 -7.62771387738774 -2.77287703580358 -1.04051422642264
 6  6.95584099109911  1.55235522942294 -0.02947295329533
 6 -6.37860966396640 -0.58740421552155 -0.38829183518352
 6  5.58539909190919  2.09519722662266  0.30384530053005
 6 -5.07045816781678 -1.01592146824682 -0.52681485548555
 6  4.53551748274827  1.30507592149215  0.06751112211221
 6 -4.01493691369137 -0.28756496259626 -0.18660599059906
 6  3.08183078807881  1.72055265316532  0.13166483148315
 6 -2.57290105410541 -0.68673300340034 -0.33165082508251
 6  2.80788106910691  3.18763821272127  0.56793950295029
 6 -2.33043853785379 -2.11511881398140 -0.74628566856686
 6  2.19175875087509  0.78446561046105 -0.09227835283528
 6 -1.59069039203920  0.15031473737374 -0.12900472747275
 6  0.68634580358036  0.92803757165717 -0.03403752375238
 6 -0.14508337733773 -0.05275738083808 -0.23954159415942
 1  13.51326059805981 -0.57153058815882  1.35212005000500
 1  13.27203243924393 -2.25114569566957  1.64708484048405
 1 -14.15389816681668 -0.54228438543854  1.75814302030203
 1 -14.47048841584158 -0.61170809380938  0.06372475247525
 1  12.61988719071907 -2.90926566966697 -0.60846891189119
 1 -12.89349481048105  1.79692421042104  1.20398987198720
 1  13.79416034803480 -0.08367108720872 -0.95453133713371
 1  13.30081157415742 -1.15252747984798 -2.34679535553555
 1 -13.73633917791779  1.27832915391539 -1.59471740474047
 1 -12.59691829882988  2.53176524052405 -0.83300018301830
 1  11.74887350735074 -1.04467519361936  3.32969763076308
 1  10.42455832083208  0.02635312521252  2.76411529252925
 1  12.00892016201620  0.45465519841984  2.49388852385239
 1  10.60220922392239 -3.09494007410741  0.17660304630463
 1  10.85155607260726 -3.35297021412141  2.20122004600460
 1  9.51370737173717 -2.37633862696270  1.52606754975498
 1 -11.73885078507851  0.49761533253325  2.48029192219222
 1 -10.64722923192319 -1.10934808980898  2.31112711671167
 1 -12.42473363236324 -1.20239114411441  2.90779337533753
 1 -13.05185496649665 -2.82904415641564  1.53203771277128
 1 -11.50145319331933 -3.13231525952595  1.10663571957196
 1 -12.51675203320332 -2.93264357235724 -0.33291176517652
 1  8.77475929992999 -0.28451677177718  0.65940012401240
 1 -10.34723445544554 -2.05597932193219 -0.46804643764376
 1  10.32142456145614  0.86322642054205 -2.22121682468247
 1  11.99491792679268  1.44240853175317 -2.40797051105111
 1  11.28277251225123  0.00538005090509 -3.32008913891389
 1 -11.30692169916992  1.85886911591159 -2.71464295729573
 1 -9.93967950695070  0.81703234023402 -2.49727433343334
 1 -10.10045180018002  2.08973758675868 -1.51612520852085
 1  14.91275782878288 -3.23177208230823 -0.02870097709771
 1 -15.26064549954995  1.92548746274627  1.58324652965296
 1  10.27559304130413  2.22382568646865 -0.57650696569657
 1 -8.56219291629163  0.51516361436144 -0.15316012901290
 1  8.50265312731273  4.18095794869487 -0.55451175417542
 1  7.23263665266527  4.22714812371237  0.20317615061506
 1  8.64944965496550  4.14992787968797  1.21431444944494
 1 -7.96225325532553 -3.41966889598960 -0.08786462546255
 1 -8.15053080908091 -2.67703671777178 -1.99655598559856
 1 -6.74415326432643 -3.16899055115512 -1.41406819881988
 1  7.01311297429743  0.65295903880388 -0.32469586158616
 1 -6.66055631763176  0.40767060696070 -0.09541191819182
 1  5.47336672067207  3.20594574247425  0.52729498449845
 1 -5.00441426142614 -1.93552485958596 -0.90252765276528
 1  4.73686678567857  0.36008425432543 -0.37241565256526
 1 -4.36755225922592  0.84031914881488  0.09837263326333
 1  3.28306609160916  3.25026906880688  1.56248244924492
 1  1.86338299129913  3.45123379427943  0.56588899689969
 1  3.22746676867687  3.76226406030603 -0.18148864486449
 1 -2.67731986898690 -2.81202834993499 -0.08729177317732
 1 -3.16990649864986 -2.42800392049205 -1.57622158915892
 1 -1.27309410841084 -2.07871804690469 -1.19079211521152
 1  2.58226538453845 -0.15560421152115 -0.16221412541254
 1 -1.92568196919692  1.13410332823282  0.14020740774077
 1  0.20298604560456  1.80895360126013  0.17461325632563
 1  0.11331410141014 -0.94856480658066 -0.51701928592859

