%nproc=4
%Mem=2GB
# td=(NStates=1) CAM-B3LYP/6-31G(d,p) 

TD

0 1
 8  14.67330554955496 -2.08391586268627 -0.47765661866187
 8 -14.50833743074307  2.29363121912191  0.68164725872587
 6  11.39125241924192 -1.07539817391739  1.23467682868287
 6 -12.36801443344334 -0.91287384738474  0.69719524152415
 6  12.96743547554756 -1.27877091519152  1.05884345634563
 6 -13.64938754775478 -0.01200736073607  0.67335623162316
 6  13.25533752775278 -1.83892942004200 -0.32294718371837
 6 -13.33333567356736  1.40687348534853  0.80038182218222
 6  10.90021854785479 -0.29788400450045 -0.10464471047105
 6 -11.25694279527953 -0.26555758475848 -0.24908566256626
 6  13.05115933493349 -0.70225098219822 -1.30256112911291
 6 -12.58063882388239  1.77834581158116 -0.59536657865787
 6  11.60537528452845 -0.22172254535454 -1.27259577557756
 6 -11.44239782978298  0.92984930793079 -0.78571811081108
 6  11.08203893089309 -0.16136529462946  2.43302374337434
 6  10.60494993599360 -2.38407888898890  1.30048816881688
 6 -11.73221541554155 -0.77008883688369  2.14624320432043
 6 -12.78748945094510 -2.30255569856986  0.43042494649465
 6  9.53366819281928  0.22328336523652 -0.02752607260726
 6 -10.08809017601760 -1.08387247224723 -0.45811449244924
 6  11.16282904790479  0.56346081098110 -2.53028723572357
 6 -10.40533297229723  1.40437082108211 -1.91925123212321
 6  9.30202016901690  1.55908934683468 -0.13805917991799
 6 -8.83052353735374 -0.64014757175718 -0.35896694269427
 6  8.04629061506150  2.26297603750375  0.21020668966897
 6 -7.65918106010601 -1.41789612271227 -0.54171950395040
 6  8.13304378537854  3.68015622052205  0.53926529252925
 6 -7.56715782178218 -2.93287303540354 -0.79968014301430
 6  6.84613002000200  1.57670766466647  0.06153614761476
 6 -6.49320112311231 -0.83359883498350 -0.26269927592759
 6  5.47991854385439  2.02498020492049  0.17441235723572
 6 -5.21025214721472 -1.26364624072407 -0.40778295229523
 6  4.39567349834983  1.23689910381038  0.07354172517252
 6 -4.03150857085709 -0.58958516461646 -0.16110344034403
 6  3.02668527352735  1.60551114901490  0.19508117311731
 6 -2.67422118611861 -0.87003133323332 -0.30167782778278
 6  2.73522380338034  2.94215366426643  0.89599230823082
 6 -2.34773026702670 -2.37366466856686 -0.67567860786079
 6  2.04906448144814  0.74067123102310 -0.27906703170317
 6 -1.62060338333833  0.01148085398540 -0.23967579457946
 6  0.70806797579758  0.86985175307531  0.00682656265627
 6 -0.19812868186819 -0.15074717981798 -0.31538917891789
 1  13.64335360736074 -0.42120555565557  1.55985082308231
 1  13.06216145214522 -2.00701128222822  1.98729886188619
 1 -14.26061883888389 -0.62843300030003  1.49948715471547
 1 -14.19693106010601 -0.00363728672867 -0.29639125912591
 1  12.70414561656166 -2.70790553365337 -0.38435650065007
 1 -12.66474193519352  1.80056457445745  1.67416688968897
 1  13.77797872987299  0.08685596549655 -1.16279216321632
 1  13.19644113711371 -1.03675590269027 -2.30925160116012
 1 -13.32379792379238  1.68825014601460 -1.48491642464246
 1 -12.38586719371937  2.96385844984498 -0.51398828182818
 1  11.78405702570257 -0.43406413251325  3.13886854785479
 1  10.11781764676468 -0.04550406050605  2.90023890489049
 1  11.36607587758776  0.91885161806181  2.10232936793679
 1  10.87807681068107 -3.18290887098710  0.44880026602660
 1  10.80743166016602 -3.03252816991699  2.18089801380138
 1  9.60630663166317 -2.13582457555756  1.37944288728873
 1 -11.31665856585659  0.25706127712771  2.39263315631563
 1 -10.75940044904491 -1.34550170517052  2.26124212821282
 1 -12.40390154915492 -1.05734663966397  2.97952054805481
 1 -13.42560234123412 -2.41362261426143  1.08742325132513
 1 -11.96836988498850 -3.04669669766977  0.61504656065607
 1 -13.16644700270027 -2.38417872587259 -0.57715618961896
 1  8.90434225822582 -0.36169448954895  0.55668985298530
 1 -9.96652638463847 -2.20227395139514 -0.68338797179718
 1  10.39020143914391  1.24990508840884 -2.56833153615362
 1  12.11559999499950  1.20015430633063 -2.83725343934393
 1  11.30177441244125 -0.22284277137714 -3.31820895089509
 1 -11.10251125812581  1.98830205920592 -2.59187068006801
 1 -10.11049658865887  0.62808344534453 -2.48694330033003
 1 -9.98098985398540  2.27275588858886 -1.31094469046905
 1  15.14538109110911 -2.55776468156816  0.34406629962996
 1 -14.96424585958596  1.53778869286929  1.35958416341634
 1  10.08852433443344  2.20330363426343 -0.60538985398540
 1 -8.70218691569157  0.50067216521652 -0.31117593059306
 1  8.76888975097510  4.20573042594259 -0.33981028402840
 1  7.24642803180318  4.16423183208321  0.65350118311831
 1  8.69364407440744  3.65543843074307  1.47992101010101
 1 -8.08671570157016 -3.33640056915692  0.18307246824683
 1 -8.20881663766377 -3.25007402150215 -1.54906123612361
 1 -6.49936878587859 -3.30914456655666 -0.76437322932293
 1  6.99981164416442  0.60593433633363 -0.54983837583758
 1 -6.60060032203220  0.32312215211521  0.13620124312431
 1  5.32746213021302  3.02790793869387  0.29173142814281
 1 -5.02143596359636 -2.23710501760176 -0.57679507950795
 1  4.52756585558556  0.17637588348835 -0.09645805680568
 1 -4.14538004200420  0.65642075897590 -0.30259746374638
 1  3.32663044804480  2.90466450835084  1.83127932893289
 1  1.62367902090209  3.23098176907691  0.90658306630663
 1  3.15824984698470  3.83627146104610  0.50055955995600
 1 -2.67059919691969 -2.91622876997700  0.03278023402340
 1 -2.90484999299930 -2.62787390749075 -1.66791075807581
 1 -1.32403920292029 -2.51175135023502 -1.05075811181118
 1  2.19318647664767 -0.16471512261226 -0.79495739973997
 1 -2.09017841884188  1.01391130903090  0.05019840684068
 1  0.20862660966097  1.65405811171117  0.49854564956496
 1  0.30303307330733 -0.90271022112211 -0.77598518251825

