%nproc=4
%Mem=2GB
# td=(NStates=1) CAM-B3LYP/6-31G(d,p) 

TD

0 1
 8  14.70630884988499 -2.28545601670167 -0.47250610361036
 8 -14.79895649264926  1.94724658065807  0.78251734573457
 6  11.47925121912191 -1.07308794289429  1.23880724172417
 6 -12.28012564456446 -1.07405996599660  0.76390191219122
 6  13.02741147314732 -1.37087012511251  1.06262383438344
 6 -13.68522113111311 -0.24020018001800  0.87785668166817
 6  13.25194718871887 -2.07727325442544 -0.33548843784378
 6 -13.57599993999400  1.21861465946595  0.79113089708971
 6  10.98808733473347 -0.25021923802380  0.14738049204921
 6 -11.30867796879688 -0.35483651265127 -0.20804155815582
 6  12.79119333833383 -1.13567432453245 -1.43295416841684
 6 -12.76720748074808  1.70590856785679 -0.56972401440144
 6  11.59605435243524 -0.28539891299130 -1.08596711271127
 6 -11.57713130313031  0.88955527852785 -0.72603214221422
 6  11.29966069306931 -0.33696285438544  2.63804424542454
 6  10.78024746574657 -2.36996747784778  1.33746186618662
 6 -11.72905509950995 -0.97724955295530  2.25790437043704
 6 -12.47257795979598 -2.45341078407841  0.42667457145715
 6  9.68027285328533  0.40314135103510  0.34153083308331
 6 -10.12859422642264 -1.09260334533453 -0.45587426842684
 6  11.04244700970097  0.18182264716472 -2.40336454345435
 6 -10.67186962596260  1.53042342634263 -1.84657396439644
 6  9.41123109010901  1.63003644154415 -0.06182155615562
 6 -8.87854833983398 -0.56049960696070 -0.42820386638664
 6  8.07157314331433  2.26969670957096  0.04593026202620
 6 -7.57976311831183 -1.31463579667967 -0.60031536353635
 6  8.22264274527453  3.77991619651965  0.50844221022102
 6 -7.65535664166417 -2.82251199929993 -0.70490066506651
 6  6.92366777377738  1.68222821672167 -0.01633163916392
 6 -6.45878768176818 -0.63185866096610 -0.52141514751475
 6  5.63607415941594  2.10629833673367  0.13804872087209
 6 -5.09404052605260 -1.07053692979298 -0.56199837383738
 6  4.46831076207621  1.44815022892289 -0.00305593459346
 6 -4.04565998599860 -0.17589379547955 -0.26520385038504
 6  3.12828543354335  1.82590318821882  0.08191985698570
 6 -2.65511927592759 -0.70719504960496 -0.33729138913891
 6  2.70609089008901  3.18332778167817  0.64813752275228
 6 -2.46979247324732 -2.15304260636064 -0.85518655865587
 6  2.16487606260626  0.83637080098010 -0.16150527552755
 6 -1.64922624562456  0.18338804470447 -0.31336316331633
 6  0.67721489048905  1.10244501240124 -0.15800992099210
 6 -0.16618548754875  0.05715361026103 -0.40240788078808
 1  13.45371464346435 -0.37295073017302  1.08021285928593
 1  13.47644288028803 -1.97531811291129  1.84914504650465
 1 -14.26639941694170 -0.60086024302430  1.63942114811481
 1 -14.41804317131713 -0.69535645864586  0.01081946194619
 1  12.51803700570057 -3.00560530363036 -0.46679474447445
 1 -12.69852531353135  1.46311082908291  1.63996346934693
 1  13.71934286628663 -0.50481320142014 -1.50613649764977
 1  12.72507400040004 -1.54862708980898 -2.54079475547555
 1 -13.51857740174017  1.50007132813281 -1.46554448744874
 1 -12.69130773777378  2.81626369036904 -0.68781566456646
 1  11.72592121212121 -1.09212993909391  3.31146580758076
 1  10.09567543254326 -0.23693320342034  2.87970685168517
 1  12.11361063106311  0.53379311221122  2.73589272427243
 1  10.82385138813881 -2.86364694479448  0.29907529352935
 1  11.18038895589559 -2.95234015111511  2.20127005100510
 1  9.61081708270827 -2.28032902600260  1.69518446144614
 1 -11.75812271227123 -0.04236866586659  2.79045293829383
 1 -10.73708821782178 -1.38474562956296  2.14363036703670
 1 -12.25424658365837 -1.68123902890289  3.01777437343734
 1 -13.35866564756476 -2.89891114311431  0.97003151215121
 1 -11.71378442644264 -3.00233226122612  0.86927198319832
 1 -12.73868422642264 -2.61754206220622 -0.58388686268627
 1  8.96165798979898 -0.14624294439444  0.74162834683468
 1 -10.17946767876788 -2.14832855685569 -0.23273290629063
 1  9.90043246224622  0.51054115201520 -2.26703140614061
 1  11.55628406340634  1.19006329722972 -2.58186790079008
 1  11.13647788278828 -0.53091357845785 -3.19074620462046
 1 -11.40105111211121  1.60300352935294 -2.60123161616162
 1 -9.71052659165917  0.92837347434743 -2.22973757975798
 1 -10.30759251425143  2.31234984798480 -1.62589618561856
 1  14.85133168616862 -2.85685459055906  0.25145703870387
 1 -15.45261469646965  1.78431334533453  1.46667487248725
 1  10.13099858185819  2.29655295919592 -0.47091640664066
 1 -8.95378207520752  0.57469956795680 -0.38811362436244
 1  9.17166002800280  4.15043489638964  0.04942863986399
 1  7.34677806680668  4.14728013691369  0.23304913791379
 1  8.58186289628963  3.70402328922892  1.53286630463046
 1 -7.91122815281528 -3.45766269536954  0.22555671667167
 1 -8.23183893989399 -3.20839985408541 -1.59415574557456
 1 -6.62951180018002 -3.10074372647265 -0.84694148614861
 1  6.73566522952295  0.69209295219522 -0.23943733573357
 1 -6.46050631263126  0.50051989188919 -0.43208558555856
 1  5.50494987898790  3.01454660256026  0.51363361836184
 1 -4.87395121512151 -2.09286059315932 -0.75351275127513
 1  4.44608770777078  0.56666491239124 -0.45621403240324
 1 -4.03171867586759  0.88252336923692 -0.19058626262626
 1  3.38100588558856  3.36466050795079  1.37650385138514
 1  1.62140879387939  2.94908357925793  0.92375478347835
 1  2.86738076007601  3.98137597149715 -0.07976847284728
 1 -2.78788092509251 -3.05147229432943 -0.10845388938894
 1 -3.10622013001300 -2.44384550465047 -1.57450141714171
 1 -1.20736753575358 -2.35792596769677 -1.12846588258826
 1  2.40452761076108 -0.18268691979198 -0.55368327232723
 1 -1.99572897389739  1.21220113801380 -0.16006261926193
 1  0.27986373337334  2.13713641954195  0.27648344334433
 1  0.30717348734873 -0.73165311541154 -0.99860744474447

