%nproc=4
%Mem=2GB
# td=(NStates=1) CAM-B3LYP/6-31G(d,p) 

TD

0 1
 8  14.64477269626963 -2.28401587268727 -0.02988184118412
 8 -14.70420701770177  1.99921177717772  1.04040313431343
 6  11.32715600960096 -1.13641427552755  1.32303566456646
 6 -12.31093872587259 -0.99826238623862  0.80367588958896
 6  12.78876760876088 -1.51611464956496  1.22095966796680
 6 -13.71198380738074 -0.19392555255526  0.82867176317632
 6  13.23992598659866 -2.03140866796680 -0.12515740474047
 6 -13.46595893589359  1.39536233423342  0.93715549954995
 6  10.95217374337434 -0.36283049914992  0.06601235523552
 6 -11.31583868486849 -0.29320034903490 -0.09640039403940
 6  12.97048126712671 -1.13282403950395 -1.33855472847285
 6 -12.75007576757676  1.80884886188619 -0.34401144314431
 6  11.67340208720872 -0.31674204730473 -0.97092560856086
 6 -11.48965255525552  0.91642796579658 -0.67108664766477
 6  11.17869859685969 -0.34187334543454  2.60068050905091
 6  10.45231467246725 -2.35670615171517  1.33546166616662
 6 -11.83632582658266 -0.99921174917492  2.30245882588259
 6 -12.51756245824583 -2.32216765976598  0.45993789778978
 6  9.59839466546655  0.49639067596760  0.13967064706471
 6 -10.07242860986099 -1.01168525352535 -0.37568624962496
 6  11.18370113511351  0.58933339823982 -2.17663187018702
 6 -10.50738317731773  1.54047443144314 -1.58682798979898
 6  9.31348131513151  1.82241567946795  0.01426605260526
 6 -8.80413089808981 -0.61471502850285 -0.20706175217522
 6  8.14370035603560  2.38366810671067  0.04678034703470
 6 -7.57165230723072 -1.32124645774577 -0.51201653365337
 6  8.15331581258126  4.05087329222922  0.46819818581858
 6 -7.77079818581858 -2.78441818991899 -1.03000317531753
 6  6.97863327032703  1.76697669156916 -0.20324033003300
 6 -6.38848065106511 -0.64040951605160 -0.34169717571757
 6  5.60076062806281  2.13173087998800  0.11019593559356
 6 -5.11726284828483 -1.24016389248925 -0.75418759275928
 6  4.51061499249925  1.35736115001500 -0.18709433843384
 6 -4.02893831383138 -0.50839704580458 -0.45243257325733
 6  3.06399900490049  1.68615921382138 -0.12625096009601
 6 -2.63118688268827 -0.93062739283928 -0.59626728672867
 6  2.75636591759176  3.13557300620062  0.25823853285329
 6 -2.32196769076908 -2.34231153325333 -1.16356739673967
 6  2.21378095309531  0.73446060996100 -0.43223234823482
 6 -1.58721004400440  0.00885059095910 -0.50025185218522
 6  0.76780394939494  0.92726749464946 -0.26588070807081
 6 -0.15086395539554 -0.09642174727473 -0.53767140714071
 1  13.57337660966097 -0.64464789988999  1.37508234623462
 1  13.15011024702470 -2.42210279137914  1.80687081908191
 1 -14.01356413341334 -0.49368952595260  1.70495770177018
 1 -14.30916228322832 -0.40517744074407 -0.08554017401740
 1  12.84327952995299 -2.97473221632163 -0.45340340534053
 1 -12.74518997999800  1.55478999699970  1.86472594559456
 1  13.68191912391239 -0.14622734283428 -1.36467235123512
 1  12.77837933093309 -1.37472970007001 -2.42054273027303
 1 -13.61321686568657  1.68833015401540 -1.18281621462146
 1 -12.41954056105611  2.86945900990099 -0.22393927692769
 1  11.52396101610161 -0.72672339843984  3.57419208020802
 1  10.17043290829083  0.09004949484949  2.75825470647065
 1  11.56252552255225  0.59573930683068  2.49524865986599
 1  10.54274327732773 -3.04788536863686  0.48134352035204
 1  10.74454537153716 -2.86702161926193  2.33518344234423
 1  9.48280428142814 -2.04345533863386  1.40448539153915
 1 -11.98747564756476 -0.01475590459046  3.00899479247925
 1 -10.72136664566457 -1.48001515651565  2.28126413041304
 1 -12.47486864586459 -1.99187009200920  2.95965856185619
 1 -13.08680846184618 -2.84712596459646  1.28528303730373
 1 -11.63535658365837 -2.96068809680968  0.49184424042404
 1 -12.98450880888089 -2.42857316531653 -0.68486696069607
 1  8.79420124412441 -0.29614793489349  0.41447563156316
 1 -10.03957368936894 -2.18099182318232 -0.84519415241524
 1  10.24651707070707  0.83508360626063 -2.09835453845385
 1  11.88536697169717  1.54300859175918 -2.24999471347135
 1  11.28440267526753 -0.03735422252225 -3.12506963696370
 1 -11.13494450145014  1.84297752675267 -2.38563005600560
 1 -9.78485402440244  0.82218285528553 -2.00612521852185
 1 -9.92091384638464  2.29614822782278 -1.00059365536554
 1  14.71084763776378 -2.92883178827883  0.59083097609761
 1 -15.00807024202420  1.81199611361136  1.98255646064607
 1  10.29597507950795  2.37776108000800 -0.00288960396040
 1 -8.73156985398540  0.40733283128313  0.23521870887089
 1  8.75029789178918  4.42572242514252 -0.15519182218222
 1  7.01654504350435  4.58055346424642  0.11727756075608
 1  7.94395910591059  4.23970685758576  1.57331034903490
 1 -8.22076910691069 -3.32504943404340 -0.07410324932493
 1 -8.45169092509251 -2.80815983008301 -1.88447477747775
 1 -6.80211906090609 -3.29578323042304 -1.33193998599860
 1  7.05425708870887  0.77535127802780 -0.42372576457646
 1 -6.29554981698170  0.32192203210321  0.03651127412741
 1  5.41463084708471  3.19104425232523  0.54825708070807
 1 -5.01108492849285 -2.18451975907591 -1.09619701970197
 1  4.70853395239524  0.30588883478348 -0.54686309730973
 1 -4.17489299329933  0.63142825972597 -0.06075327932793
 1  3.18079586458646  3.33278732063206  1.28809501050105
 1  1.70082673567357  3.30170884178418  0.30931333933393
 1  3.43189721172117  3.76232406630663 -0.37924842084208
 1 -2.88451058805881 -3.15534268136814 -0.47171021502150
 1 -2.84098360636064 -2.54192531263126 -2.02756672367237
 1 -1.16163296229623 -2.39582975807581 -1.12672570857086
 1  2.30482764076408 -0.32985163626363 -0.80123802780278
 1 -1.97372677367737  0.94742466036604 -0.23394000700070
 1  0.25070081708171  1.84464717061706  0.05001079607961
 1  0.08255102510251 -1.09600955105511 -0.83190077407741

