%nproc=4
%Mem=2GB
# td=(NStates=1) CAM-B3LYP/6-31G(d,p) 

TD

0 1
 8  14.75791401040104 -2.12035950705070 -0.23328218121812
 8 -14.84116071307131  1.80310216621662  0.79431852585259
 6  11.37096039003900 -1.22520315441544  1.22307566856686
 6 -12.29298693069307 -0.87741030103010  0.86990251225123
 6  12.81910064206421 -1.48009104720472  1.08267583958396
 6 -13.65890849984998 -0.27222338233823  0.94538343434343
 6  13.34672666666667 -2.07884341144114 -0.22553744274427
 6 -13.59761210121012  1.16776957495750  0.76074785878588
 6  11.00730925692569 -0.34421863796380 -0.01583582958296
 6 -11.38989609060906 -0.36125715471547 -0.20290104410441
 6  12.94877909690969 -1.01929268636864 -1.30232110511051
 6 -12.98647940794080  1.54444242124212 -0.58701574357436
 6  11.66957170417042 -0.33580395349535 -1.19948846484648
 6 -11.63743733373337  0.79848617161716 -0.83415295429543
 6  11.19704043104310 -0.33150230833083  2.49608004900490
 6  10.50661010201020 -2.45371585268527  1.23371149114912
 6 -11.52903509750975 -0.86153798179818  2.36356493649365
 6 -12.40993169516952 -2.44412985598560  0.63821572557256
 6  9.70728555455546  0.37344838173817  0.15835251525153
 6 -10.05634700170017 -0.99479356435644 -0.46398507950795
 6  11.20866363136314  0.41123558845885 -2.40775498249825
 6 -10.84812725172517  1.40345072907291 -1.99503881088109
 6  9.30193016001600  1.61786522442244 -0.05899127312731
 6 -8.83858434343434 -0.43350690769077 -0.25874692069207
 6  8.02127811381138  2.28387812771277  0.09491516051605
 6 -7.58978412041204 -1.15445977907791 -0.56901223322332
 6  8.15580606160616  3.78901710661066  0.39859122512251
 6 -7.57905901190119 -2.60201995009501 -1.05624579957996
 6  6.85024043104310  1.59487948184818 -0.08737874387439
 6 -6.41428323132313 -0.48913438853885 -0.50359336533653
 6  5.50795134713471  2.14926263316332  0.24216913291329
 6 -5.01437255925592 -1.12254213031303 -0.53236541054105
 6  4.45528945994599  1.35170058395840  0.08323269426943
 6 -4.03454887488749 -0.34096030213021 -0.26451378137814
 6  3.09869247424742  1.66631722962296  0.10376204120412
 6 -2.60593435743574 -0.65477980808081 -0.33008066806681
 6  2.87447772877288  3.14424387328733  0.42147485648565
 6 -2.36729222322232 -2.04605190729073 -0.97371841184118
 6  2.16630620562056  0.77367453135314 -0.12528165316532
 6 -1.56730805380538  0.12720242614261 -0.21704353135314
 6  0.70558772777278  1.01739650755076  0.03849972997300
 6 -0.17925679467947  0.08471636653665 -0.31554919491949
 1  13.34542381438144 -0.57141057615762  1.21264610261026
 1  12.90896613261326 -2.15007558865887  2.01065119711971
 1 -14.17607038403840 -0.78939909690969  1.98601580758076
 1 -14.20268163516352 -0.57393431643164  0.14439281928193
 1  12.84195939793979 -3.01005574867487 -0.05439350435043
 1 -12.84788024902490  1.74545906390639  1.48647812081208
 1  13.81789272127213 -0.16475919601960 -1.10894677867787
 1  13.11668316131613 -1.41675390249025 -2.25914659065907
 1 -13.93074861886189  1.53103442444244 -1.16449438243824
 1 -12.58570717771777  2.71192325632563 -0.69303618661866
 1  11.53496211621162 -0.76646737283728  3.50619528052805
 1  10.07622348734874 -0.07880739083908  2.72961184218422
 1  11.57572684268427  0.56240597349735  2.38786792179218
 1  10.64877388038804 -2.92297287738774  0.26172155815582
 1  11.09375029202920 -3.08278319541954  1.99034895889589
 1  9.37150315131513 -2.16392738583858  1.72323726672667
 1 -11.52219911991199  0.17379295029503  2.55068896189619
 1 -10.57332184118412 -1.26892404740474  2.21603760776078
 1 -12.01176233523352 -1.37402830783078  2.95719831583158
 1 -13.24184396539654 -2.87051830383038  1.22419692869287
 1 -11.52160520852085 -3.16662869086909  0.88078313431343
 1 -12.58041839983998 -2.58216852485248 -0.48718719271927
 1  8.88938076207621 -0.40106842694270  0.54953913791379
 1 -9.98772850485049 -2.10628435243524 -0.70434006700670
 1  10.20679309830983  0.80553065096510 -2.44648935193519
 1  12.06636507150715  1.18292258315832 -2.83111282528253
 1  11.33450768576858 -0.42447293439344 -3.19199632963296
 1 -11.48394940194019  1.73512674167417 -2.92221371437144
 1 -9.78033357235724  0.84538517551755 -2.15973057905791
 1 -10.57688944394440  2.29066767976798 -1.80343393939394
 1  15.08164471747175 -3.22014091919192  0.09643153615362
 1 -15.22854228922892  1.51978689268927  1.59887809280928
 1  10.11695717771777  2.27102040594059 -0.32869218421842
 1 -8.59273597059706  0.57603970197020  0.01837702470247
 1  8.65439830183018  4.20770062296230 -0.55464176717672
 1  7.18311170017002  4.40965637453745  0.81564739773977
 1  8.84628933893389  3.67876076297630  1.35321833983398
 1 -8.07458448844884 -3.44785171427143 -0.59835567456746
 1 -8.17185294129413 -2.93050206430643 -1.97872420242024
 1 -6.60072892189219 -3.12655630773077 -1.31459825182518
 1  7.10076173917392  0.63471721462146 -0.58627201920192
 1 -6.35824608660866  0.46070591049105 -0.19798217521752
 1  5.49752913691369  3.12935808370837  0.63503575857586
 1 -4.96920074007401 -2.09862116921692 -1.04914231423142
 1  4.56009910891089  0.43931217711771 -0.25658406940694
 1 -4.31729723372337  0.69858497539754  0.18393118911891
 1  3.59670745574557  3.49706374827483  1.09463566456646
 1  1.76506315931593  3.43093176407641  0.86612902090209
 1  3.11090511251125  3.86364419831983 -0.29601009700970
 1 -2.77680981798180 -2.99603675077508 -0.50568361236124
 1 -2.86489599759976 -2.30428154825483 -1.82712667966797
 1 -1.24666146514651 -2.14799497459746 -0.92338537453745
 1  2.58222538053805 -0.16549520062006 -0.40548845284528
 1 -1.92440184118412  1.09632955085509 -0.02381899489949
 1  0.49899564656466  2.12259496539654  0.08882467746775
 1  0.23869663966397 -0.89408935903590 -0.59427701170117

