%nproc=4
%Mem=2GB
# td=(NStates=1) CAM-B3LYP/6-31G(d,p) 

TD

0 1
 8  14.68785700470047 -2.23588105920592 -0.39904875787579
 8 -14.84129072607261  1.92901475747575  0.63975306930693
 6  11.41151444544454 -1.13035366946695  1.19617297829783
 6 -12.30913854585459 -0.88523108310831  0.84775029702970
 6  12.85298403040304 -1.54982802090209  1.04518209020902
 6 -13.71161377037704 -0.17326348634863  0.76670556655666
 6  13.30568256225622 -1.99531505860586 -0.35275016401640
 6 -13.49797213721372  1.24710750875087  0.78659044304430
 6  11.02842136813682 -0.31518573467347  0.03731948594859
 6 -11.33583068406841 -0.30733176217622 -0.16998775277528
 6  13.01973619261926 -0.86348710581058 -1.31228210121012
 6 -12.81253201320132  1.65730370737074 -0.58917595959596
 6  11.71505625262526 -0.14033440654065 -1.06365488148815
 6 -11.66241983198320  0.86588291129113 -0.83098263726373
 6  11.18521924892489 -0.22699185728573  2.49802024302430
 6  10.47617705870587 -2.41811229232923  1.32124024402440
 6 -11.77893008700870 -0.80595242324232  2.21257983798380
 6 -12.46977767976798 -2.43724916791679  0.48079998399840
 6  9.66886171217122  0.44297533443344  0.08876555655566
 6 -10.02996436343634 -1.00291437643764 -0.34929361036104
 6  11.35461822682268  0.56266073097310 -2.34381858885889
 6 -10.78410084908491  1.44944532853285 -1.82115142214221
 6  9.31892185918592  1.63949738763876 -0.18484385838584
 6 -8.81671215621562 -0.47737129412941 -0.30536158215822
 6  8.06373235923592  2.23839357925793  0.01909757875788
 6 -7.63018816081608 -1.21627596069607 -0.58662399439944
 6  8.13720420142014  3.68107631253125  0.38690005600560
 6 -7.79211031703170 -2.67880762886289 -0.98823899889989
 6  6.92290769776978  1.55374536843684 -0.13957396339634
 6 -6.42144394739474 -0.61800727582758 -0.35655866186619
 6  5.54868542054205  2.05607331423142  0.17940285628563
 6 -5.08373949594959 -1.10525040114011 -0.44786696069607
 6  4.46430036103610  1.33446886078608  0.03051742274227
 6 -3.95846126612661 -0.45909211531153 -0.11520885088509
 6  3.13518612361236  1.66675727362736  0.18263992899290
 6 -2.54554831883188 -0.85059939003900 -0.35500316031603
 6  2.85630591159116  3.15718516741674  0.59208191719172
 6 -2.31939743374337 -2.22546984908491 -0.82135317531753
 6  2.10103967896790  0.76044320822082 -0.02086121112111
 6 -1.55260658365837  0.11005071097110 -0.22746457345735
 6  0.69875704470447  0.87087185508551  0.00027590759076
 6 -0.19463833283328 -0.01333343844384 -0.30008764876488
 1  13.55508478047805 -0.72545598069807  1.39815465346535
 1  13.23559879587959 -2.30491107220722  1.80716084808481
 1 -14.21110388738874 -0.58439859685969  1.63642084808481
 1 -14.25269663666367 -0.61414833783378 -0.11916353635364
 1  12.77863306530653 -3.00649539263926 -0.67350541554155
 1 -12.73645910691069  1.55834035203520  1.51850132313231
 1  13.80478141014101 -0.23401612171217 -0.97422330633063
 1  13.05559705270527 -1.22481470857086 -2.25381605760576
 1 -13.44641018501850  1.57395871687169 -1.41314924792479
 1 -12.70840944794479  2.65192725672567 -0.46165304830483
 1  11.77856647664766 -0.48659938603860  3.50755541654165
 1  10.14451031603160 -0.18465797589759  2.68687756875688
 1  11.63296256625662  0.80832056495650  2.23327246224622
 1  10.65838484148415 -3.09625020512051  0.49786517251725
 1  10.84116503350335 -3.00292520962096  2.30628055205521
 1  9.38825482648265 -2.36859785288529  1.66461140414041
 1 -11.53803070307031  0.22166773777378  2.41127502050205
 1 -10.88747325632563 -1.48890604560456  2.34791079507951
 1 -12.58862002100210 -1.13676458145815  2.86061865786579
 1 -13.18903868486849 -2.83186443844384  1.25532004100410
 1 -11.67210025802580 -3.15095712371237  0.62061711771177
 1 -12.94699505750575 -2.53542385038504 -0.50248872287229
 1  8.91760358435844 -0.31262958305831  0.52703688768877
 1 -10.19728946094610 -2.05094881888189 -0.77859749274928
 1  10.26946936593659  0.68547864576458 -2.41116581958196
 1  11.87381581658166  1.46924121502150 -2.41164087808781
 1  11.55547978297830 -0.00102058915892 -3.31563869386939
 1 -11.51583259025903  2.03351658065807 -2.45972746574657
 1 -10.07847338633863  0.59129976697670 -2.43197780378038
 1 -10.05935769076908  2.13372198519852 -1.14870846684668
 1  14.95284183718372 -2.80564947004700  0.43997589058906
 1 -15.38757819281928  1.49491440544054  1.28634683968397
 1  10.00859634163416  2.32728603250325 -0.61678099309931
 1 -8.61121781878188  0.51136323432343  0.05158034503450
 1  8.55594845684569  4.25862571547155 -0.65951225422542
 1  7.09448283728373  4.06230163906391  0.56387222022202
 1  8.64910962096210  3.70702358925893  1.42297531553155
 1 -8.19987701770177 -3.34267119621962 -0.31592743174317
 1 -8.31263701970197 -2.73125213931393 -1.98540487048705
 1 -6.80939978897890 -3.14697834993499 -1.35405219721972
 1  6.96487815081508  0.38396213911391 -0.56509990199020
 1 -6.43480374237424  0.46004584448445  0.02133975697570
 1  5.71289067306731  3.07970311821182  0.24230648564856
 1 -4.88299211921192 -2.27475878297830 -0.60437783778378
 1  4.62178527752775  0.25290353625363 -0.36111452245225
 1 -3.96285178917892  0.62584770167017  0.19904270027003
 1  3.26623440844084  3.38279232113211  1.41882808380838
 1  1.65295194819482  3.22181085198520  0.72430483848385
 1  3.27570159215922  3.90265809970997 -0.12075257125713
 1 -2.67615975297530 -3.00496764386439 -0.13123616761676
 1 -2.75759526752675 -2.56068718881888 -1.82207617461746
 1 -1.27379417841784 -2.47661783688369 -0.72862589858986
 1  2.43545070307031 -0.20912956405641 -0.31259916391639
 1 -1.97093649464947  1.05589550745075 -0.00223683668367
 1  0.33602934993499  1.83786649254926  0.25868166316632
 1  0.24819758975898 -1.15382533263326 -0.62885046904691

