%nproc=4
%Mem=2GB
# td=(NStates=1) CAM-B3LYP/6-31G(d,p) 

TD

0 1
 8  14.87054527352735 -1.98047551865187 -0.36787564056406
 8 -14.70396699369937  2.10062191819182  0.73622271627163
 6  11.43927722172217 -1.18584921902190  1.16468982998300
 6 -12.38138577057706 -0.93864642464246  0.70988651065107
 6  12.91872060406041 -1.34165720382038  1.10873844584458
 6 -13.70084269326933 -0.11088724872487  0.72548144414441
 6  13.42900489448945 -1.78290381748175 -0.28284317331733
 6 -13.50571291129113  1.45211800980098  0.87061884588459
 6  10.92375090109011 -0.35399961606161  0.00774652865287
 6 -11.34244134513451 -0.28312934193419 -0.27674842884288
 6  13.10634485348535 -0.71621237833783 -1.28759963296330
 6 -12.70910167016702  1.87635561256126 -0.44610165216522
 6  11.63366811381138 -0.12438281138114 -1.12581109710971
 6 -11.60255384538454  0.86351267426743 -0.89113865286529
 6  11.06295702270227 -0.33291244934493  2.44243468446845
 6  10.75210465146515 -2.65010549164916  1.13540166016602
 6 -11.65996819081908 -0.78878070607061  2.16858543854385
 6 -12.57092779477948 -2.38685412841284  0.43194509850985
 6  9.53136796279628  0.19064010091009  0.09466614661466
 6 -10.11357272427243 -1.05653973897390 -0.50373905490549
 6  11.43801656665667  0.66235069997000 -2.36670087708771
 6 -10.78181062006201  1.42901328532853 -2.07472677967797
 6  9.31379134613461  1.56595003290329 -0.09369474347435
 6 -8.90058054305431 -0.58948250525053 -0.33637468346835
 6  7.95474146014601  2.25790553045305  0.03702937193719
 6 -7.63419856185619 -1.37054138723872 -0.38490382238224
 6  8.04458493949395  3.68876708160816  0.43630499649965
 6 -7.77225833183318 -2.85331507960796 -0.63164333933393
 6  6.83952935993599  1.48247824172417 -0.02841284728473
 6 -6.45042684568457 -0.62944841994199 -0.31656466246625
 6  5.54867541954195  1.99821752865287  0.12338725472547
 6 -5.14018514051405 -1.15634551065106 -0.46673884788479
 6  4.49833376437644  1.22448786268627  0.06404077507751
 6 -4.00601602160216 -0.43716992309231 -0.24134146414641
 6  3.03188579357936  1.62929352725273  0.16507817281728
 6 -2.63960772477248 -0.86986131623162 -0.36167382738274
 6  2.90030031103110  3.12639208810881  0.53767647664766
 6 -2.34004949894990 -2.30105740784078 -0.69678071807181
 6  2.13858343334333  0.69281644554455 -0.08058718371837
 6 -1.60890221322132  0.06546625252525 -0.24501632863286
 6  0.69978714771477  0.84682945084508 -0.17810193019302
 6 -0.20336920592059 -0.19280138523852 -0.19994763476348
 1  13.24835410741074 -0.27333076817682  1.45299013701370
 1  13.23487872387239 -2.19580016111611  1.72116224822482
 1 -14.23076585358536 -0.31705186218622  1.70118732473247
 1 -14.50216158315832 -0.18083500650065 -0.17604922492249
 1  12.86592179417942 -2.58555329842984 -0.57870593559356
 1 -13.11177663866387  1.59561407940794  1.70865033803380
 1  13.72719365136514  0.09721700160016 -1.19847573157316
 1  13.30534202720272 -1.15009723682368 -2.19589026502650
 1 -13.35686123012301  2.12012333333333 -1.48100603360336
 1 -12.32444105110511  2.84687675167517  0.02747586458646
 1  11.59738835883588 -0.76522724882488  3.21077573857386
 1  9.88196406140614 -0.49415892599260  2.48157703870387
 1  11.29755902590259  0.78953868676868  2.52078121312131
 1  11.05457446044604 -3.29040962106211  0.13871925792579
 1  10.96081699869987 -3.23703862096210  2.12011193519352
 1  9.66216221722172 -2.71732272537254  1.12192713571357
 1 -11.69772667266727  0.32048761976198  2.38469236223622
 1 -10.42893740274027 -0.90323747874787  2.10019602360236
 1 -12.17409856885689 -1.56377728272827  2.69597219321932
 1 -13.39378915991599 -2.87750900290029  0.98292280128013
 1 -11.49242229022902 -3.03301532953295  0.55121017701770
 1 -13.03131348934894 -2.55499580758076 -0.65585405940594
 1  8.73427525152515 -0.48277659775978  0.61590577457746
 1 -10.26396612861286 -2.22365608960896 -0.53540317331733
 1  10.23353577257726  1.08166826472647 -2.39726442944294
 1  12.09460789578958  1.64507879877988 -2.49982969696970
 1  11.53200743574357 -0.01431191829183 -3.28876600660066
 1 -11.40474148114811  1.76471970097010 -2.75457695069507
 1 -10.11012655165517  0.68210884788479 -2.47132173817382
 1 -10.10516227122712  2.04744335733573 -1.59074267026703
 1  15.29734628762876 -2.61983088818882  0.33036492949295
 1 -15.38509794479448  1.89623453745375  1.48811701670167
 1  10.23248873087309  2.29236254015402 -0.18888820382038
 1 -8.64282097909791  0.38243034103410  0.00878606560656
 1  8.59608247024702  4.23840369326933 -0.30690699369937
 1  7.15544893389339  4.37547295619562  0.54592042504250
 1  8.60400511051105  3.87676056295629  1.37844086208621
 1 -8.12268929892989 -3.45862279137914  0.17935209620962
 1 -8.23113886988699 -3.15584459855986 -1.52123845384538
 1 -6.67254610361036 -3.29758341044104 -0.61637842984298
 1  6.68202986598660  0.30316405930593 -0.13606699869987
 1 -6.60899116111611  0.53500334023402 -0.04366674367437
 1  5.50908029202920  3.20453560146015  0.37339959495950
 1 -4.92713653365337 -2.20574188128813 -0.75323272327233
 1  4.70331343034303  0.04627287318732 -0.21099951095109
 1 -4.14799030303030  0.67413253015302 -0.06751395539554
 1  3.18357614261426  3.13113715561556  1.66171237223722
 1  1.89190584358436  3.29127779867987  0.48427083508351
 1  3.34328835083508  3.89732756665667  0.15199470347035
 1 -2.92688482548255 -2.83728087518752 -0.15124816881688
 1 -2.85853536153615 -2.31831295139514 -1.68240220722072
 1 -1.44267106610661 -2.52684285938594 -0.78406144214421
 1  2.54477163516352 -0.35290394149415 -0.31506941094109
 1 -1.91452085308531  1.10043996189619 -0.10884749774977
 1  0.28051379837984  1.91742444834484 -0.10482468746875
 1  0.10617338733873 -1.33480343044304 -0.04775235923592

