%nproc=4
%Mem=2GB
# td=(NStates=1) CAM-B3LYP/6-31G(d,p) 

TD

0 1
 8  14.95856407540754 -2.00184765586559 -0.42413126612661
 8 -14.78505510251025  2.02560441644164  0.57931702570257
 6  11.51330462446245 -0.93990462456246  1.26563992499250
 6 -12.34131176317632 -0.80958351835183  0.76350187218722
 6  13.07914664666467 -1.25196823492349  1.04026159815982
 6 -13.74956756575657 -0.08610477047705  0.77292618861886
 6  13.46311830583058 -1.82328785588559 -0.31336622562256
 6 -13.54736707670767  1.37674047204720  0.77107889188919
 6  10.91829035503550 -0.27714193029303 -0.02069631563156
 6 -11.38232533353335 -0.17308833783378 -0.17497825182518
 6  13.07867208620862 -0.78042879998000 -1.32733360636064
 6 -12.72197295729573  1.83247122412241 -0.49182622462246
 6  11.63595834283428 -0.34905527862786 -1.23764228022802
 6 -11.50349393939394  1.00189651265127 -0.75168470747075
 6  11.29445017201720 -0.08462762086209  2.45189563056306
 6  10.87572701370137 -2.38254873597360  1.45645376537654
 6 -11.86976917091709 -0.90404223222322  2.23896247624762
 6 -12.58899960196020 -2.32154759775978  0.42814471847185
 6  9.57086191219122  0.29756079297930  0.11523820382038
 6 -10.16116748374838 -1.01836592159216 -0.44725340634063
 6  11.08411117611761  0.23164762966297 -2.54372857985799
 6 -10.56616905590559  1.57029741374137 -1.80510981798180
 6  9.29522948994899  1.57928136603660 -0.07546292029203
 6 -8.82239272427243 -0.60456401340134 -0.22786383238324
 6  7.94604059005901  2.31061080098010  0.16529219821982
 6 -7.58481362336234 -1.36810114321432 -0.49065439743974
 6  7.95939642064207  3.65224342924292  0.64002536853685
 6 -7.76191729772977 -2.78645839393939 -1.02415259025903
 6  6.80496590359036  1.40389038293829 -0.06927693369337
 6 -6.43134493749375 -0.70043551865187 -0.26217922392239
 6  5.52224277627763  1.96945465236524  0.09420433643364
 6 -5.10860198219822 -1.22874275037504 -0.43471564556456
 6  4.48083201420142  1.15845125902590 -0.04579020802080
 6 -3.96669208920892 -0.42983919001900 -0.30379770977098
 6  3.04641724672467  1.55064566246625  0.11213287828783
 6 -2.63881764576458 -0.77119144924492 -0.42095975597560
 6  2.79428970997100  2.90508995789579  0.63811652065207
 6 -2.36376187018702 -2.25929323142314 -0.87612865286529
 6  2.18496807180718  0.59419658355836 -0.10888001300130
 6 -1.63424474747475  0.10998070397040 -0.16756858385839
 6  0.68865603460346  0.76900166806681 -0.15055917591759
 6 -0.30697956695670 -0.15208731383138 -0.19688732873287
 1  13.71126039803980 -0.16565000010001  1.06955179317932
 1  13.46984222022202 -1.83914449554956  1.90290042204220
 1 -14.29289206620662 -0.54933509050905  1.54909211521152
 1 -14.22597396439644 -0.41120804380438 -0.22814443444344
 1  13.04938014001400 -2.86376111921192 -0.74858292329233
 1 -13.08469393039304  1.92759727772777  1.72545201820182
 1  13.86185711771177  0.15613289318932 -1.27710359435944
 1  13.26772826582658 -1.04960718781878 -2.33627430343034
 1 -13.51060660466047  1.65629695069507 -1.24699263226323
 1 -12.58763737073707  3.01495355935594 -0.56131301430143
 1  11.58040666066607 -0.62098282438244  3.30421508250825
 1  10.20240610561056  0.06345683558356  2.71914079507951
 1  11.96190546054605  0.88801853475348  2.63723285828583
 1  11.05429443244324 -2.89683026312631  0.65662104810481
 1  11.51760267726773 -3.00907582468247  2.23457338133813
 1  9.77161316231623 -2.36399739283928  1.93671861486149
 1 -11.62804970497050 -0.02214664366437  2.75846973997400
 1 -10.69003351235123 -1.40763791879188  2.38602460646065
 1 -12.41923308230823 -1.66620752575257  3.12923551955196
 1 -13.52478225922592 -2.70530178217822  1.04363887288729
 1 -11.73032608060806 -2.80688271627163  0.72282733873387
 1 -12.78751910991099 -2.56765707370737 -0.57990646464646
 1  8.75421724572457 -0.56802512261226  0.54501868586859
 1 -10.17083681568157 -2.07646137013701 -0.70401003400340
 1  10.09952237123712  0.68045814371437 -2.34642934593459
 1  11.73173160816082  0.95624991589159 -2.88334804880488
 1  10.86963119811981 -0.58006849394939 -3.49775690569057
 1 -11.17692869986999  2.07050027902790 -2.59464095709571
 1 -9.75700123912391  0.85514615161516 -2.05993059905991
 1 -10.04649640464046  2.53283189618962 -1.31876547254726
 1  14.97960451345135 -2.62394129922992  0.32888478147815
 1 -15.46071550655065  1.49530444444444  1.14609281428143
 1  10.02551803380338  2.27136043994399 -0.52868218321832
 1 -8.76194289128913  0.49498159615962  0.12036722372237
 1  8.75453831583158  4.43994384728473  0.27135083208321
 1  7.02996638563856  4.23357876677668  0.56000183318332
 1  8.27302201220122  3.61494438133813  1.62727574557456
 1 -8.60879790979098 -3.42039896899690 -0.59493533253325
 1 -7.97330308630863 -2.79447846194619 -2.08287461746175
 1 -6.82936178517852 -3.29425307740774 -0.92594938693869
 1  7.04766642964296  0.38491223412341 -0.55537892989299
 1 -6.31678194019402  0.19194903480348  0.14715233823382
 1  5.38846823082308  2.99907505540554  0.40637289228923
 1 -5.06939075907591 -2.19435074217422 -0.86616401640164
 1  4.32732583158316  0.04675292119212 -0.23703211421142
 1 -4.34630013401340  0.44308942584258  0.21188398439844
 1  3.32775056005601  3.44075811771177  1.50481668266827
 1  1.77866451945195  3.19737840874087  0.86904931293129
 1  2.90494451645165  3.75125295919592 -0.16380687668767
 1 -2.87499963696370 -3.21366851395140 -0.53766681068107
 1 -2.68214772277228 -2.42597371747175 -2.03274724172417
 1 -1.33996079507951 -2.49259943504350 -0.98394143014301
 1  2.33639079707971 -0.48099675077508 -0.33483138713871
 1 -2.00188958995900  1.16411632953295  0.04659804680468
 1  0.19641538853885  1.89614232013201 -0.11015522052205
 1  0.14824759475948 -1.18040799089909 -0.30849843384338

