%nproc=4
%Mem=2GB
# td=(NStates=1) CAM-B3LYP/6-31G(d,p) 

TD

0 1
 8  14.73007122612261 -2.10537800890089 -0.19665851885189
 8 -14.79266586358636  1.78451030703070  1.01458055205521
 6  11.35982927692769 -1.29008964306431  1.18672203320332
 6 -12.27846547854785 -1.00758331833183  0.89845536753675
 6  12.86825555755576 -1.56612965106511  1.19491706370637
 6 -13.63886649564956 -0.28574473447345  0.91283017901790
 6  13.30829282328233 -1.97656318341834 -0.22494738373837
 6 -13.49612195219522  1.16077887588759  0.84333611761176
 6  10.87522604860486 -0.50857507360736 -0.06417066306631
 6 -11.31431853285329 -0.32716374537454 -0.20776153015302
 6  13.09323354235423 -0.97197795489549 -1.21865273827383
 6 -12.87557831783178  1.52254023102310 -0.49653669566957
 6  11.63378812581258 -0.42313268636864 -1.07132564856486
 6 -11.67625121512151  0.73437976097610 -0.88491803080308
 6  11.06557728472847 -0.48191734983498  2.50445088608861
 6  10.58930837183718 -2.58362884398440  1.40086820682068
 6 -11.59643183718372 -0.84726655465547  2.30157873787379
 6 -12.47493819581958 -2.45500094309431  0.51638354235424
 6  9.59534436043604  0.31763280018002  0.26394307430743
 6 -10.01151251825183 -1.10535462046205 -0.37250593159316
 6  11.28299106410641  0.45301976687669 -2.30044425142514
 6 -10.84274671367137  1.38798918291829 -1.96709601660166
 6  9.36098606560656  1.61329476737674 -0.12810818481848
 6 -8.79413989898990 -0.56050960796080 -0.31113215921592
 6  8.12532851885188  2.29131887178718 -0.03935826682668
 6 -7.56284142614261 -1.24263859695970 -0.53201853385339
 6  8.16742722372237  3.76225443034303  0.49258062406241
 6 -7.64444555055506 -2.70967071517152 -0.79144931993199
 6  6.91970737773777  1.60873086698670 -0.11288129412941
 6 -6.41493329632963 -0.45311078617862 -0.40775378137814
 6  5.53917446944694  2.05558326522652  0.01108602460246
 6 -5.07410853285328 -0.94840471657166 -0.74977715171517
 6  4.44714864586459  1.31760717461746 -0.17511314031403
 6 -3.98350377037704 -0.23442964906491 -0.43492082208221
 6  3.03263586858686  1.78798939683968  0.09081074607461
 6 -2.55577934193419 -0.64341867196720 -0.52671033103310
 6  2.84493477447745  3.19568901780178  0.56400910991099
 6 -2.23292878687869 -2.09408671077108 -0.91333237323732
 6  2.09556913191319  1.02466963086309 -0.13704282928293
 6 -1.59585090809081  0.33389309520952 -0.36017784478448
 6  0.56551372037204  1.28756352425243 -0.12481660166017
 6 -0.20582945194519  0.16539443434343 -0.41045868586859
 1  13.41464073607361 -0.55232866796680  1.38622346034603
 1  13.11637687368737 -2.40670125122512  1.94064419641964
 1 -14.08411118811881 -0.57509766676668  1.91227843384338
 1 -14.32130349734974 -0.72139906290629  0.06735511551155
 1  12.74319952195220 -2.97236197929793 -0.51142920792079
 1 -12.76237169816982  1.50537505550555  1.42729220222022
 1  13.72053298529853 -0.21316403650365 -1.10003588758876
 1  13.26857835083508 -1.27925015211521 -2.16261693769377
 1 -13.55418096209621  1.29189051005100 -1.36462439543954
 1 -12.82956156315632  2.64553661766177 -0.48658554155416
 1  11.42211083108311 -1.03187391349135  3.34871953295330
 1  9.97330319531953 -0.32182169226923  2.61586046704670
 1  11.51007027702770  0.51800153305331  2.34174330933093
 1  10.57229623262326 -3.21751233133313  0.41003638963896
 1  10.97087800480048 -3.10451536863686  2.37048697269727
 1  9.42097809880988 -2.37687868096810  1.30458540154015
 1 -11.55063196319632  0.24061963296330  2.76641053405341
 1 -10.58282279127913 -1.31651880688069  1.99930593459346
 1 -12.14878603760376 -1.50517142214221  2.98446104210421
 1 -13.36604638563856 -2.95369662166217  1.26953146214621
 1 -11.52414546254625 -2.97612964096410  0.69382443844384
 1 -12.97656801480148 -2.57622793079308 -0.57839631363136
 1  8.73588541254125 -0.27556587668767  0.75488967296730
 1 -9.95654538653866 -2.04722844684468 -0.55313494649465
 1  10.37882030103010  0.86480657855786 -2.47575227822782
 1  12.04224265926593  1.34289858075808 -2.52670238423842
 1  11.48698293329333 -0.12623311041104 -3.07560469046905
 1 -11.70057106410641  1.81092432143214 -2.81730322332233
 1 -10.14880041904190  0.67107774477448 -2.63250785678568
 1 -10.19530128512851  2.38484709770977 -1.44773836983698
 1  14.82668922192219 -2.42088099319932  0.67583947694769
 1 -15.00716015101510  1.57250216421642  1.97995620062006
 1  10.03118860086009  2.23659696359636 -0.70796011101110
 1 -8.85486218321832  0.58282038003800 -0.21609642264226
 1  9.16318918091809  4.19721957485749 -0.10048635163516
 1  7.18824221322132  4.39063447234723 -0.06354052105211
 1  8.29933464346434  4.10235312221222  1.51194421242124
 1 -8.19939696969697 -2.98025495459546 -0.14586042504250
 1 -8.13153890989099 -2.93933294739474 -1.72140847084708
 1 -6.64783363236324 -3.14387803990399 -0.80098689068907
 1  6.79974163716372  0.44187793069307 -0.35060845284528
 1 -6.38917917991799  0.48405824572457  0.19850747374737
 1  5.48863824782478  3.12851799969997  0.59913216821682
 1 -4.94493831383138 -2.00141144824482 -1.19111651165116
 1  4.58630172917292  0.33916216211621 -0.74080249124913
 1 -4.12665816981698  0.74994011091109 -0.07645484948495
 1  2.99346713171317  3.29680372227223  1.62619882088209
 1  1.68443509650965  3.43464213511351  0.55159756775678
 1  3.44635865786579  3.88999683358336 -0.20532102810281
 1 -2.65707784478448 -2.71995914301430 -0.03494653865387
 1 -2.96338584658466 -2.44545566566657 -1.81737570457046
 1 -1.24790158915892 -2.13141331643164 -1.24612764876488
 1  2.22714987298730 -0.16725537663766 -0.48262616661666
 1 -1.93802320332033  1.27718763666367 -0.07180379337934
 1  0.36344209120912  2.11146385228523  0.03042883788379
 1  0.20158292829283 -0.84237418751875 -0.55865344934493

