%nproc=4
%Mem=2GB
# td=(NStates=1) CAM-B3LYP/6-31G(d,p) 

TD

0 1
 8  14.85466368536854 -2.05959343044304 -0.73392224522452
 8 -14.77039363636364  2.05581743774377  0.57812690669067
 6  11.72695598959896 -0.95866650075007  1.19631299229923
 6 -12.44607223922392 -0.86571913191319  0.62572809480948
 6  13.24333306530653 -1.28342138023802  0.95289286128613
 6 -13.87770037903790 -0.18169432943294  0.62685158115812
 6  13.56640863486349 -1.81285681278128 -0.43700858985899
 6 -13.53857619761976  1.35777857585759  0.67556934093409
 6  11.11511003700370 -0.26097031313131 -0.02786703270327
 6 -11.41045814681468 -0.23205423442344 -0.27363811781178
 6  13.01270548954895 -0.84636539363936 -1.51692256525653
 6 -12.80566132613261  1.74506248324832 -0.55985302730273
 6  11.60331507850785 -0.16795716881688 -1.20248876487649
 6 -11.61990558055806  0.92808913191319 -0.88328786778678
 6  11.61446217321732 -0.08833799189919  2.43519396039604
 6  10.99668910991099 -2.27288776987699  1.50731885188519
 6 -11.94878707270727 -0.82552438043804  2.07829640964096
 6 -12.74573527552755 -2.33446888988899  0.18955085908591
 6  9.81664649064906  0.31215225212521  0.32681936193619
 6 -10.14994636163616 -1.04388847384738 -0.42662134313431
 6  10.99352211721172  0.33712817771777 -2.52369657665767
 6 -10.63842628162816  1.49438982298230 -1.85973528052805
 6  9.38422838983898  1.56723016091609 -0.07400277427743
 6 -8.88927941294129 -0.59877343434343 -0.25604665066507
 6  7.99248523452345  2.21098083798380  0.23510917991799
 6 -7.67323246524652 -1.19614394749475 -0.56591192319232
 6  8.05708618961896  3.61667987288729  0.32753411941194
 6 -7.79780088608861 -2.77029677777778 -0.80902107710771
 6  6.92502790979098  1.41309130303030  0.01197119111911
 6 -6.50946274927493 -0.65590106520652 -0.29589259525953
 6  5.53959451145115  1.91355906280628  0.21528644464446
 6 -5.11645276727673 -1.12035191129113 -0.25035720972097
 6  4.48967289828983  1.14812022592259 -0.01965759475948
 6 -4.04699011901190 -0.40488669476948 -0.16479380938094
 6  3.08223082808281  1.53894449234923  0.26297796279628
 6 -2.69988375237524 -0.85525985608561 -0.18911657165717
 6  2.69325960696070  2.90328977787779  0.73363607260726
 6 -2.40389588358836 -2.31182848494849 -0.54558559855986
 6  2.06421599659966  0.46154331823182  0.11408228322832
 6 -1.72553387638764  0.12055176107611 -0.07774960196020
 6  0.70460762976298  0.87467223512351  0.16140202020202
 6 -0.27805667466747 -0.07818992409241 -0.15184282428243
 1  13.75987525952595 -0.39913334843484  1.26900173817382
 1  13.46872210821082 -2.06517709880988  1.64621475347535
 1 -14.37963074007401 -0.43118327532753  1.47370457645765
 1 -14.38403977097710 -0.25413233623362 -0.42101372137214
 1  13.05054025602560 -2.95973071617162 -0.49335740074007
 1 -12.96282174317432  1.73901841984198  1.29496896989699
 1  13.79977090909091  0.04015129502950 -1.59296518051805
 1  12.97397889088909 -1.34518674577458 -2.48919959595960
 1 -13.53508905290529  1.73700502150215 -1.38880681368137
 1 -12.40252885988599  2.70531259525953 -0.46247313031303
 1  12.27992661266127 -0.38241896799680  3.37176183718372
 1  10.74688055305531 -0.23042255235524  3.09214809580958
 1  11.86249551955195  1.04594432733273  2.29311844684469
 1  11.31580058305831 -3.17218779887989  0.80357574357436
 1  11.21364228122812 -2.75089000610061  2.62497242124212
 1  9.88206420742074 -2.36095708880888  1.50023496649665
 1 -11.74751165116512  0.15394096509651  2.28466235923592
 1 -10.91011552055206 -1.28974612961296  2.22219822382238
 1 -12.72717387638764 -1.40486139113911  2.83764636063606
 1 -13.58548832983298 -2.60848210021002  0.92977748674867
 1 -12.07517056505650 -3.02678470647065  0.40802585858586
 1 -13.20721107910791 -2.27977828582858 -0.78013648764876
 1  9.17266909090909 -0.21950027012701  0.97927211121112
 1 -10.30088982098210 -2.10118384238424 -0.85877551055105
 1  9.90531295029503  0.53306340424042 -2.89919462246225
 1  11.29387782278228  1.42708699959996 -2.91425113911391
 1  11.30799503450345 -0.23461394849485 -3.58332546254625
 1 -11.13285429242924  2.26854008300830 -2.69395088808881
 1 -9.97339287828783  0.60966160316032 -2.42566717271727
 1 -9.90170192519252  2.14891350435044 -1.31173476947695
 1  15.14507106010601 -3.12093099819982 -0.26057416441644
 1 -15.46109554455446  1.83465837983798  1.31431963696370
 1  10.18745422742274  2.19829313321332 -0.70344965996600
 1 -8.73015971297130  0.52126422442244  0.04526971397140
 1  8.51434429642964  4.23790364326433 -0.38309461246125
 1  7.08465185418542  4.22008741764176  0.28350418341834
 1  8.39113382338234  3.96027891479148  1.43406642464246
 1 -8.70536756675667 -3.19933686278628 -0.15775161416142
 1 -8.10032578857886 -2.81165017911791 -1.91468779877988
 1 -6.83980282928293 -3.03218687078708 -0.64279107110711
 1  7.15126678967897  0.52791653455346 -0.30395378737874
 1 -6.44821508350835  0.58111795169517 -0.12579495649565
 1  5.55793517751775  2.99118426632663  0.57560981598160
 1 -4.99843366336634 -2.16779808690869 -0.60363776377638
 1  4.78631173017302  0.12219046494649 -0.39204761576158
 1 -4.07018252225223  0.58287340424042  0.09725252125212
 1  3.61737952295229  3.28238228012801  1.45176137713771
 1  1.66296294929493  2.97254592549255  1.12997540554055
 1  2.77553157515751  3.53160099399940 -0.28232872887289
 1 -2.94313645064507 -3.04549169626963  0.02744970097010
 1 -2.69612912091209 -2.35885700580058 -1.49282324932493
 1 -1.36714351335133 -2.61510168526853 -0.57236027202720
 1  2.41612877087709 -0.41170982208221 -0.32824072807281
 1 -2.29489889088909  1.14433435133513  0.10044343134313
 1  0.40543629062906  1.78044074997500  0.63236903190319
 1  0.17188995899590 -1.14431438153815 -0.20949853385338

