%nproc=4
%Mem=2GB
# td=(NStates=1) CAM-B3LYP/6-31G(d,p) 

TD

0 1
 8  14.62375059405941 -2.38463593469347 -0.49846869986999
 8 -14.77663426042604  2.16377823382338  0.81147024102410
 6  11.59170246424642 -0.95075570967097  1.27072043304330
 6 -12.35972360436044 -0.95230779077908  0.80757627962796
 6  13.08078681068107 -1.44920795889589  1.01647921992199
 6 -13.57520012901290 -0.13958011801180  0.82575147114711
 6  13.32753474747475 -1.91641716881688 -0.34702959195920
 6 -13.48314065406541  1.42703550155016  0.79518130213021
 6  10.97319584558456 -0.27037125322532 -0.01886613261326
 6 -11.41494859585958 -0.27127815681568 -0.18288904290429
 6  12.90413463246325 -0.92034279137914 -1.42757363036304
 6 -12.83798455845585  1.80563854085409 -0.52518956095610
 6  11.59413416041604 -0.26690706380638 -1.15124364036404
 6 -11.60821441144114  0.87606392939294 -0.80841038003800
 6  11.51237196419642 -0.04798395649565  2.49394983598360
 6  10.73011245224522 -2.11192167326733  1.47907602760276
 6 -11.74371656565656 -0.99536136413641  2.27929650965097
 6 -12.69956065806581 -2.30956639963996  0.27209911391139
 6  9.73680850685069  0.41291232813281  0.30994767476748
 6 -10.12934430143014 -1.10545463046305 -0.49596827782778
 6  11.13027579257926  0.37641210611061 -2.47325153215322
 6 -10.71230366936694  1.44448483248325 -1.86196550355036
 6  9.35901586858686  1.65701913981398 -0.01694706870687
 6 -8.92888337333733 -0.62500605760576 -0.32760380638064
 6  7.98996498249825  2.30467020692069  0.15840150915092
 6 -7.61447658965897 -1.30889522262226 -0.60238557055706
 6  7.98471895289529  3.72664086898690  0.39894126012601
 6 -7.57964907090709 -2.74691443954395 -0.86510668566857
 6  6.83285869286929  1.57015700960096 -0.00806081208121
 6 -6.40944274727473 -0.60044551965197 -0.43701670767077
 6  5.50067061906191  2.03128083498350  0.15667058305831
 6 -5.02592371437144 -1.18419829592959 -0.48823099709971
 6  4.49708363936394  1.27179259315932 -0.00287591659166
 6 -3.96987240724072 -0.34344055015502 -0.35050238023802
 6  3.00188279327933  1.50708130603060  0.17935960096010
 6 -2.54619838383838 -0.86654098419842 -0.43592125212521
 6  2.70093037403740  2.98919836873687  0.60392310131013
 6 -2.18966446044604 -2.26877417951795 -0.98954999499950
 6  2.10284985998600  0.73056021992199  0.06003687868787
 6 -1.62127345034503  0.00950065596560 -0.18845067206721
 6  0.65781295029503  0.78071283918392  0.02005788578858
 6 -0.19803867286729 -0.22952505760576 -0.24976261626163
 1  13.72551182318232 -0.62819625472547  1.10212505050505
 1  13.34004924092409 -1.93653423452345  1.93522365436544
 1 -14.36142891989199 -0.32572272927293  1.73314052005201
 1 -14.27037840484049 -0.33448037103710 -0.04421604160416
 1  12.60018522052205 -2.80599534263426 -0.65796386138614
 1 -12.80833629462946  1.81598611661166  1.46897637063706
 1  13.63983491549155 -0.15693841394139 -1.30716660066007
 1  12.88295978897890 -1.49709193629363 -2.35908658465847
 1 -13.65166071007101  1.57232855385539 -1.29492742574257
 1 -12.49700830783078  2.65013707770777 -0.61050793379338
 1  11.80544916491649 -0.64350507660766  3.46671133213321
 1  10.44955082008201  0.41994248414841  2.75786466746675
 1  12.26241551155115  0.78914864776478  2.37608674367437
 1  10.42642164516452 -2.85105568566857  0.59611499749975
 1  11.28918983598360 -2.71405632273227  2.41635155915592
 1  9.82195819681968 -1.91641263436344  1.93648859185919
 1 -11.61089798979898  0.19058462946295  2.71589548254825
 1 -10.58398290729073 -1.36593374837484  2.00286629062906
 1 -12.15298645764577 -1.60488139313931  3.13884648064806
 1 -13.67359714071407 -2.65507675967597  0.60160466946695
 1 -11.77518056605660 -3.05453748174818  0.30099515551555
 1 -13.00523088108811 -2.19098940694069 -0.81006948094809
 1  9.01152297629763 -0.07327564766477  0.97842202620262
 1 -10.32765249724973 -2.11690541454145 -0.89685931893189
 1  10.19263168216822  0.78583868176818 -2.39902460546055
 1  11.87077551255126  1.12955724662466 -2.93729344334433
 1  11.03201743674368 -0.40917140424042 -3.36761389138914
 1 -11.35669667666767  1.71960518951895 -2.74129562256226
 1 -9.85208074707471  0.69340997799780 -2.29747435343534
 1 -10.11915367036704  2.21419003200320 -1.51861545754575
 1  14.62016856985699 -3.14571347644764  0.11528342134213
 1 -15.13666310131013  2.11919683368337  1.74068227322732
 1  9.95586106810681  2.29492279617962 -0.62126144114411
 1 -8.76823352035203  0.44248634663466  0.15340052705271
 1  8.36272913491349  4.56275612851285 -0.49559586258626
 1  6.92009539853985  4.08880428932893  0.79595542854285
 1  9.01490620062006  4.01374426132613  1.05130814881488
 1 -8.03313034303430 -3.42421935103510 -0.05285112411241
 1 -8.16325208120812 -2.98462747684769 -1.83533986398640
 1 -6.56060490949095 -3.17998165026503 -1.21277806980698
 1  6.91742340534053  0.52128587148715 -0.13705709770977
 1 -6.59323958595860  0.50175001490149 -0.14284666166617
 1  5.24147353135313  3.01039618751875  0.57671992699270
 1 -5.08902272227223 -2.16393770087009 -0.69627702770277
 1  4.77217031603160  0.25661390729073 -0.33947235823582
 1 -3.87164266826683  0.78881399829983 -0.28946615061506
 1  2.89345713071307  3.32631667356736  1.58509471047105
 1  1.79210586358636  3.24681335223522  0.53609601760176
 1  3.39942396439644  3.47229506340634 -0.12566306230623
 1 -2.54211634863486 -3.02237938503850 -0.17845088908891
 1 -2.93792330033003 -2.33469458955896 -1.79676364336434
 1 -1.18038483748375 -2.56042621772177 -1.24267730373037
 1  2.30196735473547 -0.16769542064206 -0.35299320332033
 1 -1.96873627462746  0.93492341024102  0.31672505950595
 1  0.16727247424742  1.63451615751575  0.36831262626263
 1  0.27151992199220 -1.21319126922692 -0.46100368436844

