%nproc=4
%Mem=2GB
# td=(NStates=1) CAM-B3LYP/6-31G(d,p) 

TD

0 1
 8  14.59679789878988 -2.23066053715372 -0.31625047804780
 8 -14.72108870587059  1.93026488248825  0.71361045504550
 6  11.30736403040304 -1.21334196829683  1.22275563656366
 6 -12.26798443044304 -0.99847240724072  0.77721324332433
 6  12.83838257025703 -1.52162520062006  1.08529610161016
 6 -13.66012862186219 -0.17574373437344  0.61675057105711
 6  13.24369636363636 -2.02890841794179 -0.27822271127113
 6 -13.43357569756976  1.36734953295330  0.70779256325633
 6  10.86567509350935 -0.34128834493449 -0.08387263326333
 6 -11.27632473347335 -0.27183821282128 -0.11654240824082
 6  12.98541276027603 -0.98263902100210 -1.25987686068607
 6 -12.72198295829583  1.64559253625363 -0.52711975397540
 6  11.63679842684268 -0.22394276737674 -1.07208572457246
 6 -11.48092168216822  0.85882220522052 -0.67285682468247
 6  11.10002072907291 -0.40497965606561  2.41148158915892
 6  10.57643708470847 -2.44574505560556  1.30464858485849
 6 -11.70355254925492 -1.02058388638864  2.25895447544754
 6 -12.55415611761176 -2.43586902990299  0.42328423242324
 6  9.57044187018702  0.48309934683468  0.20786746674667
 6 -10.00349171617162 -1.11717580258026 -0.27950663166317
 6  11.12684544954495  0.34892935783578 -2.39295350235024
 6 -10.66444888388839  1.35524590859086 -1.83607291429143
 6  9.38693866086609  1.68581201910191 -0.13803917791779
 6 -8.82905339033903 -0.55832938993899 -0.17589863586359
 6  8.10262624862486  2.34089382928293  0.02931860086009
 6 -7.58903404540454 -1.33482781588159 -0.42035736773677
 6  8.18847932893289  3.86367457235724  0.39197056305631
 6 -7.65996710271027 -2.77943769186919 -0.75100527552755
 6  6.89770517751775  1.69863985788579 -0.02185219121912
 6 -6.38860066306631 -0.62259773487349 -0.30513351935194
 6  5.45766631863186  2.13800150705071  0.18700361636164
 6 -5.05761688368837 -1.03854373047305 -0.46022819681968
 6  4.46393032403240  1.33492890679068  0.03067743874387
 6 -3.97246266626663 -0.29663586968697 -0.37351468146815
 6  3.08424102910291  1.72359295719572  0.27326899189919
 6 -2.59615337933793 -0.66275060516052 -0.58507616761676
 6  2.78235851685168  3.07932738163816  0.62177488648865
 6 -2.39294478847885 -2.17486478857886 -1.00995203520352
 6  2.20452002700270  0.78205536943694 -0.13251237623762
 6 -1.59438076107611  0.22023172907291 -0.37115894289429
 6  0.71872904190419  0.93077784568457  0.00656653665367
 6 -0.13793266226623  0.02255014991499 -0.49348698869887
 1  13.43114238623862 -0.52927636273627  1.38328316631663
 1  13.18039327532753 -2.31823240434043  1.74267439943994
 1 -14.42173495049505 -0.61869202620262  1.30591779777978
 1 -14.02400376737674 -0.23008993199320 -0.40699231923192
 1  12.66072127412741 -2.80665540864086 -0.55882394739474
 1 -12.84026948794879  1.60908542654265  1.60037951095110
 1  13.64242517451745 -0.17284000410041 -1.35952183618362
 1  13.14888638163816 -1.26648887598760 -2.36696737273727
 1 -13.42953849784979  1.49440076107611 -1.42900083308331
 1 -12.54792339933993  2.68820088408841 -0.63444032703270
 1  11.40558917891789 -0.80410113621362  3.49922458345835
 1  10.07167303230323 -0.13363287338734  2.73800268126813
 1  11.63073234323432  0.57544727762776  2.30365950095010
 1  10.67487649064906 -3.09277985808581  0.54194958095810
 1  10.90744166116612 -2.71137605470547  2.37663758775878
 1  9.55859186018602 -2.27767876097610  1.38044298729873
 1 -11.76691359135913  0.10449602060206  2.69114300730073
 1 -10.70185469446945 -1.32118927392739  2.49749575357536
 1 -12.44661582058206 -1.40658156315631  2.93018561456146
 1 -13.33058283928393 -2.86614786678668  1.14094860386039
 1 -11.66769981798180 -3.19113114111411  0.69150420642064
 1 -12.69465982398240 -2.90036034403440 -0.65686416041604
 1  8.78239006300630 -0.03998231833183  0.74483866786679
 1 -10.01489122112211 -1.96108983298330 -0.73391302430243
 1  10.11353377237724  0.55696579447945 -2.36473117611761
 1  11.69215765076508  1.24020831173117 -2.67934764876488
 1  11.17928216321632 -0.31437192429243 -3.20304743474347
 1 -11.28647965496550  1.45365859485949 -2.69177067006701
 1 -9.89493503250325  0.63594423142314 -2.35213981998200
 1 -10.26396815181518  2.38614722772277 -1.62968656465647
 1  14.83263981698170 -3.29049795489549 -0.00271837883788
 1 -15.21545098009801  1.91810672467247  1.68520672567257
 1  10.07171265326533  2.44714801870187 -0.47631694669467
 1 -8.68525522252225  0.39232133013301  0.03027821482148
 1  8.75951881388139  4.39480933383338 -0.39777608060806
 1  7.26025941494149  4.52981839073907  0.05672150515052
 1  8.62551726172617  4.13759664656466  1.38067108510851
 1 -8.33778080808081 -3.33989091819182 -0.22638847784778
 1 -8.27781353735374 -2.91720073417342 -1.62198852885289
 1 -6.76655550455045 -3.46334998709871 -0.63890068206821
 1  6.98595025802580  0.72172591549155 -0.29883327532753
 1 -6.54551481348135  0.52113195309531 -0.19008138513851
 1  5.38879826382638  3.25910105800580  0.57468972397240
 1 -4.99309312931293 -2.00680198729873 -0.85998339833983
 1  4.65999909890989  0.26777502340234 -0.31196960796080
 1 -3.94637014101410  0.71050616751675  0.00129292529253
 1  3.27070485548555  3.53897793969397  1.48948514951495
 1  1.92164881788179  3.34647331823182  0.93437584558456
 1  3.15905992799280  3.79639747364737 -0.00693118911891
 1 -2.87474961196120 -2.83513066016602 -0.39597264126413
 1 -2.90758026602660 -2.34532565266527 -1.91239520652065
 1 -1.42252905190519 -2.51979215431543 -1.07040007600760
 1  2.63687084508451 -0.25837448854885 -0.30517842184218
 1 -1.90415981698170  1.21589150705071 -0.17491410441044
 1  0.32272801980198  1.83824653055306  0.58179397439744
 1  0.27783055305531 -1.06624657475748 -0.87773535753575

