%nproc=4
%Mem=2GB
# td=(NStates=1) CAM-B3LYP/6-31G(d,p) 

TD

0 1
 8  14.61812003100310 -2.34873234433443 -0.39768862186219
 8 -14.75141173817382  1.97315917191719  0.60339943394339
 6  11.42847614161416 -1.13057369146915  1.14973833483348
 6 -12.40276790879088 -0.97107966796680  0.85334085608561
 6  12.93762249424943 -1.47750078817882  0.98750632263226
 6 -13.75412802180218 -0.22033819381938  0.60502939893989
 6  13.28583057705771 -2.06430195729573 -0.38399328832883
 6 -13.55209754975498  1.28639143714371  0.60869265326533
 6  10.90052857885789 -0.28273248934893 -0.01344559055906
 6 -11.34724182518252 -0.32487351635164 -0.12379313331333
 6  12.91618583758376 -0.96755751285129 -1.42734360736074
 6 -12.69396015601560  1.69791776877688 -0.58553559555956
 6  11.55996074307431 -0.26444681778178 -1.16097461346135
 6 -11.53767735773577  0.82065838883888 -0.83212275127513
 6  11.38632935993599 -0.40192935103510  2.50141058205821
 6  10.63971341234123 -2.35300578167817  1.33134125412541
 6 -11.93181537553755 -0.91370319831983  2.26844542454245
 6 -12.58863956595660 -2.44540998399840  0.38218012201220
 6  9.72472729872987  0.40353139003900  0.19994667466747
 6 -10.09312067906791 -1.19045313031303 -0.23525220622062
 6  11.03295606060606  0.35618008290829 -2.45581978897890
 6 -10.62750518951895  1.34338472247225 -1.75038434543454
 6  9.41285125212521  1.67551098899890 -0.00441581558156
 6 -8.78979946494650 -0.56274983198320 -0.23583462946295
 6  8.08923490949095  2.26879661956196  0.16483215221522
 6 -7.52628777077708 -1.34307864096410 -0.33836916891689
 6  8.06931741274128  3.74141234613461  0.60740210621062
 6 -7.52645375137514 -2.82179192729273 -0.55108528352835
 6  6.88131353835383  1.58746874077408  0.05213520752075
 6 -6.36606840984098 -0.53402887798780 -0.42491549754975
 6  5.55051560356036  2.18613632053205  0.24984990099010
 6 -4.99734085608561 -1.04783465956596 -0.52432460646065
 6  4.43944787578758  1.41878729262926  0.04641901290129
 6 -4.01361678167817 -0.20898710481048 -0.43058038803880
 6  3.16416902190219  1.78414901280128  0.11481314631463
 6 -2.61799556355636 -0.66586091619162 -0.49004666466647
 6  2.74182446344634  3.24224367326733  0.48617132613261
 6 -2.44892038603860 -2.10524782688269 -0.96550759075908
 6  2.18358793379338  0.81876904080408 -0.05972509750975
 6 -1.56232755575558  0.16688639453945 -0.17635946294629
 6  0.72853002200220  0.94105887378738 -0.09388350835084
 6 -0.15893476247625  0.02334022892289 -0.28979661966197
 1  13.67364663666367 -0.59126256135614  1.16994183218322
 1  13.50571580758076 -2.18887946904690  1.77173730573057
 1 -14.39773255025503 -0.65429558655866  1.46745395139514
 1 -14.01253262026203 -0.52603952695270 -0.37556917691769
 1  12.79447464946495 -3.10653539663966 -0.69977804280428
 1 -13.07061252225223  1.62430694869487  1.42190166316632
 1  13.68978991099110 -0.25296801690169 -1.50161604560456
 1  12.88439993299330 -1.46534876197620 -2.41748242424242
 1 -13.32582812681268  1.42286360736074 -1.57944587758776
 1 -12.66294490149015  2.71471353535354 -0.26750363336334
 1  11.67835645564556 -1.12749347544754  3.27892255325533
 1  10.39872573757376  0.00418090799080  2.82046092709271
 1  12.17309657965797  0.55319505240524  2.50358949394939
 1  10.66833583658366 -2.87864844494449  0.27627301330133
 1  11.07796871387139 -3.16526144324432  1.92457238123812
 1  9.68548454945495 -2.20501149424942  1.69083402640264
 1 -11.53583048304830  0.21716728772877  2.46692058505851
 1 -11.08100260926093 -1.60495765076508  2.37066307030703
 1 -12.59186034503450 -1.25474637963796  2.93233582958296
 1 -13.60507028802880 -2.99619087108711  0.83282779177918
 1 -11.67236028402840 -3.01247327532753  0.75269032503250
 1 -12.72432279027903 -2.58947925592559 -0.77345581958196
 1  8.90330215421542 -0.32286060616062  0.52454663866387
 1 -10.13253298529853 -2.24260798479848 -0.08712834583458
 1  10.03884630363036  0.72121221912191 -2.15607031003100
 1  11.74361279627963  1.08739303020302 -2.69620933493349
 1  10.96380061506151 -0.43220370747075 -3.19969709970997
 1 -11.29608061506151  1.63820704970497 -2.74443593659366
 1 -10.05906144514451  0.48660929792979 -2.24073867986799
 1 -9.99735149014901  2.10871948494849 -1.32669626562656
 1  14.77936448944894 -3.17233613871387  0.03695558855886
 1 -15.21262069706971  1.63346826082608  1.39392759775978
 1  10.16129161116111  2.44958826272627 -0.35658497349735
 1 -8.84189088608861  0.62950504850485 -0.28342315531553
 1  8.93098596059606  4.36166601950195 -0.04254055705571
 1  7.20024341334133  4.35683109200920  0.12909874287429
 1  8.21725643564356  4.13849673657366  1.82255527352735
 1 -8.15437246724672 -3.24371130023002  0.08363252425243
 1 -8.14412016801680 -3.10493950805080 -1.48626495649565
 1 -6.64412326132613 -3.27532118421842 -0.91709850185019
 1  6.88869053205321  0.43875761866187 -0.14232762476248
 1 -6.55887614961496  0.46394623452345 -0.30070244724472
 1  5.56726611061106  3.34246939483948  0.49767202220222
 1 -5.14996881688169 -2.04529583668367 -0.77061446144614
 1  4.56173927292729  0.32506075197520 -0.19880829182918
 1 -3.96757226122612  0.87869298619862 -0.26555375937594
 1  3.40123790879088  3.69499354125413  1.48639484048405
 1  1.67580423342334  3.18814748564857  0.75803821182118
 1  2.91536555855585  3.87788562246225 -0.41517201320132
 1 -2.69140127712771 -2.88339548664866 -0.25039808380838
 1 -2.97672718071807 -2.24572569266927 -1.89845381238124
 1 -1.39947674667467 -2.29377955305531 -1.33213624962496
 1  2.42715987398740 -0.21422007310731 -0.31535943994399
 1 -2.22441184218422  1.12871278917892  0.30858424542454
 1  0.22524827182718  1.92400510641064  0.17797359235924
 1  0.36341911191119 -1.06301625172517 -0.53527111111111

