%nproc=4
%Mem=2GB
# td=(NStates=1) CAM-B3LYP/6-31G(d,p) 

TD

0 1
 8  14.80982920192019 -2.11937940904090 -0.48672752575258
 8 -14.65809240624062  1.97930978697870  0.59462855685569
 6  11.45311860586059 -1.12154278837884  1.05577893889389
 6 -12.36682431443144 -0.88007056705671  0.75147066906691
 6  13.00231896389639 -1.43262630073007  1.06092366436644
 6 -13.60482309130913 -0.17213337333733  0.82852174817482
 6  13.44317631163116 -1.90917644474447 -0.33521841084108
 6 -13.47094943494349  1.38231102910291  0.58204998899890
 6  10.94917344334434 -0.22310652675268 -0.04657890389039
 6 -11.35439254025403 -0.32099312831283 -0.20953170717072
 6  13.01535575457546 -0.83320407750775 -1.34722559555956
 6 -12.71244200420042  1.70272824982498 -0.66553359535954
 6  11.70867561456146 -0.06294666776678 -1.20961947794780
 6 -11.58029161916192  0.85714203720372 -0.97012655165517
 6  11.36714744174417 -0.33732289038904  2.41481192219222
 6  10.63300274127413 -2.41872235333533  1.17352547254725
 6 -11.74160635463546 -0.88155998399840  2.28260684068407
 6 -12.63745444744475 -2.39764520752075  0.51044294829483
 6  9.66842166816682  0.32405344224422  0.12243892389239
 6 -10.09229059605961 -1.09946403140314 -0.38946762776278
 6  11.19284204920492  0.46182064696470 -2.45587979497950
 6 -10.62111455045505  1.32277266126613 -2.09434874187419
 6  9.35191515851585  1.61302474037404 -0.08245361936194
 6 -8.91733221822182 -0.59806336333633 -0.32469351535154
 6  7.98966495249525  2.19201894179418  0.15907157615762
 6 -7.65591073307331 -1.31278561166117 -0.48687401940194
 6  8.03016349734974  3.56868507340734  0.63383474947495
 6 -7.64766587258726 -2.80150989908991 -0.67481765676568
 6  6.77514292129213  1.43195318921892 -0.01766177217722
 6 -6.46057786078608 -0.53423889898990 -0.41458446444644
 6  5.51109166116612  1.93238094499450  0.21618653465347
 6 -5.08894001600160 -1.08987886398640 -0.38528070207021
 6  4.42876680768077  1.08312372627263  0.13350772177218
 6 -4.00014543454345 -0.29353555965597 -0.19930726072607
 6  3.03846645164516  1.61525212311231  0.33876554155416
 6 -2.65205896989699 -0.68192252235224 -0.38810647064706
 6  2.88399868086809  3.17784723362336  0.45554826382638
 6 -2.34177967196720 -2.14179148124812 -0.74181522152215
 6  2.00109968496850  0.78868603250325  0.01639251425143
 6 -1.67838916191619  0.22736244214421 -0.18710053705371
 6  0.61236840584058  0.94765953385339  0.12480836083608
 6 -0.22377124612461  0.04489238413841 -0.15521316131613
 1  13.47676694869487 -0.61461489658966  1.30388522652265
 1  13.43268850485049 -2.06551713281328  1.71182131413141
 1 -14.23368614561456 -0.35832598959896  1.67228443444344
 1 -14.27328869586959 -0.66999392239224  0.02763114311431
 1  12.83451865386539 -2.94020876397640 -0.47988605360536
 1 -12.88724418541854  1.50665518351835  1.59451892489249
 1  13.69714064606461 -0.00798351845184 -1.34169005300530
 1  13.17651914491449 -1.29279150625062 -2.45870654665467
 1 -13.59912545654565  1.45775709670967 -1.35550348334834
 1 -12.46263487048705  2.63273533753375 -0.60733761676168
 1  12.02743136313631 -1.01101182728273  3.06310097109711
 1  10.25825169016902 -0.09758926902690  2.75928480948095
 1  11.84063333333333  0.55999573247325  2.55733486848685
 1  10.79560856385639 -3.09412999309931  0.36417180318032
 1  10.76072698969897 -2.83499841694169  2.02355227922792
 1  9.51242724372437 -2.08413940704070  1.45414035703570
 1 -11.28605550555055  0.26768233923392  2.57005089808981
 1 -10.87265177417742 -1.56688384338434  2.19283528752875
 1 -12.55761692069207 -1.24606551155116  2.87201979797980
 1 -13.66518629962996 -2.55260651265126  1.16720122912291
 1 -11.91228427642764 -3.17266929492949  0.43607866386639
 1 -13.27337769576958 -2.14178448644864 -0.45960443444344
 1  8.82138396239624 -0.15477379747975  0.52263644764476
 1 -10.14776450845085 -2.08804252825283 -0.55824545754575
 1  10.05907832683268  0.68228832673267 -2.40356505950595
 1  11.78765720072007  1.29440373127313 -2.81082079607961
 1  11.34796903190319 -0.18506899399940 -3.19976710671067
 1 -11.18813982098210  2.22796602560256 -2.64028552155216
 1 -10.03864940394040  0.48764940194019 -2.54616922292229
 1 -9.81659341434144  1.85067368036804 -1.51061465746575
 1  15.18404495749575 -3.02831173627363  0.01520341334133
 1 -15.18284771977198  2.10995590959096  1.48750695569557
 1  10.16758224022402  2.22216552045205 -0.33808312331233
 1 -8.87412410941094  0.63521561956196 -0.13772858585859
 1  8.62356521852185  4.10680053295330 -0.03060936393639
 1  7.02160554955496  4.09588499739974  0.68951478447845
 1  8.46203091309131  3.65281816871687  1.87867088508851
 1 -8.17587461746175 -3.23931086018602  0.08854301530153
 1 -8.26817257325733 -3.22028104220422 -1.65474180418042
 1 -6.72466131513151 -3.25358901100110 -0.69429622162216
 1  6.99528119111911  0.49830357325733 -0.56877026902690
 1 -6.57088735073507  0.45167500740074 -0.12525490249025
 1  5.46838622262226  2.94957010491049  0.51446370137014
 1 -4.91500532053205 -2.20586189328933 -0.34499189918992
 1  4.59136223522352  0.03336158205821 -0.13567197819782
 1 -4.21893739773977  0.76638175507551  0.00470326632663
 1  3.36522430743074  3.52229627152715  1.34993119411941
 1  1.72451910491049  3.39989866076608  0.29345175317532
 1  3.37014103610361  3.62201003490349 -0.57946844284428
 1 -2.89920205720572 -2.92481962906291 -0.12785582958296
 1 -2.59551905990599 -2.44284540464046 -1.58979294629463
 1 -1.18639543854385 -2.45415559065907 -0.64172720872087
 1  2.26124328232823 -0.28897754885489 -0.36569447344734
 1 -2.11919132013201  1.25657557545755 -0.17195380838084
 1  0.03368911591159  1.92729543544354  0.17532332733273
 1  0.04239700970097 -1.06418636873687 -0.51970955495550

