%nproc=4
%Mem=2GB
# td=(NStates=1) CAM-B3LYP/6-31G(d,p) 

TD

0 1
 8  14.75490370937094 -2.20022749384938 -0.35847470047005
 8 -14.73047964496450  1.89666152215222  0.87317641164116
 6  11.55063835783578 -1.08440907500750  1.22073543454345
 6 -12.26029366136614 -0.91826438643864  0.78191371337134
 6  13.03718245024502 -1.44337737583758  1.09479705170517
 6 -13.64150675967597 -0.21359751975198  0.86853574957496
 6  13.38697069106911 -1.93337886498650 -0.24580946994699
 6 -13.51612395239524  1.21643444144414  0.82168395239524
 6  10.98153667966797 -0.29334355045505  0.00874662866287
 6 -11.36910401140114 -0.25995702470247 -0.16486724072407
 6  12.98219243824382 -0.90140089718972 -1.31462233523352
 6 -12.74978573857386  1.69987796479648 -0.51529857185719
 6  11.62319706670667 -0.23024339743974 -1.12948146414641
 6 -11.53281687168717  0.96980330333033 -0.78343788278828
 6  11.37559828682868 -0.16351550965097  2.44700514151415
 6  10.67787722872287 -2.39651013211321  1.47804592459246
 6 -11.59859205320532 -0.87324915291529  2.33525210521052
 6 -12.51957265926593 -2.49825526852685  0.39600150415042
 6  9.62584741074108  0.32020305720572  0.21322800280028
 6 -10.09184055105511 -0.98035212021202 -0.47561624262426
 6  11.13243600860086  0.49705417031703 -2.34722892989299
 6 -10.66058849784979  1.50553093709371 -1.84066337333733
 6  9.40987095409541  1.54899833773377 -0.01932730673067
 6 -8.85523600860086 -0.55820937793779 -0.28358940494049
 6  8.07566355235523  2.22224196409641  0.13576924592459
 6 -7.66208135013501 -1.26997133023302 -0.61698703070307
 6  8.14702518351835  3.66217442234223  0.41133249924992
 6 -7.76749785578558 -2.65625537363736 -1.01435161016102
 6  6.88971437843784  1.46042603650365 -0.03471347734773
 6 -6.47238904190419 -0.69779525462546 -0.43543654965497
 6  5.53869442144214  1.98962666956696  0.09021393739374
 6 -5.12215333733373 -1.11144102020202 -0.58196037003700
 6  4.40552448344834  1.21008642254225 -0.03091872087209
 6 -4.11561698169817 -0.39635584168417 -0.27189451945195
 6  3.05091769676968  1.69608020592059  0.10586225122512
 6 -2.65051881588159 -0.82512684278428 -0.49204686468647
 6  2.84102438343834  3.10703015191519  0.37644035303530
 6 -2.42627812181218 -2.13051035313531 -0.76333737373737
 6  2.00838041304130  0.83594075797580 -0.16437556255626
 6 -1.67315863886389  0.15472517841784 -0.24410623762376
 6  0.57211438043804  1.01169593749375 -0.08842296229623
 6 -0.28325719471947  0.03971186608661 -0.21921956195620
 1  13.56962623462346 -0.53764719981998  1.24610944894489
 1  13.45638087408741 -1.99065964706471  1.80733086508651
 1 -14.17513029002900 -0.70947110411041  1.62363956995700
 1 -14.26961832883288 -0.63703062606261  0.03375175517552
 1  12.80403560556056 -2.90279502260226 -0.48304636963696
 1 -12.97838329932993  1.64019853785379  1.58016748974897
 1  13.88266919891989 -0.39968268836884 -1.33939982398240
 1  12.99676116911691 -1.48343057015701 -2.27922859885989
 1 -13.59757530153015  1.87578889988999 -1.20960889388939
 1 -12.58020662766277  2.72420448444844 -0.33873075607561
 1  11.72637125712571 -0.71925265136514  3.15333999499950
 1  10.32094795979598 -0.00124963506351  2.69777865886589
 1  11.92653192319232  0.80848058095810  2.53803293829383
 1  10.72874187718772 -3.09378995909591  0.69488487448745
 1  11.36620753775378 -2.67104202130213  2.38591851585159
 1  9.66413241424142 -2.15547654075408  1.77680262326233
 1 -11.44320122012201  0.18283385438544  2.74499839283928
 1 -10.68859336833683 -1.48433558855886  2.09283528752875
 1 -12.17908906790679 -1.68420932593259  2.87790038603860
 1 -13.29812959395939 -2.67932918491849  1.05892040104010
 1 -11.84752780078008 -3.17235926392639  0.46513156915692
 1 -13.04543490149015 -2.54187449544954 -0.65920439443944
 1  8.87939976397640 -0.13783210331033  0.68465264926493
 1 -10.29329906190619 -2.04624834883488 -0.76933656665667
 1  10.13713613261326  0.82264236213621 -2.34985968896890
 1  11.67189562456246  1.43590788168817 -2.82186190019002
 1  11.16509074407441 -0.21837232433243 -3.20772790279028
 1 -11.27462846984698  1.75473870287029 -2.77730922392239
 1 -9.88144368336834  0.78773941094109 -2.26951155715572
 1 -9.98259001400140  2.41317993099310 -1.49227282328233
 1  14.99236578957896 -3.00471937703770  0.23673556655666
 1 -15.42660209520952  1.46411132513251  1.44604280928093
 1  10.09794527652765  2.06989029292929 -0.15698501350135
 1 -8.89146584358436  0.36835893389339  0.19937512451245
 1  8.88964182618262  4.17851770467047 -0.49299560256026
 1  7.24090747974798  3.99728513741374  0.73544937793779
 1  8.82681739173917  3.89634252115212  1.34179719771977
 1 -8.39940697069707 -3.30001693079308 -0.41146698569857
 1 -8.30214597059706 -2.87518653275328 -2.03819014901490
 1 -6.77929677867787 -2.99562321442144 -1.10364715671567
 1  6.97306896989699  0.30365410831083 -0.33485687768777
 1 -6.58119838183818  0.31795163506351 -0.22874525152515
 1  5.41206059005901  3.08070321822182  0.20006226122612
 1 -4.94222804280428 -2.15578688578858 -0.90684808480848
 1  4.39210230923092  0.05540378627863 -0.35197360836084
 1 -4.12489799379938  0.71608672557256 -0.27083428742874
 1  3.44631241624162  3.52593663556356  1.31293749474948
 1  1.73088974197420  3.47418608950895  0.58230063806381
 1  3.19927394939494  3.78329616351635 -0.45969646564657
 1 -2.82007414441444 -3.05824297139714 -0.05046809080908
 1 -2.95531503950395 -2.56041716181618 -1.55133910091009
 1 -1.23802060106011 -2.41236141124112 -1.16380941694169
 1  2.40829798779878 -0.14758340944094 -0.30150805480548
 1 -2.19213861486149  1.18772869076908  0.12561594859486
 1  0.33443919091909  2.00550325622562 -0.01560576557656
 1  0.25720849084909 -0.77961791189119 -0.50543812781278

