%nproc=4
%Mem=2GB
# td=(NStates=1) CAM-B3LYP/6-31G(d,p) 

TD

0 1
 8  14.76731495049505 -2.14022149324932 -0.55914476747675
 8 -14.91267786478648  2.05186704270427  0.26245533953395
 6  11.52958625262526 -1.15767640174017  1.14014737573757
 6 -12.33755138713871 -0.78899145914591  0.80802632463246
 6  13.05114384638464 -1.42797583568357  0.89596716871687
 6 -13.75907851685168 -0.15687184718472  0.60802969896990
 6  13.37087908190819 -1.90741626872687 -0.50148503750375
 6 -13.67677001700170  1.44399719771977  0.49443122712271
 6  11.00112863886389 -0.23080729682968 -0.02423666966697
 6 -11.37322442344234 -0.19777080608061 -0.25288604260426
 6  12.96152037103710 -0.74097485458546 -1.50019089208921
 6 -12.78436919691969  1.71410938793879 -0.77155419741974
 6  11.65559030603060 -0.05657603070307 -1.20606912291229
 6 -11.53530712071207  0.94478080108011 -0.90854039303930
 6  11.37429815681568 -0.54286344444444  2.55013545454545
 6  10.84397383838384 -2.63604408550855  1.08926704670467
 6 -11.75845803980398 -0.60429225722572  2.27966654665467
 6 -12.53339404140414 -2.39569501250125  0.58980088408841
 6  9.72487731373137  0.39002003890389  0.26833351335134
 6 -10.03296466346635 -1.07428151315132 -0.32018069906991
 6  11.03927669266927  0.66124058895890 -2.39944415141514
 6 -10.54652709170917  1.47151753575358 -2.02804211121112
 6  9.26580654765477  1.69849328722872 -0.03163853785379
 6 -8.85671615661566 -0.59147270427043 -0.13285433143314
 6  7.95207119311931  2.33638337823782  0.16925259425943
 6 -7.56985212721272 -1.40724505760576 -0.33235856785679
 6  8.00557103810381  3.76792499739974  0.27805917191719
 6 -7.71869297529753 -2.79444919301930 -0.73524369936994
 6  6.90874628162816  1.52456245014501  0.21572156615662
 6 -6.46498830183018 -0.75693116821682 -0.19279228522852
 6  5.58882943494349  2.03551125802580  0.35981089708971
 6 -5.09552067406741 -1.32412228832883 -0.34157633163316
 6  4.46764069506951  1.24725013891389  0.07022139313931
 6 -4.00370579057906 -0.50343654975498 -0.25116244624462
 6  3.08770137513751  1.61535213311331  0.31980364536454
 6 -2.57074083808381 -0.92521685178518 -0.34817247724772
 6  2.73576385738574  3.04407385628563  0.74431714071407
 6 -2.36296179017902 -2.34061136323632 -0.54171521152115
 6  2.06856643164316  0.73578074197420 -0.02359148414841
 6 -1.71293261626163  0.05359506540654 -0.23859568656866
 6  0.72184935393539  0.79632440034003  0.06991287128713
 6 -0.21070993999400 -0.10394249934993 -0.24170181018102
 1  13.56400567256726 -0.49542297739774  0.89952479047905
 1  13.40806604260426 -2.13753433453345  1.88008814081408
 1 -14.17214999199920 -0.58764892189219  1.58318552455246
 1 -13.90937230423042 -0.57284420742074 -0.24400602060206
 1  12.92298750075008 -2.67620236333633 -0.83484154915491
 1 -13.24295975697570  1.80826534453445  1.28353782678268
 1  13.71683261526153  0.05702298219822 -1.35102098609861
 1  13.11222271527153 -0.92380460756076 -2.47207788378838
 1 -13.41006655065507  1.66077739873987 -1.74444237723772
 1 -12.51081968896890  2.88760082408241 -0.89196607960796
 1  11.96122474247425 -1.19274000010001  3.06123078407841
 1  10.36285215021502 -0.63527303740374  3.08861774277428
 1  11.91140041004100  0.46224595749575  2.60352948794879
 1  10.95617462046205 -2.96565714581458 -0.05864047804780
 1  11.23167408440844 -3.32759767686769  1.70823074707471
 1  9.77737373837384 -2.47171816491649  0.90967591059106
 1 -11.49809670967097  0.46354192519252  2.46224011701170
 1 -10.90904541354135 -1.13062021702170  2.54227023102310
 1 -12.30942210121012 -1.05017592259226  3.17681027702770
 1 -13.19603938493849 -2.83366461846185  1.40268477747775
 1 -11.52620566856686 -2.70348237623762  0.78293334933493
 1 -12.80209056705671 -2.72093240124012 -0.39646812081208
 1  8.88546037003700 -0.32903122322232  0.86993117711771
 1 -10.21129086108611 -2.15567929192919 -0.69048868186819
 1  9.95487790679068  0.72975307320732 -2.08934363736374
 1  11.36744517951795  1.79036332723272 -2.77473718771877
 1  11.15154938993899  0.08686819971997 -3.28216534653465
 1 -10.99562056905691  1.44960818981898 -3.16613810681068
 1 -9.56657219621962  0.73694433143314 -1.83274788078808
 1 -10.28545030003000  2.58052666566657 -1.70483407940794
 1  14.83242979597960 -2.75874477957796  0.10987288028803
 1 -15.39704913991399  1.53722863686369  0.83214141914191
 1  10.06516199819982  2.27650095399540 -0.41896121112111
 1 -8.71373807080708  0.38803090109011  0.21199638663866
 1  8.41230409240924  4.08371822472247 -0.75382168516852
 1  6.90938432743274  4.36425183408341  0.74481031403140
 1  8.92706741674167  4.09337222412241  0.93215623362336
 1 -8.57273430343034 -3.02684961406141 -0.04219005800580
 1 -8.27543329932993 -2.88834784888489 -1.75460179017902
 1 -6.73605245424542 -3.22145579767977 -0.68296508850885
 1  6.93488515151515  0.47348109100910  0.07326393439344
 1 -6.34964522652265  0.40045988588859  0.15861348434844
 1  5.30135951995199  3.06662181008101  0.66860911591159
 1 -5.08196201620162 -2.30363167026703 -0.93026042604260
 1  4.89054215321532  0.14041228712871  0.00197178617862
 1 -4.33522902690269  0.62667778467847 -0.19827703170317
 1  2.87001478647865  3.19499354125413  1.78374457545755
 1  1.72988964196420  3.33114178507851  0.62087449544954
 1  3.16995101710171  3.85001283518352  0.13091259525953
 1 -3.05530766776678 -2.89451659875988  0.05451240724072
 1 -2.50319982798280 -2.77693881398140 -1.58605257225723
 1 -1.15696249524952 -2.72269244434443 -0.23240627662766
 1  2.60432759075908 -0.14836348744874 -0.46910481448145
 1 -2.01401080208021  1.13509342724272  0.03411679867987
 1  0.27360310731073  1.71294400030003  0.58514430943094
 1  0.12245501550155 -1.00224017411741 -0.66436402040204

