%nproc=4
%Mem=2GB
# td=(NStates=1) CAM-B3LYP/6-31G(d,p) 

TD

0 1
 8  14.88394661366137 -2.00678814991499 -0.27540639363936
 8 -14.88467506450645  1.98884074007401  0.89454854885489
 6  11.62737603160316 -1.04144477857786  1.21013437443744
 6 -12.48341597359736 -0.82450501050105  0.79574509650965
 6  12.94999373137314 -1.23918695679568  1.18449602160216
 6 -13.76302891189119 -0.12453861386139  0.74829372537254
 6  13.39013100710071 -1.77368289538954 -0.24245913491349
 6 -13.57406974697470  1.35414821282128  0.79871165516552
 6  10.97944647064707 -0.20818503460346  0.02422817681768
 6 -11.42618971997200 -0.20796182518252 -0.13145389938994
 6  13.06402062106211 -0.72429318641864 -1.35776664966497
 6 -12.87128788878888  1.86322429942994 -0.44455149714972
 6  11.70866561356136 -0.14894526762676 -1.17678619461946
 6 -11.61582517251725  0.94235055805581 -0.79481902090209
 6  11.29708043504350 -0.26831598969897  2.55673611461146
 6  10.77417685868587 -2.36009649074908  1.40472859285929
 6 -11.77312950695069 -0.86607843584358  2.25878445844584
 6 -12.58439914191419 -2.36713215621562  0.47537944194419
 6  9.72995782178218  0.29223025992599  0.20698737873787
 6 -10.11016238323832 -0.94165825082508 -0.41337001800180
 6  11.26586935193519  0.47952241714171 -2.47068127512751
 6 -10.72836527552755  1.56929731373137 -1.87014632163216
 6  9.42846281328133  1.57154059195920  0.00727535353535
 6 -8.84442492749275 -0.47424098109811 -0.24785583158316
 6  8.09077506350635  2.20129986988699  0.17236290529053
 6 -7.64422956495650 -1.31805613871387 -0.40579591159116
 6  8.01620210121012  3.53059126402640  0.83563492949295
 6 -7.78362946894689 -2.84639438753875 -0.61758193319332
 6  7.00440584758476  1.51106110001000 -0.13454346034603
 6 -6.40394219721972 -0.58033350845084 -0.42965597159716
 6  5.68913946594660  1.91476918381838  0.04172908890889
 6 -5.11999312131213 -1.20580045614561 -0.53450562456246
 6  4.50675460646065  1.20318573247325 -0.26825245424542
 6 -3.99836525652565 -0.38484469056906 -0.42640997099710
 6  3.05397800280028  1.49099969786979  0.03682534753475
 6 -2.63735749974997 -0.87271160126013 -0.50146780678068
 6  2.75048532953295  2.86442589148915  0.52769547854785
 6 -2.41515700970097 -2.40151745384538 -0.82349338933893
 6  2.11704127912791  0.55335249914992 -0.31054017901790
 6 -1.64648597159716  0.11466117201720 -0.44995682268227
 6  0.65004217321732  0.80808557645765 -0.35853997399740
 6 -0.27261613061306 -0.12543464856486 -0.54823246324632
 1  13.59371864386439 -0.31753518861886  1.21189602760276
 1  13.28100333633363 -2.04123470457046  1.71997212921292
 1 -14.42305508250825 -0.43420357735774  1.74093129912991
 1 -14.23296466346635 -0.24741166416642 -0.37693931393139
 1  12.85893109510951 -2.77088183128313 -0.43710177517752
 1 -12.83060852185218  1.75924044204420  1.50693016601660
 1  13.84383531553155  0.10247752765277 -1.04457034103410
 1  13.29768126112611 -1.08586081318132 -2.29110978697870
 1 -13.45586113011301  1.70087140814081 -1.35998393139314
 1 -12.69395800280028  3.03390545454545 -0.26988387138714
 1  11.67395601560156 -0.75247597369737  3.42171683268327
 1  10.28592445744574 -0.19135864596460  2.78981786278628
 1  11.62998226822682  0.69270900380038  2.69008814381438
 1  10.97182618561856 -3.14386496659666  0.56022140814081
 1  10.88400931793179 -3.02316723382338  2.40801072507251
 1  9.73430943194320 -2.28071906500650  1.27587253025303
 1 -11.49077597759776  0.12422799379938  2.76489038203820
 1 -10.85767027602760 -1.45546270127013  2.31722772677268
 1 -12.40193135213521 -1.33116402140214  2.91697429342934
 1 -13.65024480548055 -2.70568182018202  0.94313882288229
 1 -11.90413346134613 -2.98102013001300  0.89360441644164
 1 -12.96560691869187 -2.57478778677868 -0.57375584958496
 1  9.10699252325233 -0.58664698479848  0.43135731973197
 1 -10.21226095809581 -2.01931565556556 -0.70395002800280
 1  10.23539595859586  1.09245934383438 -2.46235093809381
 1  11.97519595459546  1.28199249014902 -2.70531024502450
 1  11.19811404640464 -0.35161564866487 -3.13324045404541
 1 -11.25890689768977  1.75262849184919 -2.66493798679868
 1 -9.77140267926793  0.71576221322132 -2.40407501350135
 1 -10.33430518551855  2.42387100010001 -1.49971356735674
 1  14.97681423442344 -2.72472137723772  0.35781767476748
 1 -15.38825826082608  1.48092300630063  1.53639184418442
 1  10.24725020702070  2.36065936983698 -0.02266158115812
 1 -8.68813551055105  0.56057815581558 -0.07494230723072
 1  8.50414327632763  4.41344119701970  0.40220391739174
 1  7.12653604260426  3.97139254815482  0.85796162916292
 1  8.33428813881388  3.58491137803780  1.79516253425343
 1 -8.27196422642264 -3.41186811591159  0.44184834583458
 1 -8.39682543854386 -2.90537955205521 -1.45542187218722
 1 -6.74415326432643 -3.28828248034803 -0.98613540554055
 1  7.04499616261626  0.51953569646965 -0.48720211221122
 1 -6.45376563856386  0.48307814771477 -0.42393477047705
 1  5.29473885788579  2.93804895279528  0.49151140614061
 1 -5.11403522352235 -2.31675298239824 -0.49632703270327
 1  4.64939803880388  0.00388863476348 -0.87203561456146
 1 -3.96481198519852  0.63178829572957 -0.10775797979798
 1  3.20030781578158  3.05376941884188  1.55299150015002
 1  1.74532118511851  3.17256592749275  0.68210061806181
 1  3.09280330233023  3.66212404630463 -0.13326382238224
 1 -3.03085522252225 -3.28948609570957 -0.16438948294829
 1 -2.78758826682668 -2.49737085718572 -1.83364733173317
 1 -1.43510030903090 -2.50141031613161 -0.98822185818582
 1  2.45298245624562 -0.39754840594059 -0.81895979998000
 1 -2.01250065106511  1.12519243714371 -0.44037065006501
 1  0.28691443844384  1.86435914181418 -0.02621682668267
 1  0.20110288028803 -1.20889083918392 -0.72175975997600

