%nproc=4
%Mem=2GB
# td=(NStates=1) CAM-B3LYP/6-31G(d,p) 

TD

0 1
 8  14.81010922992299 -2.23335080618062 -0.43522237523752
 8 -14.96054265126513  1.86871872787279  0.76196529052905
 6  11.56121941594159 -1.04790542464246  1.24872823382338
 6 -12.34016164816482 -0.97357991799180  0.74091961396140
 6  13.04064279627963 -1.39407244534453  1.08912648464846
 6 -13.73305591459146 -0.27027318731873  0.88008690469047
 6  13.31186318031803 -2.01052657975798 -0.29103399239924
 6 -13.69449178917892  1.19103190119012  0.62055383938394
 6  11.02970149614962 -0.29827404350435 -0.07504175017502
 6 -11.38168526952695 -0.27923895289529 -0.28121887588759
 6  13.10756497549755 -0.84594535163516 -1.31918279127913
 6 -12.92766352635264  1.63657163416342 -0.60635767776778
 6  11.71259600660066 -0.27349772287229 -1.21215973197320
 6 -11.64893848384838  0.94438076107611 -0.85843538253825
 6  11.42192291929193 -0.11454061216122  2.41818225922592
 6  10.67573701470147 -2.25586606770677  1.52355047504750
 6 -11.71550374437444 -0.77241906990699  2.17526610661066
 6 -12.58460916291629 -2.48887433043304  0.61340324432443
 6  9.68480330633063  0.33256429332933  0.02194887488749
 6 -10.06753812081208 -0.99181326632663 -0.47014569556956
 6  11.12305507050705  0.37217168206821 -2.50721492849285
 6 -10.69147158615862  1.58199858385839 -1.84690399739974
 6  9.40620058705871  1.59170260816082 -0.12035740974097
 6 -8.92448293329333 -0.48221177817782 -0.38447949394939
 6  8.05179116511651  2.28565830573057  0.09369503850385
 6 -7.61596673867387 -1.13602793589359 -0.61537686968697
 6  8.14562504350435  3.78049625452545  0.26333769976998
 6 -7.75086619261926 -2.61715146324632 -1.04892506750675
 6  6.91277668466847  1.50824081798180  0.08221821582158
 6 -6.44065586858686 -0.54570004510451 -0.40708371437144
 6  5.56069662166217  2.03655136203620  0.22275719171917
 6 -5.06120724272427 -1.03071294739474 -0.56472864686469
 6  4.50730466146615  1.20505591949195  0.09305367636764
 6 -4.00534595459546 -0.28594480058006 -0.25980331033103
 6  3.08052065706571  1.60174077197720  0.21013267826783
 6 -2.63657742174217 -0.77193152325233 -0.26756441644164
 6  2.81352163316332  3.00828027692769  0.66122883188319
 6 -2.46002149614961 -2.11546884898490 -0.92600364036404
 6  2.15373494849485  0.66593375727573 -0.06467559255926
 6 -1.60672199519952  0.00342004790479  0.05839401240124
 6  0.75431260026003  0.83681844974497  0.09840572057206
 6 -0.18022689168917 -0.23228533363336 -0.21985962596260
 1  13.53450272227223 -0.38019145424542  1.12216705470547
 1  13.28134337033704 -2.05390597169717  1.87488762076208
 1 -14.13865664266427 -0.53804396139614  1.76730393639364
 1 -14.47244861186119 -0.76910383338334  0.15661404140414
 1  12.72291749374937 -2.86422116521652 -0.49324738973897
 1 -13.00287574857486  1.85132965096510  1.43153262626263
 1  13.96308724072407 -0.31516423652365 -1.28829471347135
 1  13.10043153615362 -1.20525275237524 -2.32679335533553
 1 -13.86772231623162  1.62811413241324 -1.40676860986099
 1 -12.56405501250125  2.71538360236024 -0.42593947694769
 1  11.96632525252525 -0.54897562366237  3.34886954795480
 1  10.43017888288829  0.00212070197020  2.84906378737874
 1  11.75569483948395  0.92793252615262  2.20455959095910
 1  10.69549855285528 -3.02419299939994  0.77439282528253
 1  10.91432234923492 -2.94025894299430  2.42979290329033
 1  9.64921092209221 -2.01852284538454  1.65667061006101
 1 -11.69186608660866  0.23458902990299  2.61021491449145
 1 -10.80136464546455 -1.14523167816782  2.20340634463446
 1 -12.38500965996600 -1.43468437343734  2.78383097909791
 1 -13.25843562456246 -2.85785703770377  1.45590009900990
 1 -11.81929497749775 -2.95616764476448  0.58793384938494
 1 -13.14816517451745 -2.81311161916192 -0.27317579157916
 1  8.95663748774878 -0.32131045114511  0.23841802580258
 1 -10.23429316131613 -2.00221394539454 -0.91573120612061
 1  10.00220263926393  0.66610670857086 -2.40138484148415
 1  11.34685312031203  1.36308059895990 -2.81255096909691
 1  11.21416565156516 -0.40671115821582 -3.22131926192619
 1 -11.22093310031003  1.79273250225023 -2.75431692469247
 1 -9.65217075607561  1.03871450845084 -2.03501810781078
 1 -10.21502325732573  2.28134674767477 -1.47120071607161
 1  14.92163871687169 -2.96247515261526  0.12437433043304
 1 -15.33893332833283  1.57486240024002  1.61042924792479
 1  10.05187066906691  2.29438274217422 -0.34115343034303
 1 -8.84123082008201  0.52246434443444 -0.02706751975197
 1  8.58844170617062  4.20683053595360 -0.71784808780878
 1  7.24406779577958  4.20961637053705  0.59606543954395
 1  8.81715642564256  3.72551543844384  1.23637665566557
 1 -8.05520255025503 -3.32853978307831 -0.18791463046305
 1 -8.26698245424543 -2.51095010911091 -1.92926925692569
 1 -6.87299614861486 -3.15462911501150 -1.44192098409841
 1  6.84698636163616  0.46625036793679 -0.20363375537554
 1 -6.55136539853985  0.46340618051805  0.17500512351235
 1  5.63875325932593  3.10721586948695  0.61809406440644
 1 -4.83213703370337 -2.21587289438944 -0.66466386638664
 1  4.78829192819282  0.22746099199920 -0.34935334633463
 1 -4.28073357735774  0.68044316121612 -0.04119132313231
 1  3.12644042904290  3.04222826472647  1.64155035603560
 1  1.73184983798380  3.33210188108811  0.56546895489549
 1  3.63445746774677  3.71119895379538  0.02523202720272
 1 -2.92011414841484 -3.11309845694569 -0.29270231423142
 1 -2.71745125312531 -2.26353747384738 -1.81493546054605
 1 -1.25417221622162 -2.38597877297730 -0.68517155315531
 1  2.54802196019602 -0.52294094519452 -0.04395229922992
 1 -1.83824322532253  0.95651556945695  0.68742212921292
 1  0.47663341034103  1.77471017691769  0.69751554655466
 1  0.36206897689769 -1.03363331343134 -0.63665124912491

