%nproc=4
%Mem=2GB
# td=(NStates=1) CAM-B3LYP/6-31G(d,p) 

TD

0 1
 8  14.71569978897890 -2.14088155925593 -0.38134698769877
 8 -14.59910650765076  2.13151500750075  0.75608470247025
 6  11.44403769776978 -0.99114974907491  1.23520688168817
 6 -12.40753838583858 -0.89634219421942  0.65743126512651
 6  12.97756648864886 -1.30149318741874  0.99350692269227
 6 -13.70283289228923  0.04152799279928  0.68503739973997
 6  13.30583257725772 -1.85505103220322 -0.32504739373937
 6 -13.45264760476048  1.45112791079108  0.77320910491049
 6  10.97171569756976 -0.27016123222322 -0.03112735873587
 6 -11.32780988198820 -0.28940996999700 -0.13109386338634
 6  12.93344756375637 -0.84212496959696 -1.25446631963196
 6 -12.65821658165817  1.94859283628363 -0.39981702370237
 6  11.65408015501550 -0.16473684678468 -1.15679419541954
 6 -11.48630222022202  0.92625894889489 -0.73066260526053
 6  11.42412313931393 -0.08677783588359  2.43162360336034
 6  10.72108154915492 -2.23192367346735  1.39190731073107
 6 -11.80690288428843 -1.05764759275928  2.15033361336134
 6 -12.77019772177218 -2.26576201920192  0.18821072507251
 6  9.63316814281428  0.36006704360436  0.24673135313531
 6 -10.09487085408541 -1.09838392339234 -0.37071575257526
 6  11.12983574857486  0.51647611251125 -2.44422862986299
 6 -10.66993943294329  1.55498588258826 -1.71843115011501
 6  9.29433940094009  1.63078651655166 -0.16812218621862
 6 -8.79312979797980 -0.56846040304030 -0.38290933693369
 6  8.02685867186719  2.21103084298430 -0.03080741174117
 6 -7.58413355535554 -1.31769610271027 -0.58028336033603
 6  8.04557503850385  3.75877408230823  0.18508987498750
 6 -7.73632473847385 -2.88546829492949 -0.93488366336634
 6  6.87664307130713  1.47191718561856 -0.01935194119412
 6 -6.36054785778578 -0.66804227932793 -0.44903790979098
 6  5.50318087008701  1.87190489738974  0.19680459645965
 6 -5.10048117011701 -1.28787866396640 -0.58647082108211
 6  4.41828575957596  1.10201561546155  0.01859623062306
 6 -3.99320474047405 -0.52760896699670 -0.21190852085209
 6  3.11962456745675  1.57919851775177  0.16373803880388
 6 -2.59471323532353 -0.91212554265427 -0.24143180318032
 6  2.74691497249725  2.97480692959296  0.61065377437744
 6 -2.35848134213421 -2.28758606070607 -0.79449048904890
 6  2.16366594159416  0.58303546744674  0.00297117211721
 6 -1.60918224122412 -0.01274156825683 -0.09700152715272
 6  0.71708887788779  0.76841160906091  0.12581846184618
 6 -0.21921079007901 -0.14124622972297 -0.21106874687469
 1  13.57250652265227 -0.36804023912391  1.25321015901590
 1  13.33868910491049 -2.07195777687769  1.80700083208321
 1 -14.50411318831883 -0.33023318031803  1.41179838583858
 1 -14.21460282728273 -0.29889681268127 -0.32304392439244
 1  12.76049125112511 -2.75755049814981 -0.60455852085209
 1 -12.90566602760276  1.49631414941494  1.82792226522652
 1  13.72084301630163  0.03331061096110 -1.24819070307031
 1  12.93118461146115 -1.40617284438444 -2.37692836883688
 1 -13.37838338233823  1.96670799179918 -1.20966889988999
 1 -12.20932953995400  3.10077214121412 -0.28217510051005
 1  11.99662828282828 -0.55143586968697  3.35702036303630
 1  10.39743560856086  0.08656914681468  2.80695957695770
 1  11.78644791479148  0.86457619051905  2.20824995999600
 1  10.89653865686569 -3.02902348244824  0.51019640564056
 1  10.94903582058206 -2.74583950105010  2.33119304330433
 1  9.43236923792379 -2.01392238533853  1.60895583858386
 1 -11.19243614361436 -0.12552698169817  2.45027892089209
 1 -11.12875738473847 -2.03491064606461  2.39883588758876
 1 -12.75775693469347 -1.16012691769177  2.95557815381538
 1 -13.66231601260126 -2.73593484548455  0.65791030003000
 1 -11.79758280628063 -2.76083811181118  0.47861291729173
 1 -12.95937629562956 -2.24173448144814 -1.01173964796480
 1  8.92565438943894 -0.29324764486449  0.81795597959796
 1 -10.10593032503250 -2.16365008900890 -0.49936956995700
 1  10.03499591859186  0.90786088398840 -2.45591029402940
 1  11.74264269926993  1.49100339123912 -2.74709442344234
 1  11.14424865986599 -0.19530001710171 -3.23823095309531
 1 -11.41030203720372  1.97478070707071 -2.31656314931493
 1 -10.04060959996000  0.73000363736374 -2.30526513251325
 1 -9.93538529352935  2.36480509350935 -1.25893948994899
 1  15.06768332133213 -2.75265417051705  0.50681257425743
 1 -15.42793222822282  1.79792470647065  1.32185039003900
 1  10.05918140014001  2.43730703460346 -0.39126844184418
 1 -8.86990368736874  0.58044014201420 -0.07981279427943
 1  8.57643050505050  4.27759761266127 -0.55984228722872
 1  7.11530491949195  3.96292170107011  0.14404023702370
 1  8.51324603460346  3.85434832173217  1.09174219221922
 1 -8.38454548454845 -3.41526845594559 -0.27864370337034
 1 -8.29748550455045 -2.75851486558656 -1.83557988798880
 1 -6.72836168516852 -3.27354100620062 -0.84017080908091
 1  6.81053271627163  0.39402314521452 -0.34763815581558
 1 -6.53862412441244  0.36646648654865 -0.30727310431043
 1  5.32056144014402  2.81169631753175  0.34736699169917
 1 -4.91610543054306 -2.23475478257826 -1.08754615461546
 1  4.67818091709171  0.08431667756776 -0.34055246624662
 1 -4.12720822482248  0.53483860076008  0.18975177117712
 1  3.13597138213821  3.33203724562456  1.63710991199120
 1  1.66328298129813  3.13486215711571  0.91310371837184
 1  3.00089411141114  3.67316515041504 -0.45750624662466
 1 -2.85731786878688 -3.22028917601760 -0.24912795679568
 1 -2.64143365136514 -2.37991911201120 -1.89910387738774
 1 -1.24848164716472 -2.76638681378138 -0.57633066906691
 1  2.59244640264026 -0.41125977707771 -0.19019692369237
 1 -2.03359276027603  0.99971988988899  0.37919130613061
 1  0.15274102110211  1.70857356325633  0.53951974697470
 1  0.38609137913791 -1.10713066316632 -0.53692127612761

