%nproc=4
%Mem=2GB
# td=(NStates=1) CAM-B3LYP/6-31G(d,p) 

TD

0 1
 8  14.70621884088409 -2.36429390049005 -0.28985783878388
 8 -14.70444704170417  2.18169002500250  0.82878197219722
 6  11.40119341334133 -1.14092472657266  1.19144250525053
 6 -12.36587421942194 -0.91223378337834  0.86313183518352
 6  12.95491422342234 -1.41229426752675  1.17194476647665
 6 -13.68460106910691 -0.08336449644965  0.84865376137614
 6  13.29283127712771 -1.91421694879488 -0.17933282228223
 6 -13.55313765376538  1.42896569456946  0.78749053305331
 6  10.93075160116012 -0.21769598569857 -0.01478572457246
 6 -11.31199830083008 -0.29701073007301 -0.14558531253125
 6  13.02916713571357 -0.88007876497650 -1.28656952995300
 6 -12.69043980398040  1.72181015801580 -0.47636467846785
 6  11.74855960296030 -0.10574094719472 -1.13874239023902
 6 -11.51229481948195  0.88494481748175 -0.81851139013901
 6  11.16688741574158 -0.35280443854385  2.48452889388939
 6  10.69133857485749 -2.37930841194119  1.30784890489049
 6 -11.72414460846085 -1.01577340534053  2.22055063506351
 6 -12.69323002500250 -2.38714415741574  0.34547645164516
 6  9.64016884288429  0.32748378527853  0.15243192319232
 6 -10.05108647564757 -1.13945803080308 -0.39703838483848
 6  11.37454021902190  0.65235970087009 -2.33053726072607
 6 -10.70632307130713  1.38401878587859 -1.87022632963296
 6  9.34053402040204  1.65914935283528 -0.13840921492149
 6 -8.85233571857186 -0.62728628562856 -0.33460450645065
 6  8.03430941694169  2.25948568846885  0.05772144114411
 6 -7.59064420642064 -1.37120145324532 -0.56534186618662
 6  8.12056253725373  3.71252945784578  0.42945431143114
 6 -7.68232933893389 -2.87784753285329 -0.84702487748775
 6  6.92473788078808  1.56138613251325 -0.18123812981298
 6 -6.46441824482448 -0.66761223632363 -0.47051005700570
 6  5.57983853585359  2.02012971987199  0.11160607660766
 6 -5.09421054305430 -1.24756463256326 -0.43901607560756
 6  4.41892582358236  1.42930834473447 -0.16398202720272
 6 -4.09042446244624 -0.50514672077208 -0.12594992499250
 6  3.07465007000700  1.70717131503150  0.05441710671067
 6 -2.69455321932193 -0.78780311041104 -0.47912557255726
 6  2.84196447744774  3.11375082398240  0.54244695369537
 6 -2.33503899789979 -2.16766406850685 -1.03889492949295
 6  2.14063363836384  0.80025718961896 -0.31080020502050
 6 -1.69217054005401  0.01175088098810 -0.04079590659066
 6  0.65274244324432  0.99057382528253 -0.08153227322732
 6 -0.27645651465147 -0.10327243234323 -0.13214085408541
 1  13.54189346134613 -0.57226066116612  1.53132797079708
 1  13.08808404440444 -2.30886146724673  1.87171730373037
 1 -14.36358913591359 -0.45074523152315  1.75182238823882
 1 -14.41250261726173 -0.52442936593659  0.07295567556756
 1  12.59206440844084 -2.74655939903990 -0.34979304430443
 1 -12.98078353935393  1.76849136713671  1.74528400140014
 1  13.87833876587659 -0.20906362646265 -1.12157804180418
 1  13.26697819081908 -1.23184541164116 -2.38731940794079
 1 -13.38989453345335  1.75903722472247 -1.29293722672267
 1 -12.51655026202620  2.79725178917892 -0.42058894189419
 1  11.67853647364737 -0.83439416551655  3.17373203420342
 1  10.08856472147215 -0.13528303840384  2.84155303630363
 1  11.81238050805080  0.48363809670967  2.54946408140814
 1  10.96302530553055 -3.16792737283728  0.46683206920692
 1  10.96632754975498 -2.89836475357536  2.30730065406541
 1  9.51300730173017 -2.25455644874487  1.16952189518952
 1 -11.46788368836884  0.03094866586659  2.85467936093609
 1 -10.85373988298830 -1.56228338333833  2.06733273727373
 1 -12.41436259525953 -1.68043894889489  2.88996159215922
 1 -13.32254203520352 -2.78570982298230  1.05994050305031
 1 -11.84627767576758 -3.07170919891989  0.28647370337034
 1 -13.03146350435044 -2.26665697369737 -0.77542601660166
 1  8.88404022802280 -0.25933425352535  0.73921810581058
 1 -10.11581131313131 -2.30156388038804 -0.27425705870587
 1  10.15109752875287  0.68283838173817 -2.39931463446345
 1  11.95316375137514  1.67997228812881 -2.24588430243024
 1  11.70984521952195  0.12777229012901 -3.48047517751775
 1 -11.13502450945095  2.11495472447245 -2.63145463846385
 1 -10.03569910891089  0.63108374537454 -2.39730433643364
 1 -9.91942369736974  2.23725233823382 -1.56471006700670
 1  14.94244079707971 -3.15037394249425  0.27892978597860
 1 -14.97537697269727  2.03537845184518  1.68705691069107
 1  10.05064054605461  2.30031333523352 -0.55106442144214
 1 -8.73664036103610  0.47203930193019 -0.21751656465647
 1  9.12969583158316  4.33748360126013 -0.01168747174717
 1  7.23372676167617  4.34794020292029  0.08327416041604
 1  8.29044375437544  3.70049293619362  1.58015103310331
 1 -8.39456648664866 -3.44805173427343 -0.10641648064806
 1 -8.03335909190919 -3.17908692279228 -1.82173850385039
 1 -6.54662351135113 -3.25798945104510 -1.03809060106011
 1  7.17004866786679  0.50840458335834 -0.37296068806881
 1 -6.60452071407141  0.27586742664266 -0.17442981998200
 1  5.89868925292529  3.10523567146715  0.37819007400740
 1 -4.96458027802780 -2.26670797789779 -0.81989938993899
 1  4.61872497149715  0.51572981888189 -0.66627503850385
 1 -4.21702720672067  0.43465858275828  0.07243003900390
 1  3.54518230323032  3.58573261516152  1.24469067006701
 1  1.71684833783378  3.41307997889789  0.69782219021902
 1  2.98544256625663  3.72058989288929 -0.49303979998000
 1 -2.88084022102210 -2.89050619771977 -0.21885492949295
 1 -2.75847535553555 -2.51407252735274 -2.07622158915892
 1 -1.32122892189219 -2.21891206630663 -1.19133216921692
 1  2.42910006800680 -0.27855650675067 -0.68341624562456
 1 -2.14365376637664  0.94100401830183  0.22463585058506
 1  0.27153290029003  1.84908761466147  0.45867166216622
 1  0.09181195119512 -0.83853380348035 -0.98466605060506

