%nproc=4
%Mem=2GB
# td=(NStates=1) CAM-B3LYP/6-31G(d,p) 

TD

0 1
 8  14.78358657765777 -2.04147161826183 -0.32129098209821
 8 -14.79220581758176  2.03652550855086  0.72571166516652
 6  11.38176147014702 -1.07297793189319  1.22118547954795
 6 -12.29746737873787 -0.88365092509251  0.68773429542954
 6  12.83413214521452 -1.42555559365937  1.03522109410941
 6 -13.60202281128113 -0.06418257825783  0.72719161516152
 6  13.35948794279428 -2.00003553065307 -0.31892678167817
 6 -13.52880522052205  1.40430322832283  0.68159994399440
 6  10.80406893289329 -0.31094531063106 -0.03969821582158
 6 -11.24690179117912 -0.21767279627963 -0.20585133913391
 6  13.05504972397240 -0.94174493159316 -1.35479635263526
 6 -12.70210097009701  1.76057403440344 -0.57530457245725
 6  11.61602634963496 -0.28831920502050 -1.17282579857986
 6 -11.44520811081108  0.98623494649465 -0.77426696569657
 6  11.09303003000300 -0.24031318941894  2.51900234123412
 6  10.62988242924292 -2.45696617771777  1.25094321432143
 6 -11.72506470047005 -0.97257908590859  2.26034461446145
 6 -12.57157785978598 -2.42847829082908  0.37137904190419
 6  9.54240906690669  0.29809084598460  0.15428210821082
 6 -10.03526489348935 -1.06464054905491 -0.38978765976598
 6  11.24847761276128  0.49679414431443 -2.41154536153615
 6 -10.59471191019102  1.55202558655866 -1.87411671867187
 6  9.27512747974797  1.68436187408741 -0.04087946194619
 6 -8.83953443844385 -0.59993355035504 -0.17391843784378
 6  7.99063504950495  2.27647738763876  0.04336000500050
 6 -7.57096223822382 -1.32164649774978 -0.48828416041604
 6  8.11978245924593  3.76629483438344  0.39857122312231
 6 -7.64005511151115 -2.79657940604060 -0.90810098509851
 6  6.78097350435043  1.59110910481048 -0.17139714571457
 6 -6.39194099709971 -0.75049052415242 -0.24156716271627
 6  5.50355090709071  2.03763147004700  0.07404232023202
 6 -5.09329045104510 -1.22295217131713 -0.38087026102610
 6  4.36702063306331  1.18141355525553  0.00508487948795
 6 -3.92211763176318 -0.49490569666967 -0.19210654065407
 6  3.09195180018002  1.65575617351735  0.16426809180918
 6 -2.56929069306931 -0.88094242434243 -0.31871953195320
 6  2.83814409540954  3.11713116201620  0.65906861586159
 6 -2.30326582058206 -2.30177747984798 -0.80034107410741
 6  2.07600717571757  0.80087725162516 -0.09119824482448
 6 -1.62625394839484  0.08734844074407 -0.16991881888189
 6  0.73335050405040  0.93263803170317 -0.03295741574157
 6 -0.22349121812181 -0.07854996009601 -0.40932857285729
 1  13.43916318831883 -0.45719915501550  1.32027686568657
 1  13.02417765376538 -2.15347592869287  1.68331846384638
 1 -14.22702547954795 -0.32201235823582  1.51718892489249
 1 -14.07935930293029 -0.30739766276628 -0.18021964196420
 1  12.89766496849685 -2.97637238033803 -0.54293235823582
 1 -12.87842330333033  1.71046556455646  1.48327780078008
 1  13.85141607360736 -0.09762248234823 -1.39730561456146
 1  12.96260775377538 -1.32329455655566 -2.34440511651165
 1 -13.45533107710771  1.67884920592059 -1.48510644364436
 1 -12.49527813481348  2.95231729572957 -0.50481736473647
 1  11.62223084308431 -0.52219294539454  3.40737539853985
 1  9.95113097809781 -0.02214172427243  2.59267814881488
 1  11.53993326332633  0.76496622952295  2.30059919491949
 1  10.58161716471647 -2.91920250035004  0.35012039803980
 1  11.17028794579458 -3.07925284238424  2.09881980598060
 1  9.45864186518652 -2.37880887398740  1.63252819581958
 1 -11.63197009700970 -0.04616904590459  2.67726161916192
 1 -10.50257476647665 -1.61398855385539  2.35211121512151
 1 -12.38794995399540 -1.73373427842784  2.85675827182718
 1 -13.40965074607461 -2.86326757875788  0.99950445944594
 1 -11.66382943094309 -3.14663669166917  0.60799585558556
 1 -12.97984834283428 -2.69669997799780 -0.62466094009401
 1  8.70610243424342 -0.24566288638864  0.52428661266127
 1 -10.10272000400040 -2.05305902990299 -0.63851348434843
 1  10.08820123912391  0.89000909880988 -2.49112381538154
 1  11.72530096509651  1.43512780368037 -2.52305201920192
 1  11.36441067606761 -0.18997948504851 -3.19882701270127
 1 -11.33705471247125  1.92946617561756 -2.55725721872187
 1 -10.03566910591059  0.84473511051105 -2.51583618961896
 1 -9.79954170917092  2.45373398639864 -1.40616421242124
 1  14.97621417441744 -2.19775868096810  0.79916180918092
 1 -15.17574700970097  1.90590550455045  1.56707491249125
 1  10.13462894489449  2.30544384828483 -0.36573588858886
 1 -8.77982467946795  0.61340343834383  0.15134032103210
 1  8.93336619861986  4.06471632453245 -0.10126642964296
 1  7.03486687568757  4.23479888878888  0.26293212621262
 1  8.36282099209921  3.77956084298430  1.57189020702070
 1 -7.98597562756276 -3.26813374247425 -0.18084392339234
 1 -8.21888764476448 -2.84362337643764 -1.79845617561756
 1 -6.63385223422342 -3.13433708580858 -1.21791858385839
 1  6.95518718171817  0.53250699359936 -0.46661005300530
 1 -6.41802206420642  0.30579041894189  0.04738236123612
 1  5.49463884788479  3.13494864276428  0.14232648764876
 1 -4.87637145714571 -2.38902020912091 -0.68965636563656
 1  4.52408550755076  0.40293853975398 -0.49188759975998
 1 -4.29572507650765  0.56056117301730  0.12895569156916
 1  3.28341612661266  3.24158820072007  1.61165736673667
 1  1.73988064106411  3.30815948684869  0.88330073807381
 1  3.02199622162216  3.85483331723172 -0.05548604460446
 1 -3.08160029702970 -3.09194634173417 -0.38646169016902
 1 -2.49330883888389 -2.26960808090809 -1.95089905690569
 1 -1.34635143414341 -2.71546172127213 -0.75923895989599
 1  2.58276543454345 -0.24354300540054 -0.37163506750675
 1 -1.99170857185719  0.96742666056606  0.33809719671967
 1  0.19190493749375  1.84770747664766  0.55621141614161
 1  0.36758952895290 -0.86550650075008 -0.95011259525953

