%nproc=4
%Mem=2GB
# td=(NStates=1) CAM-B3LYP/6-31G(d,p) 

TD

0 1
 8  14.53557177617762 -2.47235470657066 -0.61425027802780
 8 -14.75563216021602  2.02079393539354  0.56726582058206
 6  11.29337263126313 -1.06431706580658  1.21771513251325
 6 -12.26488412041204 -0.99650221022102  0.75386090809081
 6  12.74133286528653 -1.61309434753475  1.05981355335534
 6 -13.69342195119512 -0.26838299829983  0.59807870387039
 6  13.11823381738174 -2.12806833393339 -0.35586047504750
 6 -13.56715905590559  1.23179597759776  0.62255403940394
 6  10.94426295229523 -0.24418863496350  0.00157591159116
 6 -11.22273937493749 -0.35218624762476 -0.12730348434843
 6  12.88597281628163 -1.01942269936994 -1.38254912791279
 6 -12.63885464546455  1.74790276727673 -0.50874791679168
 6  11.58521326832683 -0.26353672677268 -1.10727924392439
 6 -11.42560615061506  0.85138146114611 -0.81470100910091
 6  11.37249797679768 -0.20016917501750  2.53397383838384
 6  10.42395183618362 -2.34192467356736  1.29273739373937
 6 -11.81200339433943 -0.95082691069107  2.21819039903990
 6 -12.47202790479048 -2.49030447344734  0.36699860386039
 6  9.63931875787579  0.51817285418542  0.17929460946095
 6 -9.97057842484248 -1.01203528852885 -0.31934061506151
 6  11.18234099909991  0.39561402630263 -2.43029723672367
 6 -10.48838127712771  1.54598498249825 -1.78188749574958
 6  9.30221018801880  1.77376081398140 -0.09832520652065
 6 -8.71259174417442 -0.58551210821082 -0.26599764576458
 6  8.07548353435343  2.32288202810281  0.07636330533053
 6 -7.49747488948895 -1.33944827792779 -0.51320665266527
 6  8.00122060306031  3.87949615451545  0.34097546354635
 6 -7.60039114511451 -2.74371411951195 -0.90504067906791
 6  6.80519592659266  1.56652664656466 -0.03486349234923
 6 -6.31334313731373 -0.60731620672067 -0.33898690469047
 6  5.49763031503150  2.22613031993199  0.19593450945095
 6 -5.04136525852585 -1.06152602870287 -0.53730590459046
 6  4.47483141414141  1.45812122602260  0.00821519251925
 6 -3.89113453345335 -0.37753395949595 -0.21556888688869
 6  3.04699730473047  1.68121871977198  0.12763442844284
 6 -2.52789655365537 -0.80409473957396 -0.23559121912191
 6  2.75725600660066  3.07648709760976  0.73006571557156
 6 -2.31829732373237 -2.13086038813881 -0.62965400540054
 6  2.13074264926493  0.70330749464947 -0.19020814581458
 6 -1.63221454445445  0.17044675057506 -0.04033586058606
 6  0.67651482048205  0.94190895879588 -0.02111623162316
 6 -0.13080194919492 -0.07147925302530 -0.10861850185019
 1  13.61869114111411 -0.76475991109111  1.26376121412141
 1  13.00977621362136 -2.44712529362936  1.87676780878088
 1 -14.42360513751375 -0.68272842984299  1.27224443044304
 1 -14.04470583758376 -0.35982290529053 -0.46414803480348
 1  12.38157335933593 -3.01026576967697 -0.66181424642464
 1 -13.17705316631663  1.37536205420542  1.56513598659866
 1  13.60559149114911 -0.10666338643864 -1.31428731273127
 1  12.88088958195820 -1.51858408550855 -2.48237891389139
 1 -13.44121966596660  1.77067838883888 -1.49172710571057
 1 -12.24686329332933  2.79892195619562 -0.25051193419342
 1  11.79130775077508 -0.80154088018802  3.21659632063206
 1  10.24381024602460  0.08092858275828  2.78750763176318
 1  12.16053532353235  0.70169990289029  2.33064219921992
 1  10.47074607760776 -2.89305988608861  0.34868025402540
 1  10.61904282128213 -2.99251416851685  2.25928585258526
 1  9.47011301230123 -2.04893588668867  1.55527047004700
 1 -11.64395129512951  0.00072564356436  2.49589348234823
 1 -10.87253176217622 -1.39108626362636  2.26333233723372
 1 -12.32373353235324 -1.56432733773377  2.98468106410641
 1 -13.45442522352235 -2.86695794779478  0.81462597159716
 1 -11.64184723272327 -3.23697572557256  0.51317637363736
 1 -12.36868722672267 -2.43794410241024 -0.77171564556456
 1  8.83715553955396  0.03750543044304  0.68064224822482
 1 -10.01757148914892 -2.05146887088709 -0.49456908990899
 1  10.10104252325232  0.96328642654265 -2.14298900190019
 1  11.79602803780378  1.19629392029203 -2.54058377237724
 1  11.01440567556756 -0.21387187428743 -3.33161029102910
 1 -11.31850285728573  1.96372960196020 -2.58824031703170
 1 -9.83535907490749  0.58134877187719 -2.28521312731273
 1 -9.83737549254925  2.12684129712971 -1.34470806680668
 1  14.61572812581258 -3.26283518861886  0.07890978397840
 1 -15.44086352135213  1.47829274327433  1.12446065106511
 1  10.01750723272327  2.44295759965997 -0.56459577457746
 1 -8.54923162016201  0.32823492149215  0.09247443444344
 1  8.37297015901590  4.37269712261226 -0.67295359835984
 1  7.07924131313131  4.20406581548155  0.62797863086309
 1  8.66875158515852  4.44973786068607  1.03351636963696
 1 -8.08656568656866 -3.34168109720972 -0.02466830583058
 1 -8.11995775177518 -2.91243025712571 -1.76691302130213
 1 -6.64215306430643 -3.34243789588959 -0.90667745974597
 1  6.71608327132713  0.56755049794980 -0.44605799779978
 1 -6.42881314331433  0.40676051595160  0.01407903090309
 1  5.45629501350135  3.27582273017302  0.63123537853785
 1 -4.89354317431743 -2.07027833493349 -0.95447284728473
 1  4.61944504350435  0.53301154705471 -0.45925433643364
 1 -4.07426293029303  0.72778789568957  0.03978677467747
 1  3.79903768876888  3.34617865976598  1.44878107910791
 1  1.71877853085309  3.42461113201320  1.23578598659866
 1  2.66824084608461  3.78654648854886 -0.36369686568657
 1 -3.18150028702870 -2.70708785588559 -0.14523756775678
 1 -2.43271277927793 -2.38670979107911 -1.66877084408441
 1 -1.29174597359736 -2.46243641874187 -0.10070310631063
 1  2.43823098109811 -0.28320697179718 -0.61221912591259
 1 -1.80111951295130  1.21449136703670  0.16374976197620
 1  0.43604935193519  2.00980368626863  0.17461325632563
 1  0.24560733073307 -1.03939388948895 -0.18469605360536

