%nproc=4
%Mem=2GB
# td=(NStates=1) CAM-B3LYP/6-31G(d,p) 

TD

0 1
 8  14.75858407740774 -2.06804427552755 -0.51104995799580
 8 -14.74746134313431  2.15004686068607  0.71529062306231
 6  11.52930622462246 -0.97612824692469  1.21926528752875
 6 -12.32722035403540 -0.77947050705071  0.75544106610661
 6  13.02065079707971 -1.27941097919792  1.04044161616162
 6 -13.68054066306631 -0.00626678667867  0.69513840984098
 6  13.44805679967997 -1.79355488258826 -0.42006689568957
 6 -13.51550389038904  1.44227702570257  0.72867465146515
 6  11.02743126912691 -0.11232544864486 -0.06879112511251
 6 -11.37920502150215 -0.24437546654665 -0.27339809380938
 6  13.09351357035703 -0.79261001810181 -1.44098497149715
 6 -12.76596735673567  1.83297127412741 -0.58056509850985
 6  11.69326407340734 -0.23968434153415 -1.29405792179218
 6 -11.55941953195319  0.92867919091909 -0.86801634063406
 6  11.32873360036004 -0.04000315841584  2.42104254525453
 6  10.82975241624162 -2.28345882698270  1.47124524452445
 6 -11.75467766176618 -0.76562839083908  2.17983656365637
 6 -12.59979068106811 -2.20464590759076  0.37366927092709
 6  9.72445727172717  0.38653969086909  0.15150183018302
 6 -10.16776814381438 -1.00908499349935 -0.56517519851985
 6  11.08106087108711  0.35482994789479 -2.51329553655366
 6 -10.61324376337634  1.65367575157516 -1.88105741274127
 6  9.33334330133013  1.63566700460046 -0.04597997199720
 6 -8.91884236923692 -0.50468402540254 -0.36760780678068
 6  8.05156114211421  2.29048878877888  0.16875254425443
 6 -7.67698284028403 -1.37578191129113 -0.49727505950595
 6  8.03780426142614  3.72378058295830  0.47868923492349
 6 -7.78068917491749 -2.84053380148015 -0.81194136913691
 6  6.89613502050205  1.54214420832083  0.09741973597360
 6 -6.51006280928093 -0.72672814791479 -0.29309231523152
 6  5.59283983598360  1.98083579047905  0.10152506850685
 6 -5.09700082208221 -1.28892876897690 -0.47757993199320
 6  4.44486841784178  1.16963237713771 -0.09094472347235
 6 -4.03621904190419 -0.55361156725673 -0.32162949294930
 6  3.08423102810281  1.48714931283128  0.20561222622262
 6 -2.66491025502550 -1.07495182528253 -0.32507016701670
 6  2.80420070107011  2.89885933483348  0.77122983198320
 6 -2.39587508150815 -2.49889719181918 -0.87903894389439
 6  2.07800737573757  0.62033919781978 -0.05962508750875
 6 -1.62484380738074 -0.18404869896990 -0.08004983198320
 6  0.65186235523552  0.66637140504050  0.18519439943994
 6 -0.22610147914791 -0.40043214831483 -0.04134177417742
 1  13.75450472247225 -0.37321075617562  1.14119895789579
 1  13.27369260526053 -1.97894847594759  1.83184331633163
 1 -14.16823960096010 -0.27111726872687  1.58481568756876
 1 -14.27201856885689 -0.34421134413441 -0.24335595559556
 1  12.80093529552955 -2.63124786788679 -0.68754681968197
 1 -12.76139160016002  1.73650816881688  1.54817429042904
 1  13.85080601260126 -0.08030075017502 -1.11037692169217
 1  13.05020651365136 -1.17946017311731 -2.45740641664166
 1 -13.48358390239024  1.68966028702870 -1.26814474747475
 1 -12.54840344734473  2.81499356335634 -0.55031191419142
 1  11.94983360336034 -0.40604133023302  3.35754041504150
 1  10.44394025902590  0.03439392929293  2.75268414941494
 1  11.53372264226423  1.10082981588159  2.22415155015502
 1  11.26327533053305 -3.13610419051905  0.91381676767677
 1  11.16412732973297 -2.68172308940894  2.33688361236124
 1  9.73941994299430 -2.30971196429643  1.42628757175718
 1 -11.86054295429543  0.19522509350935  2.53062695569557
 1 -10.71312582158216 -1.09150630563056  2.35417142114211
 1 -12.49725088408841 -1.40460136513651  2.76368896489649
 1 -13.36243602460246 -2.67522877487749  0.81562607160716
 1 -11.89565261326132 -2.78404043204320  0.66547160316032
 1 -12.92672303030303 -2.57560786878688 -0.67592606660666
 1  8.94376620062006 -0.26511483158316  0.56364054805481
 1 -10.36640637263726 -1.95060878487849 -0.88965859885989
 1  10.02992541154115  0.90829092699270 -2.29116381938194
 1  11.43782221722172  1.17852214311431 -3.05039475347535
 1  11.24720895589559 -0.14677516461646 -3.33495062506251
 1 -11.31289229622962  2.24180740974097 -2.60085157815782
 1 -9.95203074207421  0.79549018601860 -2.30438504450445
 1 -9.99078083308331  2.36703531653165 -1.23328692469247
 1  15.10876742974297 -2.55036394149415  0.26539843284328
 1 -15.10393982898290  1.60775568956896  1.53965217021702
 1  10.15012049404941  2.42070537443744 -0.30751006600660
 1 -8.70656735373537  0.45261735973597  0.26866205320532
 1  8.54179704170417  4.47074692759276 -0.04831113411341
 1  7.08677206620662  4.00328573747375  0.67487332033203
 1  8.61137584758476  3.95144803170317  1.43144616261626
 1 -8.51419844984498 -3.27551448054805 -0.06300213921392
 1 -8.41655741174118 -2.79677869196920 -1.62307863786379
 1 -6.87749659865987 -3.31875552765277 -1.17947473947395
 1  6.98747041004100  0.52891663456346 -0.05842923492349
 1 -6.61265152715271  0.44066390629063 -0.14007638463846
 1  5.36987637163716  3.07391253915391  0.33543579857986
 1 -5.12176599659966 -2.30842214931493 -0.62972037203720
 1  4.66434953395340  0.04406265216522 -0.41404981598160
 1 -4.18385388938894  0.41734685158516 -0.15938314231423
 1  3.28003578857886  3.03257729962996  1.77939414041404
 1  1.70512716571657  2.89768843974397  1.02227463546355
 1  3.16823084508451  3.85798363226323  0.22767227122712
 1 -3.27977011401140 -3.22918006510651 -0.31893493749375
 1 -2.61799130713071 -2.60430155025503 -1.99149311631163
 1 -1.27549434843484 -2.94323449854985 -0.50856389238924
 1  2.42335949394939 -0.27010566166617 -0.51004890889089
 1 -1.88281768276828  0.83244316221622  0.13021640864086
 1  0.32014776177618  1.47540024592459  0.55478127312731
 1  0.34232700270027 -1.45813576367637 -0.12621020502050

