%nproc=4
%Mem=2GB
# td=(NStates=1) CAM-B3LYP/6-31G(d,p) 

TD

0 1
 8  14.80197841684168 -2.01931940304030 -0.27788664166417
 8 -14.89938653565356  1.93600545654565  0.84596369036904
 6  11.40560385438544 -1.12054268836884  1.28123148414841
 6 -12.28847647964797 -0.88057061706171  0.89612513451345
 6  12.90203893589359 -1.42489552765277  1.13899147114711
 6 -13.72202481148115 -0.21855801580158  0.88600749674967
 6  13.38767076107611 -1.89539506660666 -0.36012090109011
 6 -13.64996733673367  1.34359715771577  0.80081186518652
 6  10.96964549054906 -0.30834505060506  0.04018977297730
 6 -11.33937103810381 -0.24097512651265 -0.15706646064606
 6  12.88516273527353 -0.80850160726073 -1.26826769976998
 6 -12.93276403640364  1.73668164516452 -0.59340638263826
 6  11.61513626062606 -0.24100447354735 -1.10876939293929
 6 -11.65117870787079  0.81338766176618 -0.83911345034503
 6  11.29768049504951 -0.36876603470347  2.51287172817282
 6  10.71571101210121 -2.44114459555956  1.30531865186519
 6 -11.64287648164816 -0.79382121012101  2.43273185318532
 6 -12.52761346334633 -2.36698214121412  0.58665056905691
 6  9.63160798679868  0.35474651155116  0.21423810381038
 6 -10.15387675467547 -1.00632471747175 -0.38455713671367
 6  11.13071583658366  0.42367683258326 -2.36557076407641
 6 -10.89041148014802  1.39877026102610 -1.94775408240824
 6  9.40879084608461  1.60078351625163 -0.07180255425543
 6 -8.92169265426543 -0.55730928792879 -0.44612565856586
 6  8.08682466846685  2.27596733663366  0.09102477147715
 6 -7.67862300430043 -1.20963529662966 -0.57467279927993
 6  8.17074755575558  3.69350755565557  0.73106447244724
 6 -7.63984509050905 -2.69119886798680 -0.97803797879788
 6  6.96340174717472  1.56395638953895 -0.10369037503750
 6 -6.49327113011301 -0.58780425552555 -0.39231223722372
 6  5.58236878887889  2.03629133603360  0.09582449844985
 6 -5.03298442044204 -1.12376225232523 -0.54459663366337
 6  4.54092802380238  1.20290570447045 -0.11080670967097
 6 -3.96172159215922 -0.29430563666367 -0.41875920592059
 6  3.13787639263926  1.62755335323532  0.00407207220722
 6 -2.67266103010301 -0.78682301240124 -0.51628928892889
 6  2.90146042704270  3.00646009490949  0.37417012601260
 6 -2.28464395839584 -2.22335963806381 -0.90217125712571
 6  2.19601917691769  0.62663982788279 -0.13251237623762
 6 -1.63737506050605  0.13027273317332 -0.24359618661866
 6  0.74753192219222  0.87624239213921 -0.06770089008901
 6 -0.17129599859986 -0.02192429752975 -0.37392503250325
 1  13.67486675867587 -0.61104453955396  1.26803164116412
 1  13.24829006500650 -2.00762134323432  2.00097022902290
 1 -14.11627440444044 -0.60766092309231  1.91604881088109
 1 -14.17679904690469 -0.78693561656166  0.10580896089609
 1  12.91244644664466 -2.91515625872587 -0.61941000600060
 1 -12.73725918691869  1.74434895289529  1.36627610061006
 1  13.85819675167517 -0.04311703180318 -1.11226711071107
 1  13.09858135113511 -1.23592581968197 -2.39482015801580
 1 -13.44644018801880  1.23509483048305 -1.51250918391839
 1 -12.86633524052405  2.86518858285829 -0.83212009500950
 1  11.61358997899790 -1.03806453255326  3.47474213521352
 1  10.22245811081108 -0.06302581268127  2.85196407740774
 1  11.78177744774477  0.62023175607561  2.48586772177218
 1  10.88248725172517 -3.03267384748475  0.49755514151415
 1  11.19113003000300 -3.15262017911791  2.23024294829483
 1  9.70695669666967 -2.45051604470447  1.45054999799980
 1 -11.61283818381838  0.31911748274827  2.94853874687469
 1 -10.68986349534953 -1.39954710971097  2.45251125512551
 1 -12.12916407540754 -1.40764166916692  3.08264086008601
 1 -13.33152293329333 -2.50733198519852  1.28292280128013
 1 -11.50200324832483 -2.92573460146015  1.17202225822582
 1 -12.62346270427043 -2.77671797979798 -0.58947742174217
 1  8.64242606660666 -0.24382270237024  0.26906109010901
 1 -10.21473120512051 -1.99638336233623 -0.57646727972797
 1  10.09554197319732  1.05843594149415 -2.20593529652965
 1  12.01740017501750  1.09908419931993 -2.49873958795880
 1  11.05432966796680 -0.34278476557656 -3.10239736973697
 1 -11.61035204220422  1.62798602760276 -2.78482997599760
 1 -10.24461000000000  0.76738737573757 -2.27334194019402
 1 -10.50774252925293  2.58807742074207 -1.78050164616462
 1  15.01064761776177 -2.64421332643264  0.21725361836184
 1 -15.33629306430643  1.36720163416342  1.51061926692669
 1  10.29311479347935  2.25038834273427 -0.32318163316332
 1 -8.90933763076308  0.51284338233823 -0.16741155415542
 1  9.13107596959696  4.27194704760476  0.06685038203820
 1  7.35125851485149  4.33154856375638  0.70825665866587
 1  8.38362307230723  3.68362124902490  1.78562158015802
 1 -8.28343537353735 -3.26940386948695 -0.23472931193119
 1 -7.94259001500150 -2.89923893799380 -1.92674900490049
 1 -6.55686453545354 -3.21354500660066 -0.75276206820682
 1  7.07298896189619  0.53321706460646 -0.65325871787179
 1 -6.71210147214721  0.50546038593859 -0.06635901290129
 1  5.51169055305531  3.02616776467647  0.27063931893189
 1 -4.91269508950895 -2.26104741184118 -1.02526992699270
 1  4.67504060306031  0.19679792569257 -0.56365477647765
 1 -4.01893739773977  0.71756687358736 -0.14418162216222
 1  3.24319210421042  2.93310735263526  1.23457965896590
 1  1.74792144514451  3.29296796769677  0.59810221822182
 1  3.17534155615562  3.56259409330933 -0.42200269626963
 1 -2.56361849884988 -2.92690983808381 -0.12453549754976
 1 -2.91729123712371 -2.49614073417342 -1.73939790679068
 1 -1.33663046204620 -2.44589476457646 -1.06687972397240
 1  2.57705486348635 -0.20761941304130 -0.48692659665967
 1 -2.07007640864086  1.25853577147715 -0.05167178017802
 1  0.28597434443444  1.87804050995099  0.35533132813281
 1  0.18572134213421 -1.02050200030003 -0.67986557055706

