%nproc=4
%Mem=2GB
# td=(NStates=1) CAM-B3LYP/6-31G(d,p) 

TD

0 1
 8  14.63332155115511 -2.34813228432843 -0.40393924692469
 8 -14.70137673467347  2.05951780778078  0.80207930193019
 6  11.42227552155216 -1.10261089518952  1.24573793479348
 6 -12.30018765076508 -0.99708226822682  0.77733325532553
 6  13.02748148014802 -1.37392043014301  1.08086565856586
 6 -13.63710631963196 -0.16319247924792  0.84017291329133
 6  13.24918691269127 -2.01214674177418 -0.26119100810081
 6 -13.45197753775378  1.32385518351835  0.85318710271027
 6  10.96962548854886 -0.35260947704770 -0.01480572657266
 6 -11.33654075507551 -0.37286831583158 -0.22831358535854
 6  12.92132635163516 -0.95775653275328 -1.31398227122712
 6 -12.66306706670667  1.78249622662266 -0.33322036403640
 6  11.57900264726473 -0.34727510061006 -1.18131664766477
 6 -11.46268985898590  0.87642396539654 -0.71504104310431
 6  11.39045977297730 -0.03579273737374  2.42018245924592
 6  10.56450589158916 -2.30395087618762  1.56033415341534
 6 -11.76228842284228 -1.13093492149215  2.12785136513651
 6 -12.74484518651865 -2.40874631763176  0.17932983698370
 6  9.52606743274328  0.23904494139414  0.13362004200420
 6 -10.03075444244424 -1.10985507050705 -0.55916459745975
 6  11.05218798379838  0.19480394529453 -2.45957016401640
 6 -10.54323676267627  1.55789617361736 -1.71227053405341
 6  9.37724769176918  1.54385782368237 -0.21055642964296
 6 -8.84319480448045 -0.71156471347135 -0.24678572457246
 6  8.05170115611561  2.27727746764676  0.15014068306831
 6 -7.51263640564056 -1.37759209230923 -0.58211354335434
 6  8.08599908090809  3.78162636753675  0.44324569056906
 6 -7.56593769976998 -2.83214296239624 -1.02064223922392
 6  6.85568097509751  1.70116010991099  0.00288028202820
 6 -6.43080488348835 -0.79249472457246 -0.31563456945695
 6  5.50604115611561  2.14591229812981  0.14289920592059
 6 -5.00633175517552 -1.12153202930293 -0.47713988798880
 6  4.43193712471247  1.38859427332733  0.10976534753475
 6 -4.00101552155216 -0.33329953605361 -0.27820515051505
 6  2.97220982598260  1.69680027792779  0.08340000500050
 6 -2.64080784478448 -0.68037236733673 -0.37667532753275
 6  2.85648592959296  3.14937438633863  0.39998270727073
 6 -2.43604909890989 -2.11476877897790 -0.86019705970597
 6  2.07544711971197  0.79970713461346 -0.18985811081108
 6 -1.62972429542954  0.21783148904890 -0.18120994799480
 6  0.65863303230323  1.06761152905291 -0.10825494549455
 6 -0.20633950295029  0.01125902080208 -0.20203784378438
 1  13.48603787578758 -0.49016245134513  1.36701153915391
 1  13.33957919391939 -1.92763334443444  1.95934606660666
 1 -14.31234401140114 -0.52956311331133  1.59704691069107
 1 -14.22808417541754 -0.35855277827783 -0.11782340234023
 1  12.60889609160916 -2.90260500360036 -0.41354941994199
 1 -12.90025548654866  1.53874839283928  1.81437091009101
 1  13.73780471247125 -0.36781950205021 -1.23833971797180
 1  13.35398689168917 -1.36510873797380 -2.21123179917992
 1 -13.20690623462346  1.72776409740974 -1.23471140414041
 1 -12.34549315631563  2.77792985698570 -0.13905078807881
 1  11.67428604860486 -0.22303302940294  3.58838349934994
 1  10.39459532453245  0.40266075597560  2.59264814581458
 1  12.20985025502550  0.73977371027103  2.29077821282128
 1  10.48169717271727 -2.70008058815882  0.53288867486749
 1  10.74836575357536 -3.06789170627063  2.38674859885989
 1  9.51780778177818 -2.04554554765476  1.85617056005601
 1 -11.62279917991799 -0.05717014601460  2.59928382138214
 1 -10.82617712671267 -1.72316947194720  2.36817282128213
 1 -12.48337949694969 -1.54684558955896  3.00312290829083
 1 -13.56212599359936 -2.91679293129313  0.80412492149215
 1 -11.92085513351335 -3.40364239223922  0.25797085308531
 1 -13.07260761876188 -2.37102741074107 -1.00957943194319
 1  8.75790761476148 -0.30341866196620  0.72838702270227
 1 -10.44844457645765 -2.04140786478648 -0.70396002900290
 1  10.08123054205421  0.34225432333233 -2.25257996099610
 1  11.49101753675368  1.26738102900290 -2.63727344134413
 1  11.16376061106111 -0.28019850695070 -3.36054318431843
 1 -11.02144315131513  1.82652588158816 -2.62863435643564
 1 -9.71767730673067  1.09661029802980 -1.99820442644264
 1 -10.12576433143314  2.49044765776578 -1.41329492549255
 1  14.97581413441344 -2.91981088618862  0.22567446044604
 1 -15.35180461546155  1.67588250225022  1.48534673967397
 1  10.25222070407041  2.18417172107211 -0.48628794379438
 1 -8.59322601960196  0.28571066906691 -0.07618243124312
 1  8.68133099509951  4.49628948184819 -0.21033733673367
 1  7.01859524852485  4.13024843374337  0.53613944694469
 1  8.49512422242224  3.87906079297930  1.51434445244524
 1 -8.03048007800780 -3.33661059015902 -0.13921976097610
 1 -8.02118787478748 -2.60916993109311 -1.92229855985599
 1 -6.64552340134013 -3.25163881598160 -1.27987477947795
 1  6.91283294629463  0.59887363026303 -0.33044643664366
 1 -6.38952921492149  0.32319215911591  0.01033865686569
 1  5.56474585858586  3.19831497939794  0.27583983898390
 1 -4.86422024202420 -2.05433674077408 -0.90589798979898
 1  4.95112821182118  0.38788703460346 -0.15995440644064
 1 -4.20723622762276  0.72817793469347  0.07691048704870
 1  3.21888967396740  3.53379742164216  1.27901410241024
 1  1.78478513151315  3.72319098999900  0.47639004700470
 1  3.42116613861386  3.72740057395740 -0.37257775377538
 1 -2.69354149114911 -2.78103525062506 -0.20928397239724
 1 -2.85207471547155 -2.37360848094810 -1.79733370037004
 1 -1.39119591859186 -2.28948912401240 -0.96555959195920
 1  2.22394955295530 -0.28095674677468 -0.54864276827683
 1 -1.90819022002200  1.06902682058206  0.39623301030103
 1  0.31927767476748  1.99864257015702 -0.02797700270027
 1  0.25239800980098 -0.93794374447445 -0.45868345234523

