%nproc=4
%Mem=2GB
# td=(NStates=1) CAM-B3LYP/6-31G(d,p) 

TD

0 1
 8  14.59580779977998 -2.13908137923792 -0.57596644964496
 8 -14.63161975897590  2.16862871887189  0.63641273527353
 6  11.51552484648465 -1.02484311841184  1.21164452545255
 6 -12.24567219921992 -0.78841140114011  0.88120364236424
 6  12.86686541854185 -1.33857689578958  0.91873944594459
 6 -13.62430503950395 -0.12596875687569  0.78789768576858
 6  13.27582957695770 -1.94534006110611 -0.42006689568957
 6 -13.44440678067807  1.40926372437244  0.67385916991699
 6  10.85812433843384 -0.25287950405041  0.01534728872887
 6 -11.31319842084208 -0.19714074307431 -0.17929868386839
 6  12.83675789478948 -0.88129888698870 -1.47085795879588
 6 -12.79856061606161  1.83663164016402 -0.61062810481048
 6  11.48979372637264 -0.21296166926693 -1.19408792479248
 6 -11.59110270027003  0.85738206120612 -0.99049858885889
 6  11.40497122412241 -0.26753591169117  2.57472791379138
 6  10.75982542354235 -2.35031551265127  1.45133325332533
 6 -11.62494468846885 -0.81303313131313  2.21933051305131
 6 -12.63888459045905 -2.28869431243124  0.52155405940594
 6  9.61798662466247  0.41231226812681  0.39911659165917
 6 -10.11594296129613 -1.02190627562756 -0.46033471447145
 6  10.96819958495850  0.51284574947495 -2.38373258025803
 6 -10.60528296729673  1.36959734373437 -1.97645695269527
 6  9.33444341134113  1.67037047494749 -0.00211558555856
 6 -8.82463294829483 -0.65424898189819 -0.20463150915092
 6  7.99358534453445  2.31381112101210  0.21017668666867
 6 -7.59066420842084 -1.43946827992799 -0.40430576257626
 6  8.10680116111611  3.85251345624562  0.61700306630663
 6 -7.73633473947395 -2.84933468156816 -0.76774694969497
 6  6.83189859685969  1.59391938583858 -0.01396140214021
 6 -6.43764556755676 -0.66880235533553 -0.26898990499050
 6  5.50347089908991  2.05991369826983  0.10676559255926
 6 -5.07587870987099 -1.30699057515752 -0.56659883388339
 6  4.46209014001400  1.27095250915092  0.00613498449845
 6 -3.92069748974897 -0.49145535163516 -0.43548087808781
 6  3.04991759675968  1.57443804170417  0.10320198519852
 6 -2.54418818281828 -0.92450678077808 -0.50971863186319
 6  2.77350763176318  2.91543099199920  0.66484919391939
 6 -2.23854934893489 -2.32200950305030 -0.92077311731173
 6  2.10962053705371  0.68564572847285 -0.19229835483548
 6 -1.55482680568057 -0.04126442054205 -0.21510333733373
 6  0.69357652665267  0.77314208210821  0.04051993199320
 6 -0.15776464546455 -0.19891199629963 -0.19083672367237
 1  13.55108438043804 -0.22232566766677  0.87990282828283
 1  13.38185342134213 -2.08505908700870  1.60401053305331
 1 -14.16564934193419 -0.34468462546255  1.62758996499650
 1 -14.23082444944495 -0.27064398739874 -0.18316993699370
 1  12.80068527052705 -2.85527027012701 -0.67332539753975
 1 -12.88468392939294  1.40231474947495  1.54483395639564
 1  13.84567549954996 -0.36279900000000 -1.52286817081708
 1  12.66661815481548 -1.33210543764376 -2.51763243924392
 1 -13.50055559955996  1.74115543654365 -1.41349928292829
 1 -12.62554116111611  2.95362742674267 -0.72604948794879
 1  11.92114073407341 -0.65468619471947  3.31495615661566
 1  10.44775064006401 -0.19630914101410  2.85741462246225
 1  11.68688795879588  0.83938367126713  2.54226336133613
 1  10.71639064206420 -2.92843342344234  0.62583796979698
 1  11.25507642464246 -3.07116203330333  2.21527145114511
 1  9.75853185418542 -2.36754774787479  1.95315025802580
 1 -11.43319021902190  0.30204577557756  2.41219511251125
 1 -10.54981949094910 -1.15236239123912  2.29328533253325
 1 -12.33425458445845 -1.17978888388839  2.99790238623862
 1 -13.66814659565956 -2.39033028502850  1.18132264126413
 1 -12.03194624262426 -3.09551157915792  0.66304136013601
 1 -12.90273063106311 -2.30889119711971 -0.49027750175017
 1  8.67166899089909 -0.11107942804280  0.88481266526653
 1 -10.46045577757776 -2.17210093409341 -0.66880651365137
 1  10.04277669666967  0.87541763966397 -2.16351105410541
 1  11.49359779477948  1.36763105400540 -2.62181189518952
 1  11.19951418641864 -0.09919040614061 -3.29901703170317
 1 -11.27174818181818  1.78041127012701 -2.75981747474748
 1 -9.56129166816682  1.09323996099610 -2.36897150315031
 1 -10.17765952095209  2.16737535053505 -1.66197979397940
 1  14.85398195119512 -3.07809671477148 -0.16050415741574
 1 -15.23289272427243  1.80822573657366  1.41581978697870
 1  10.07222270427043  2.58509181308131 -0.33507282228223
 1 -8.58208490549055  0.28186028402840  0.11033622062206
 1  8.65158802080208  4.35854570747075 -0.14547085008501
 1  7.13329671867187  4.29913532243224  0.75013084608461
 1  8.39780449044904  3.94959784668467  1.71587460546055
 1 -8.28077510751075 -3.39144607370737  0.09283344434443
 1 -8.33303905990599 -3.24570358445845 -1.71944827482748
 1 -6.77500634963496 -3.39307295939594 -0.90239703170317
 1  7.02258392139214  0.53697744064406 -0.20144353635363
 1 -6.62456271827183  0.23894373427343  0.15066268926893
 1  5.23831321532153  3.14384953285329  0.44359661466147
 1 -5.01079489948995 -2.23250455755576 -0.83056045604560
 1  4.44156725572557  0.13764201010101 -0.29954836583658
 1 -4.02582808680868  0.53314843174317 -0.12013921792179
 1  2.96832461746175  3.00977501940194  1.92272847384738
 1  1.72522917591759  3.42651132203220  0.58618102610261
 1  3.54782880488049  3.86858469236924  0.34159366336634
 1 -2.74076621362136 -3.05239238633863 -0.19211225522552
 1 -2.69246875487549 -2.38989010911091 -1.81218518551855
 1 -1.14900169916992 -2.43461363646365 -0.77526056205621
 1  2.51726888488849 -0.46887553865387 -0.40254815881588
 1 -1.88548794979498  0.89677959585959  0.24284767176718
 1  0.33182892989299  1.83506621252125  0.18854464946495
 1  0.26343911391139 -1.05471542164217 -0.78783636763676

