%nproc=4
%Mem=2GB
# td=(NStates=1) CAM-B3LYP/6-31G(d,p) 

TD

0 1
 8  14.73728194719472 -2.00295776687669 -0.46686553955396
 8 -14.87287388438844  1.92909476547655  0.42006110011001
 6  11.40276357035704 -1.19057969206921  1.08264162516252
 6 -12.38143577557756 -0.89574213421342  0.88051357335734
 6  12.89106783878388 -1.60014305240524  0.98071564356436
 6 -13.70781339033903 -0.09646580658066  0.69984888088809
 6  13.33158515251525 -1.84998052515252 -0.46161105010501
 6 -13.55618795879588  1.35257805580558  0.59721150515052
 6  10.91084961096110 -0.30045426152615 -0.04441868786879
 6 -11.31617871887189 -0.27268829782978 -0.09478023202320
 6  13.04167838683868 -0.74724548164816 -1.29106997999800
 6 -12.76639739973997  1.72750072707271 -0.63284032603260
 6  11.67012175917592 -0.08287866096610 -1.13710222622262
 6 -11.63112670267027  0.77555387838784 -0.86092563156316
 6  11.25690641764177 -0.33052221032103  2.39771021202120
 6  10.51123056405641 -2.46291677277728  1.29049716971697
 6 -11.82797499149915 -0.72462429042904  2.29442802280228
 6 -12.63268397039704 -2.32952839583958  0.57450935493549
 6  9.71861668766877  0.34073511041104  0.17896457645765
 6 -10.04955632263226 -1.03062714771477 -0.28806748774877
 6  11.28158092309231  0.71103556845685 -2.35486969396940
 6 -10.76842928192819  1.33401378537854 -1.98856816381638
 6  9.35830579757976  1.58035147304730 -0.04684005800580
 6 -8.76765725072507 -0.53066662366237 -0.27548859485949
 6  8.03087907390739  2.20772051195119  0.11464713371337
 6 -7.54185932793279 -1.26817115021502 -0.45961129312931
 6  8.12143262426243  3.54720292519252  0.73582494849485
 6 -7.62948405440544 -2.81446119421942 -0.65235541054105
 6  6.91017642464246  1.47254724862486 -0.16229623562356
 6 -6.43448525152515 -0.57977345244524 -0.32245525152515
 6  5.57562811481148  1.92185989288929  0.05075999199920
 6 -5.08973009500950 -1.03986386248625 -0.44695686968697
 6  4.47635156615662  1.20016543044304 -0.17003263226323
 6 -3.96056147614761 -0.32712891899190 -0.25562289228923
 6  3.15036764176418  1.57839843774377  0.08894055905591
 6 -2.57015077907791 -0.78651298139814 -0.36936459645965
 6  2.92389267026703  3.06470591949195  0.66259896889689
 6 -2.31836733073307 -2.29268657075708 -0.72318335833583
 6  2.15612518751875  0.69653681758176 -0.08853797879788
 6 -1.61566288928893  0.13928363426343 -0.18407023402340
 6  0.64359152815282  0.85790055795580  0.08006388638864
 6 -0.20821969096910 -0.05814791989199 -0.13514115411541
 1  13.59650892289229 -0.89208264336434  1.43670850885089
 1  13.23301853785379 -2.55090567166717  1.64432456445645
 1 -14.45462823982398 -0.44474463146315  1.50428763476348
 1 -14.13120448744874 -0.49460638363836 -0.41335295529553
 1  12.69612481448145 -2.70179492259226 -0.67595566056606
 1 -13.07161262226223  1.68926344434443  1.49453892689269
 1  13.76160709270927  0.13958123802380 -0.89168505250525
 1  13.31532302530253 -0.92974520162016 -2.38392906890689
 1 -13.49168471247125  1.84860618161816 -1.47228516151615
 1 -12.13727233423342  2.64887695169517 -0.57384426742674
 1  11.81185980598060 -0.51211193729373  3.33892855385539
 1  10.24231009600960 -0.35468497859786  2.53523240424042
 1  11.51792106210621  0.66678641154115  2.28543767876788
 1  10.87007601060106 -3.20591117121712  0.54517990399040
 1  10.79858077507751 -2.75901081818182  2.18558848284829
 1  9.44979098009801 -2.20896188928893  1.34721966496650
 1 -11.68205510551055  0.31610718171817  2.53116700970097
 1 -10.84394890389039 -1.16726388138814  2.38188419241924
 1 -12.53258441744175 -1.10044094909491  2.95072766876688
 1 -13.49642942394239 -2.75340659265927  0.91968647764776
 1 -11.91295434343434 -3.10097212521252  0.66370142614261
 1 -12.87659801780178 -2.53089339733973 -0.59919839383938
 1  8.63205502950295 -0.35674399449945  0.46386057005701
 1 -10.21346107810781 -2.02964668866887 -0.43419305230523
 1  10.08984140314031  0.76579667756776 -2.58419312231223
 1  11.69699813481348  1.84544883578358 -2.21595130913091
 1  11.78927316231623  0.40974048694869 -3.32715984598460
 1 -11.54270527752775  1.50129335833583 -2.94198569156916
 1 -10.18342388138814  0.48140877787779 -2.33197780378038
 1 -10.24982673767377  2.14018263126313 -1.83919751575158
 1  14.98635518851885 -2.70402930803080  0.04403629662966
 1 -15.49387882288229  1.89890480448045  1.11724992999300
 1  10.28382386438644  2.34391769566957 -0.13551286628663
 1 -8.65154185118512  0.58346044404440  0.14123931093109
 1  8.97418028002800  4.01616146904690  0.34292798979898
 1  7.29558294729473  4.27234264316432  0.38758459145915
 1  8.44361907190719  3.58313120002000  1.87605062306231
 1 -8.15261229122912 -3.30761769086909  0.17789195019502
 1 -8.29557531353135 -3.05421443554355 -1.58512484248425
 1 -6.65106395539554 -3.20142379447945 -0.76408320032003
 1  7.13126478947895  0.57916165906591 -0.67385077707771
 1 -6.44931519351935  0.43757359725973 -0.17675005200520
 1  5.28828821282128  2.93362851075107  0.22231448644864
 1 -4.82201602160216 -2.13649495659566 -0.86284368436844
 1  4.63919701870187  0.19633787968797 -0.39570798179818
 1 -4.04346985098510  0.79088420532053  0.02719551555156
 1  3.41907969296930  3.03625766766677  1.49548574957496
 1  1.73054970797080  2.96395506640664  0.93233564156416
 1  2.98752277427743  3.94063189708971 -0.24463495949595
 1 -2.50692282928293 -3.13763091019102  0.09322627862786
 1 -3.11293080108011 -2.55876699679968 -1.58224219121912
 1 -1.26815361436144 -2.50898107320732 -1.01081411741174
 1  2.47626478447845 -0.23002165326533 -0.31020892489249
 1 -2.07369677067707  0.94000391829183  0.27168055505551
 1  0.35871161816182  2.07183988988899  0.27387318231823
 1  0.12689545954595 -1.02750270037004 -0.35142272627263

