%nproc=4
%Mem=2GB
# td=(NStates=1) CAM-B3LYP/6-31G(d,p) 

TD

0 1
 8  14.75092331133113 -2.11787925902590 -0.46406525952595
 8 -14.60354695169517  2.24391624762476  0.77526662066207
 6  11.46813010701070 -1.03476411051105  1.17437079807981
 6 -12.30089772177218 -0.85957851785179  0.69208473047305
 6  13.05352408440844 -1.30596363446345  1.11658923092309
 6 -13.63294590359036 -0.01679783978398  0.72883177917792
 6  13.33835582958296 -1.81779730683068 -0.34670955995600
 6 -13.36291863186319  1.40267306530653  0.73533531753175
 6  10.93248177417742 -0.31640585668567 -0.03542778877888
 6 -11.32712981398140 -0.24290531953195 -0.28621937593759
 6  13.09664388338834 -0.68194895199520 -1.25616648964896
 6 -12.69504026402640  1.96292426942694 -0.47462450445044
 6  11.68434318131813 -0.16707708080808 -1.17515603160316
 6 -11.51591518151815  0.94981130413041 -0.93016255525553
 6  11.31558228522852 -0.13205236333633  2.44965540654065
 6  10.59738917991799 -2.31832231333133  1.36165428542854
 6 -11.74400659465947 -0.98948077607761  2.08295687568757
 6 -12.73210391239124 -2.28685412841284  0.18176008000800
 6  9.60239506550655  0.37439847674768  0.07428410841084
 6 -10.12708407540754 -0.98354243924392 -0.53807248824882
 6  11.02828559355935  0.47238170307031 -2.52457666466647
 6 -10.53518595759576  1.61606199019902 -1.92093140014001
 6  9.34815478247825  1.73078651655166 -0.17175254925493
 6 -8.84633511851185 -0.68909246624662 -0.22433347934793
 6  8.00013599959996  2.25816555645565  0.13857952695270
 6 -7.59958510051005 -1.31850618371837 -0.40054538653865
 6  8.15528600960096  3.64533273817382  0.50409177517752
 6 -7.71855296129613 -2.81567131523152 -0.92264243924392
 6  6.82652805980598  1.57253724762476 -0.03346335233523
 6 -6.51908371137114 -0.76687216231623 -0.14569757575758
 6  5.49146969896990  1.95877358425843  0.18584350035004
 6 -5.13391451345135 -1.41979185528553 -0.23160533453345
 6  4.44296822782278  1.19868528242824  0.04374874587459
 6 -3.95036045604560 -0.61225743184318 -0.09438676867687
 6  3.00834343934393  1.51984258215822  0.08569023402340
 6 -2.67718148214821 -1.04669900000000 -0.22976063606361
 6  2.67832811381138  3.01916136503650  0.53859656865687
 6 -2.35717121112111 -2.40278758085809 -0.63830487048705
 6  2.07388696369637  0.55982314621462 -0.15569469446945
 6 -1.69755107810781 -0.00577087118712 -0.03558538553855
 6  0.69152632163216  0.80482525042504 -0.08001212121212
 6 -0.27927679667967 -0.12133423852385 -0.25738337833783
 1  13.64058333033303 -0.35347878297830  1.30650548854885
 1  13.57479271527153 -2.10761134223422  1.86224635663566
 1 -13.99453223022302 -0.30999115611561  1.56626383238324
 1 -14.24451581858186 -0.51910883388339 -0.14584620462046
 1  12.74462966496650 -2.75943068616862 -0.61795986098610
 1 -12.67197265826583  1.65932045004500  1.54645411841184
 1  13.97501843384338  0.11500878077808 -1.28733461746175
 1  13.40813230623062 -1.18227045414541 -2.23103377937794
 1 -13.31750729472947  2.08400972197220 -1.24241217421742
 1 -12.23771237823782  2.82289435343534 -0.29039592259226
 1  11.60011863186319 -0.80173089918992  3.26816147714771
 1  10.20245611061106  0.26474696459646  2.29230811181118
 1  12.00440971097110  0.79360909380938  2.28328746374637
 1  10.77331633463346 -3.02464304440444  0.65340072607261
 1  10.75720663766377 -2.79764468156816  2.40102002600260
 1  9.60300630163016 -2.20537153025303  1.44489943294329
 1 -11.45741264126413 -0.03529795879588  2.51022491549155
 1 -10.61530603960396 -1.42636979197920  2.05129113311331
 1 -12.31494265326533 -1.44722562756276  2.75527812381238
 1 -13.40133991499150 -2.77197844984498  0.56053056205621
 1 -11.93328637663766 -2.89308133613361  0.14147920392039
 1 -13.15720607860786 -2.22740304830483 -0.92227070107011
 1  8.74219604360436 -0.27947626772677  0.39370355435543
 1 -10.17590732273227 -2.07976170017002 -0.94592422542254
 1  10.04569698869887  0.69862996089609 -2.40121482448245
 1  11.50945938093809  1.25777006790679 -2.70826054005401
 1  11.09497373237324  0.00355986888689 -3.60954808480848
 1 -11.04537554455445  1.68078130713071 -2.91313280628063
 1 -9.67720325932593  0.84520515751575 -2.29430403640364
 1 -10.06870862586259  2.46439505250525 -1.51970556655666
 1  14.96330288328833 -3.03354225932593 -0.13263137013701
 1 -15.23064249924992  1.84189910391039  1.45364356935694
 1  9.98973445544554  2.40287359125913 -0.68296761176118
 1 -8.51533823082308  0.21965406340634  0.28337352435244
 1  8.52935579757976  4.31891174407441 -0.45371167416742
 1  7.18494188318832  4.20811622052205  0.73002883588359
 1  8.74980969096910  3.91780466736674  1.46896991499150
 1 -8.11716874687469 -3.35471240034003 -0.04888072707271
 1 -8.37357311331133 -2.95158417251725 -1.81516784678468
 1 -6.57561641064106 -3.23592724482448 -1.03333012501250
 1  6.99058072107211  0.66892063496350 -0.43447683968397
 1 -6.22560282228223  0.43874371427143  0.26102372537254
 1  5.46816620062006  3.05713086098610  0.55259751475148
 1 -5.26538035803580 -2.41733304040404 -0.58068546854685
 1  4.47599069806981  0.17370561646165 -0.34653306430643
 1 -4.23585908990899  0.37711282818282  0.12804560056006
 1  3.63235102010201  3.01763580548055  1.34961116211621
 1  1.59482613561356  2.85736440734073  1.07479988798880
 1  2.70059408140814  3.82785061896190 -0.26016651265127
 1 -2.91260339733973 -3.12652980008001 -0.02896594059406
 1 -2.78098760676068 -2.53915503560356 -1.63546751375138
 1 -1.32516931593159 -2.76684685978598 -0.76466950295030
 1  2.68200535853585 -0.17687633873387 -0.75424332833283
 1 -1.94770417141714  0.91191110901090  0.27858124512451
 1  0.12604835183518  1.69216192209221  0.28466426142614
 1  0.06106887688769 -1.16174612471247 -0.60236782078208

