%nproc=4
%Mem=2GB
# td=(NStates=1) CAM-B3LYP/6-31G(d,p) 

TD

0 1
 8  14.64663288228823 -2.23571104220422 -0.25434428742874
 8 -14.80092668966897  1.88331018701870  0.92150124412441
 6  11.42158545254525 -1.05214584868487  1.24650801180118
 6 -12.31962959495950 -0.97989054905491  0.83946946894689
 6  12.90949968196820 -1.42074511261126  1.13207077907791
 6 -13.57765037403740 -0.25684184418442  0.72001089708971
 6  13.34679667366737 -2.02411793889389 -0.12961785078508
 6 -13.54519685968597  1.19789258725873  0.78254003800380
 6  10.97859638563856 -0.37704192029203 -0.03619786578658
 6 -11.33136023702370 -0.28866989598960 -0.14881563556356
 6  12.96605082408241 -1.09306006310631 -1.25007588058806
 6 -12.82520328032803  1.63490146714671 -0.45204224622462
 6  11.61638638563856 -0.37970834393439 -1.26547506350635
 6 -11.63020661066107  0.89084540754075 -0.77317685668567
 6  11.28004873187319 -0.06574573267327  2.47224766576658
 6  10.58381782278228 -2.42620310141014  1.58936705670567
 6 -11.69925211921192 -1.14689651765177  2.24071265126513
 6 -12.60130083208321 -2.39976541954195  0.41044294829483
 6  9.67485231123112  0.31667270417042  0.06793347334733
 6 -10.03926529352935 -1.02715680068007 -0.27612629362936
 6  11.19067183218322  0.24448891379138 -2.46457066406641
 6 -10.72488492749275  1.52665304930493 -1.79374868186819
 6  9.41694166116612  1.62961639953995 -0.09213458745875
 6 -8.75505599059906 -0.58584214121412 -0.33505455145515
 6  8.07269325532553  2.26814655455546  0.12134780378038
 6 -7.53000814281428 -1.27280161326133 -0.55804113611361
 6  8.03370385138514  3.68377658255826  0.58632999899990
 6 -7.60796190219022 -2.63199294739474 -0.93776395139514
 6  6.87245265226523  1.59900989488949 -0.16328633463346
 6 -6.34102590559056 -0.62322779787979 -0.31160416641664
 6  5.56736728872887  2.09910761766177  0.09892480848085
 6 -5.05176629862986 -1.10024990109011 -0.47083925792579
 6  4.43742767376738  1.32867828172817 -0.24823045204520
 6 -3.95655107510751 -0.30571677777778 -0.26135346534653
 6  3.05186779177918  1.73275387328733  0.05712737773777
 6 -2.61175493949395 -0.64084841494149 -0.56407406740674
 6  2.86205648664866  3.12202165106511  0.53639634863486
 6 -2.39859535353535 -2.04342164426443 -0.97523856385639
 6  2.04941451645165  0.85981314521452 -0.25037416241624
 6 -1.65280660366037  0.23628333423342 -0.27076890389039
 6  0.61570873987399  1.04191895979598 -0.02341646164616
 6 -0.25691456045605  0.06473436833683 -0.45766340634063
 1  13.60215948794880 -0.62260569566957  1.62912775077508
 1  13.01946718271827 -2.16664724582458  1.91709184118412
 1 -14.16742951995200 -0.62081223822382  1.71784899089909
 1 -14.25454682168217 -0.57831475447545 -0.19441106110611
 1  12.85875107710771 -3.02528727182718 -0.31293935893589
 1 -12.92437789878988  1.54821933993399  1.67139661266127
 1  13.81502243424342 -0.30763348344835 -1.28675455945595
 1  13.16831832483248 -1.41339356645665 -2.20203087908791
 1 -13.57663320732073  1.83324464546455 -1.42902083508351
 1 -12.45019362636264  2.65297736173617 -0.13410029302930
 1  11.75935455545555 -0.60667139323932  3.30453511451145
 1  10.19825569056906  0.05289577947795  2.70641952295230
 1  11.55432470247025  0.94710444334433  2.18988812381238
 1  10.92469147214721 -3.11415199529953  0.84621000700070
 1  11.06744766176618 -2.86917183428343  2.54002392639264
 1  9.52746874787479 -2.18559955305531  1.86014095709571
 1 -11.42642954295430 -0.19403383238324  2.84530842384238
 1 -10.90770527952795 -1.78288544354436  2.21118712271227
 1 -12.25517667666767 -1.66774767976798  2.87352994899490
 1 -13.58228800980098 -2.72840409240924  0.77514202320232
 1 -11.65842889088909 -2.88456048404840  0.39482453845385
 1 -12.79243960196020 -2.34063437143714 -0.78321679567957
 1  8.84752657665767 -0.28598691879188  0.35651983598360
 1 -9.94020375237524 -2.22309603360336 -0.47082671567157
 1  10.35102752175218  0.74033413131313 -2.34426912991299
 1  12.10002843784379  1.06999129002900 -2.90818053205321
 1  11.12127636263626 -0.46206669376938 -3.39076620662066
 1 -11.35228623562356  1.67772100110011 -2.81851334433443
 1 -9.82768830783078  1.05999663666367 -2.24429903590359
 1 -10.55477723272327  2.60478909190919 -1.37644124012401
 1  15.05548210121012 -2.76165507060706  0.50295218821882
 1 -15.26946638163816  1.72253716771677  1.67808601360136
 1  10.18133361536154  2.23057636153615 -0.57541685668567
 1 -8.70906760376038  0.49827192519252 -0.11430624362436
 1  8.82786564856486  4.32784263716372  0.17028072507251
 1  7.05205859485949  4.27758316721672  0.44403023602360
 1  8.41255596559656  3.86607949484948  1.53104612261226
 1 -8.29138616861686 -3.32711964106411 -0.28765460446045
 1 -8.21168692469247 -2.84206322042204 -1.97294362436244
 1 -6.62431128012801 -2.97726137823782 -1.08391518351835
 1  6.94858652165216  0.65041878477848 -0.62461585358536
 1 -6.39846010801080  0.34831467136714 -0.05581795879588
 1  5.31760114411441  2.99504465236524  0.65866812181218
 1 -4.86715053505351 -2.04881618871887 -0.99799719971997
 1  4.52771587058706  0.33078132403240 -0.90007841884188
 1 -4.07532303630363  0.73512862976298  0.00752354835484
 1  3.01286907190719  3.03474751665167  1.68814501550155
 1  1.87207386038604  3.29109778067807  0.73301570957096
 1  3.78149217121712  3.77107494139414  0.12798230223022
 1 -2.75611774877488 -2.72674982208221 -0.28072111611161
 1 -2.84946445444545 -2.12631375147515 -2.03316728372837
 1 -1.34439123812381 -2.13507368246825 -1.18246128212821
 1  2.36109326732673 -0.11882053315332 -0.80074797879788
 1 -2.02274167516752  1.23225314321432  0.37870125712571
 1  0.22308805580558  1.95107781368137  0.23645944094409
 1  0.30896366636664 -0.90692064216422 -0.76624420842084

