%nproc=4
%Mem=2GB
# td=(NStates=1) CAM-B3LYP/6-31G(d,p) 

TD

0 1
 8  14.77543576257626 -1.94655212631263 -0.30938979197920
 8 -14.78711530853085  2.04686654265427  0.71061015501550
 6  11.46827012101210 -1.12304293839384  1.15396875787579
 6 -12.39608724072407 -0.88726128612861  0.77581310331033
 6  12.94131286328633 -1.41468450655065  1.07898547054705
 6 -13.65452806180618 -0.08930509050905  0.75514441044104
 6  13.37161915591559 -1.82794832193219 -0.33776866586659
 6 -13.51961430143014  1.42392519051905  0.60934271827183
 6  10.99067759375938 -0.31220543664366 -0.04574882088209
 6 -11.33443054405440 -0.33140416941694 -0.19773052705271
 6  13.08199241824182 -0.70111086818682 -1.25950682368237
 6 -12.86217697769777  1.72379035603560 -0.67080412241224
 6  11.66287103410341 -0.11942231533153 -1.14110262626263
 6 -11.55559914991499  0.83918024102410 -0.82494203320332
 6  11.24424515151515 -0.33159231733173  2.46270671167117
 6  10.74370381138114 -2.40958143924392  1.30735885588559
 6 -11.82785497949795 -0.81565339333933  2.17379595959596
 6 -12.73041374337434 -2.33116855985599  0.54627653165317
 6  9.67774260026003  0.24848588548855  0.17555423542354
 6 -10.07025839283928 -1.16726081108111 -0.40913959495950
 6  11.28145091009101  0.71339580448045 -2.37548175517552
 6 -10.55034747374738  1.53266365036504 -1.77043635063506
 6  9.30211017801780  1.50950438833883 -0.21863723772377
 6 -8.89609009400940 -0.61166472347235 -0.15685673167317
 6  8.04616060206020  2.24307404730473  0.04423009200920
 6 -7.58849399139914 -1.33074740784078 -0.54104943694369
 6  8.11031151215122  3.61815001990199  0.52370373637364
 6 -7.65255636163616 -2.81068081618162 -0.90385056005601
 6  6.91081648864886  1.44973496739674 -0.16787679367937
 6 -6.41246304930493 -0.61427690279028 -0.26348935493549
 6  5.58893944594459  1.79110681758176  0.10962587858786
 6 -5.12052317431743 -1.16851672777278 -0.43986616061606
 6  4.43018694969497  1.07629304320432  0.04409878087809
 6 -3.97337275727573 -0.37446365246525 -0.31384871487149
 6  3.04493709870987  1.62692329022902  0.05772743774377
 6 -2.63076684068407 -0.76191052115212 -0.42559021902190
 6  2.78310859185919  2.94865431433143  0.45665837483748
 6 -2.41167666166617 -2.20288759085909 -0.72940398039804
 6  2.07567714271427  0.71643880778078 -0.05713483848385
 6 -1.65769709270927  0.15749545544554 -0.18738056505651
 6  0.64949211821182  0.86093086098610  0.08676455645565
 6 -0.25211408040804 -0.12828493359336 -0.22962060206021
 1  13.61809108110811 -0.49202263736374  1.53115795379538
 1  13.16440167616762 -2.20946152725273  1.65592572457246
 1 -14.38144092109211 -0.30060021702170  1.61792899889989
 1 -14.30753212021202 -0.45167209020902 -0.07276889688969
 1  13.06361156315632 -2.87597234033403 -0.55301336633663
 1 -12.82437789878988  1.61570608860886  1.45599507250725
 1  14.01221215321532 -0.08046076617662 -1.03576946094609
 1  13.32071356435643 -1.13735596269627 -2.45041571757176
 1 -13.79098464246425  1.64649597059706 -1.26010394339434
 1 -12.36438504550455  2.71315337933793 -0.70282716571657
 1  11.69147776777678 -0.97455818191819  3.21727638863886
 1  10.18451431643164  0.06049653955396  2.77097597859786
 1  11.87477674767477  0.55386511941194  2.43808294329433
 1  10.78031703470347 -3.04744532463246  0.41655704170417
 1  10.93021393839384 -2.97200211731173  2.34775469946995
 1  9.57808380938094 -2.35453644674467  1.40332527552755
 1 -11.63187008700870  0.23362893389339  2.42783667666767
 1 -10.87250175917592 -1.24165132013201  2.30240624462446
 1 -12.49176033503350 -1.10866177117712  2.99862245824582
 1 -13.42221200220022 -2.67141839383938  1.29181369036904
 1 -11.84383743174317 -2.92933496149615  0.38967402340234
 1 -13.27300765876588 -2.44427473547355 -0.54681315531553
 1  8.90104192819282 -0.25284360446045  0.44879906390639
 1 -10.27433716571657 -2.14134785878588 -0.45816544954495
 1  10.08022044104410  0.87577767566757 -2.43003770677068
 1  11.92291072607261  1.72931722262226 -2.27345705970597
 1  11.60992522752275  0.08589810271027 -3.43009013901390
 1 -10.99846085308531  2.01496472547255 -2.69176066906691
 1 -9.81761730073007  0.86490712771277 -2.11944655065507
 1 -9.95114686968697  2.15657427042704 -1.15882947894790
 1  14.98862541554155 -2.83705261036104  0.22016390939094
 1 -15.13256269126913  1.87429234323432  1.71902010701070
 1  10.18870435243524  2.02110541444144 -0.50156947194719
 1 -8.73068976597660  0.45833793179318  0.05989117611761
 1  8.67571043304330  4.33242309520952 -0.07760406340634
 1  7.12907629662966  4.08539394829483  0.75901173417342
 1  8.62115682568257  3.72614550145014  1.41612463046305
 1 -8.22750978097810 -3.40779770887089 -0.01993783278328
 1 -8.33599935593559 -2.89782879697970 -1.82178850885088
 1 -6.62636148514851 -3.12330598269827 -1.27816460846085
 1  6.96895855885588  0.32660640354035 -0.52733612561256
 1 -6.58880914291429  0.37761760166017  0.14726234923492
 1  5.53729311331133  2.98036318421842  0.37037929292929
 1 -4.74477829782978 -2.13056436353635 -0.81215861586159
 1  4.73766686568657  0.02848109400940 -0.39501791279128
 1 -4.29859536353635  0.71276639353935  0.01101389738974
 1  3.21981976697670  3.28598264016402  1.39740594159416
 1  1.71997865086509  3.31144981588159  0.59656206420642
 1  3.32527654965497  3.66190402430243 -0.32298279427943
 1 -2.92342447944795 -3.04768191529153 -0.20879392339234
 1 -2.75639514751475 -2.29431055115512 -1.84441840884088
 1 -1.29541634063406 -2.51240141524152 -0.86497953395340
 1  2.39494665266527 -0.30709936103610 -0.47075497949795
 1 -2.05447484848485  1.19114903280328  0.06757014401440
 1  0.25472121912191  2.00385309120912  0.50513630863086
 1  0.10989375937594 -1.07054700480048 -0.42372995699570

