%nproc=4
%Mem=2GB
# td=(NStates=1) CAM-B3LYP/6-31G(d,p) 

TD

0 1
 8  14.64639285828583 -2.20554802590259 -0.56963581658166
 8 -14.68406500350035  2.02215407140714  0.71353044704470
 6  11.52155544954496 -1.13461409550955  1.29214257525753
 6 -12.30883851585159 -0.84875743574357  0.93283880588059
 6  12.92952168416842 -1.43676671477148  1.04032160416042
 6 -13.62468507750775 -0.16810297029703  0.75533442944294
 6  13.18535052905290 -1.89648517561756 -0.42264715371537
 6 -13.42834517451745  1.25278807680768  0.66167795179518
 6  10.95600412641264 -0.32392660876088  0.04339009300930
 6 -11.33054015501550 -0.35324635363536 -0.13179393339334
 6  12.86586080508051 -0.78329908700870 -1.37783865686569
 6 -12.75666642664267  1.62852082908291 -0.56680372237224
 6  11.64416916391639 -0.26847722082208 -1.13984250025002
 6 -11.52036562656266  0.85852217521752 -0.82537207620762
 6  11.37422814981498 -0.35372453055306  2.49586002700270
 6  10.65281472247225 -2.39166964806481  1.41487960796080
 6 -11.74082627662766 -0.75885771377138  2.26869544954495
 6 -12.46302700470047 -2.41209665266527  0.58697060106011
 6  9.60482530853085  0.26593763066307  0.25438211821182
 6 -10.03969533653365 -1.09665375037504 -0.29160784178418
 6  11.05183794879488  0.37887235213521 -2.46686089308931
 6 -10.77870030903090  1.34106449044904 -2.08577788478848
 6  9.36358632563256  1.57015045294529  0.03221784778478
 6 -8.81377186218622 -0.62069562656266 -0.34745579157916
 6  8.02031801780178  2.19928966886689  0.12907857685769
 6 -7.51764690669067 -1.27444177727773 -0.52040737273727
 6  8.08723920492049  3.75304350925093  0.50423178917892
 6 -7.64877598359836 -2.71426117421742 -0.84791496649665
 6  6.83194860186019  1.69578957285729  0.02509250325033
 6 -6.35355715871587 -0.59040451555156 -0.46649965596560
 6  5.54219477147715  2.17695540244024  0.22811772777278
 6 -5.10614173617362 -1.02526240234023 -0.60389256325633
 6  4.51849578057806  1.33490890479048  0.06731110211021
 6 -3.93351877187719 -0.33664987108711 -0.49217654765477
 6  3.06468907390739  1.70357095499550  0.18136980198020
 6 -2.60643440744074 -0.81851618171817 -0.54871253125313
 6  2.65606588758876  3.01526097499750  0.59351206020602
 6 -2.38848434243424 -2.28833613571357 -0.70804184418442
 6  2.12303187818782  0.74498166206621 -0.02849197419742
 6 -1.66711803480348  0.15736544244424 -0.36652847984798
 6  0.68760592959296  0.89736450435044  0.07224310431043
 6 -0.22283115211521 -0.05073717881788 -0.32166980698070
 1  13.67299657165717 -0.61928536363636  1.32964780278028
 1  13.22244748074807 -2.29933051415142  1.63485361736174
 1 -14.12979575657566 -0.42800295729573  1.63342054805481
 1 -14.27503887088709 -0.75006192919292 -0.02358397839784
 1  12.63451865386539 -2.74861960506051 -0.57962602760276
 1 -12.87514297529753  1.67458197619762  1.60049952295230
 1  13.51314224622462 -0.20014273437344 -1.39415529952995
 1  12.99207070007001 -1.40927315441544 -2.37278795479548
 1 -13.66520206420642  1.54412573357336 -1.28072600560056
 1 -12.50971957895790  2.74800686468647 -0.33731061406141
 1  11.52845146514652 -0.89686041214121  3.41919658065807
 1  10.28020388538854  0.10904139403940  2.74208308930893
 1  11.83139240924092  0.59532926582658  2.54227336233623
 1  10.83593259625963 -2.99943052315232  0.52816820282028
 1  10.92738365536554 -3.05862077917792  2.28503842784278
 1  9.42267826882688 -2.22238323142314  1.24054899789979
 1 -11.49550645064506  0.34259983098310  2.51046493949395
 1 -10.64578908790879 -1.23860101510151  2.24115011901190
 1 -12.27529868886889 -1.29039994499450  3.07623021902190
 1 -13.24265404640464 -2.85726697869787  1.10564507350735
 1 -11.41185423342334 -3.04302633063306  0.96209126512651
 1 -12.79663002100210 -2.40817112511251 -0.58384685868587
 1  8.85676750075008 -0.24719303940394  0.76455063906391
 1 -10.04778451045105 -2.17191091509151 -0.51660129312931
 1  9.94946736573657  0.86638673657366 -2.28275297829783
 1  11.79166760176018  1.25329962086209 -2.61780149414942
 1  10.96878111311131 -0.07099758685869 -3.35363249324933
 1 -11.61610261726173  1.45352858185819 -2.74558605160516
 1 -10.10386592559256  0.82445308230823 -2.64041864786479
 1 -10.21257301230123  2.22881149414942 -1.87418101410141
 1  15.02589914291429 -2.89977888298830 -0.04990309730973
 1 -15.27026646164616  1.73198811281128  1.41248945394539
 1  10.19068455045505  2.18480178407841 -0.41109042404240
 1 -8.84664136113611  0.54050614861486 -0.11392620562056
 1  8.78928179017902  4.40709056195620 -0.08898520152015
 1  7.11844523352335  4.31693710261026  0.63181901490149
 1  8.57946265626563  3.65494838173817  1.42116513451345
 1 -8.06978400840084 -3.41909883898390 -0.11096693569357
 1 -8.26746250225023 -3.01362037613761 -1.70876720672067
 1 -6.60827967696770 -3.40589424152415 -1.08158495049505
 1  6.66834849784979  0.57366110901090  0.01934854285429
 1 -6.34709497149715  0.58642848274828 -0.46210858785879
 1  5.42420180418042  3.33667881578158  0.19624187918792
 1 -4.68441226122612 -2.12737404450445 -0.65092249224922
 1  4.74932803180318  0.29218746464646 -0.07448585958596
 1 -3.75194069806981  0.79573469036904 -0.28901610561056
 1  2.94280206520652  3.31387542944295  1.65935213621362
 1  1.62124877787779  3.25258392929293  0.66064847284728
 1  3.20865488748875  3.76214404830483 -0.04081457745775
 1 -2.98904104110411 -2.78067521462146  0.02112906890689
 1 -2.86118562656266 -2.21251237133713 -1.83659762676268
 1 -1.28525532453245 -2.47106728182818 -0.76684972097210
 1  2.50601775977598 -0.14364301540154 -0.32990089408941
 1 -2.02790219121912  1.28181809970997 -0.13264987798780
 1  0.13264901190119  1.80253295919592  0.19842563756376
 1  0.03203597359736 -1.05645559565957 -0.56040362436244

