%nproc=4
%Mem=2GB
# td=(NStates=1) CAM-B3LYP/6-31G(d,p) 

TD

0 1
 8  14.71796001500150 -2.23834130523052 -0.37158601160116
 8 -14.69830642764276  2.11074293029303  0.64639373337334
 6  11.54177747174717 -1.03344397849785  1.23339670067007
 6 -12.30741837383738 -0.90560312031203  0.83269879187919
 6  12.98984771677168 -1.27374041214121  1.13133070507051
 6 -13.72848545754575 -0.12566872687269  0.80457935393539
 6  13.28776077007701 -1.84531005810581 -0.18741363036304
 6 -13.52702504250425  1.31656445444544  0.78077986198620
 6  11.02274080008001 -0.24456867296730 -0.03371761776178
 6 -11.26385348634863 -0.18496952595260 -0.15072582658266
 6  12.91735595459546 -0.87100785788579 -1.33352422542254
 6 -12.71817257725773  1.72996097309731 -0.41460850285028
 6  11.61829657665767 -0.21026139923992 -1.15810432643264
 6 -11.47694128412841  0.89490581358136 -0.70290982998300
 6  11.35811653865387 -0.18954811291129  2.48830927192719
 6  10.75464490549055 -2.36860734183418  1.34841296129613
 6 -11.76941913591359 -0.90410223822382  2.28060664066407
 6 -12.58061876387639 -2.33645908890889  0.43298520252025
 6  9.67098192419242  0.24954599149915  0.13813049304930
 6 -10.07123849084909 -0.99719380438044 -0.38830751175118
 6  11.06412917791779  0.37576204110411 -2.41061526852685
 6 -10.61041348034804  1.51858224222422 -1.78107741474147
 6  9.27532749974997  1.62369580748075 -0.13889926392639
 6 -8.82029251425143 -0.60790434743474 -0.24355540154015
 6  8.02064805080508  2.24225396529653  0.09294496349635
 6 -7.61050619261926 -1.32079641274127 -0.53192852485249
 6  8.05855633663366  3.75066327122712  0.42787415341534
 6 -7.65537664366437 -2.66759650775078 -1.21406158115812
 6  6.85520092709271  1.47802779667967 -0.04137414341434
 6 -6.44599640264026 -0.74856033113311 -0.30819382538254
 6  5.51761231323132  1.99681738863886  0.23563847984798
 6 -5.09690081208121 -1.22888276437644 -0.50129230323032
 6  4.38620255125513  1.27166258015802  0.04800917191719
 6 -3.95507092709271 -0.54275048114811 -0.35495282528253
 6  2.96745935093509  1.67222782068207  0.11995366036604
 6 -2.61665542954295 -0.93236756685669 -0.57218487848785
 6  2.77337761876188  3.16093554245425  0.50567327632763
 6 -2.28050354435444 -2.43231053315332 -0.83055409540954
 6  2.03173274827483  0.79500666456646  0.03911478647865
 6 -1.67900922392239  0.07152685858586 -0.38595042204220
 6  0.60262743174317  0.91099586748675  0.04287016701670
 6 -0.22915178417842 -0.12088419351935 -0.33528116811681
 1  13.61939121112111 -0.25486892199220  1.30187502550255
 1  13.24956019201920 -2.01058163926393  1.91849198119812
 1 -14.24985776277628 -0.63436359335934  1.74376158215822
 1 -14.17633900090009 -0.24537146014601 -0.23078469846985
 1  12.82365756775678 -2.79944468756876 -0.32549061406141
 1 -12.98652411341134  1.71412593059306  1.55308478147815
 1  13.72728366036604  0.01516879677968 -1.36276216021602
 1  12.92355384838484 -1.53165539263926 -2.33481415741574
 1 -13.30425596959696  1.67259858085809 -1.30128806180618
 1 -12.41514012101210  2.65340740474047 -0.45466234923492
 1  11.69193781378138 -0.69694042014201  3.39634429542954
 1  10.33758962396240  0.00433092299230  2.79061794279428
 1  11.67201647164717  0.79322905580558  2.16571570657066
 1  11.07350635363536 -3.06236681678168  0.44980036603660
 1  11.10296121312131 -2.96736165326533  2.24870479447945
 1  9.75508150915092 -2.21331232433243  1.55266020902090
 1 -11.54340124012401  0.10744631563156  2.62839673267327
 1 -10.83794830383038 -1.26133328832883  2.09355535953595
 1 -12.40771193019302 -1.67147805280528  2.89815241124112
 1 -13.14131391239124 -2.88007925992599  1.02829733873387
 1 -11.52251529952995 -2.69512154015402  0.73862891889189
 1 -12.74859521752175 -2.61662197019702 -0.57525599959996
 1  8.93229505350535 -0.31666998709871  0.70849503350335
 1 -10.46074580658066 -1.98272199619962 -0.73378301130113
 1  10.01723414241424  0.53626372427243 -2.59054375737574
 1  11.64185262026203  1.19749404030403 -2.69972968696870
 1  11.31444567956796 -0.25499598669867 -3.31748887888789
 1 -11.17929893689369  1.52240546954695 -2.65801729472947
 1 -9.58475401440144  0.92660329732973 -1.80419502550255
 1 -10.54815657065707  2.60017863086309 -1.32582617861786
 1  14.83157971097110 -2.84940384548455  0.32270416341634
 1 -15.14078351335134  2.16502141614161  1.56353455845585
 1  10.09921540354035  2.24708801270127 -0.48979829482948
 1 -8.56418311531153  0.38874097209721  0.18025321232123
 1  8.49443230523052  4.26053590649065 -0.53731003400340
 1  6.99734312331233  4.06664207310731  0.75471130413041
 1  8.65839054905491  3.85600848774877  1.40228324632463
 1 -8.32027905790579 -3.40739766886689 -0.63923976297630
 1 -7.84412016801680 -2.62227124122412 -2.18356468646865
 1 -6.60994984398440 -3.11117476957696 -1.05217200920092
 1  6.84852651565157  0.49402314521452 -0.42338573057306
 1 -6.51342160416042  0.26060590049005 -0.03098547554756
 1  5.32710209420942  3.08255340324032  0.60940319531953
 1 -4.92876669666967 -2.21594290139014 -1.17751515151515
 1  4.60076317531753  0.34246249214921 -0.42605101610161
 1 -3.96700220422042  0.39570468736874  0.20579337533753
 1  3.13426121112111  3.29586362826283  1.55475167616762
 1  1.55837249024903  3.58670734163416  0.56709911791179
 1  3.34940896289629  3.62806063996400 -0.19148964496450
 1 -2.91627376437644 -2.94306145324532 -0.07723076707671
 1 -2.70649015701570 -2.72396351645164 -1.84554852185219
 1 -1.21432823182318 -2.66915709080908 -0.86180921692169
 1  2.28398555655566 -0.22425107620762 -0.12254015801580
 1 -2.03073247424742  0.98841875977598 -0.14585119811981
 1  0.10041578857886  1.88137084298430  0.33609940494049
 1  0.17238000800080 -1.09704965506551 -0.83529111311131

