%nproc=4
%Mem=2GB
# td=(NStates=1) CAM-B3LYP/6-31G(d,p) 

TD

0 1
 8  14.69990820982098 -2.27473494459446 -0.36660551355136
 8 -14.49160575757576  2.29984184018402  0.99888898289829
 6  11.56799009300930 -0.95499613371337  1.28877223822382
 6 -12.40070770277028 -0.91348390839084  0.70792631463146
 6  12.89508824082408 -1.42521555965597  1.06610418241824
 6 -13.66943955295529 -0.11955811581158  0.73320221622162
 6  13.31681367536754 -2.02651817891789 -0.27830271927193
 6 -13.34521686168617  1.49002180018002  0.87834961896190
 6  11.02830135613561 -0.27539175527553 -0.04167841384138
 6 -11.40545764676468 -0.22163319231923 -0.18872962696270
 6  13.13154737373737 -0.84077483458346 -1.32421329432943
 6 -12.58290905090509  1.92283026002600 -0.38233527552755
 6  11.69992473947395 -0.13550392349235 -1.19639815581558
 6 -11.46332992299230  1.00577690069007 -0.76913645264526
 6  11.42222294929493  0.12409325122512  2.42317275827583
 6  10.59051849284928 -2.14745522662266  1.60525864586459
 6 -11.97631982598260 -1.12913474147415  2.17827640764076
 6 -12.74140484248425 -2.34148959195920  0.08286019001900
 6  9.62971779777978  0.33551458835884  0.14964164416442
 6 -10.13499486648665 -1.10942502750275 -0.53385206620662
 6  11.16528929392939  0.43769823472347 -2.38284249124913
 6 -10.53882632163216  1.64446483048305 -1.73730303730373
 6  9.36925689268927  1.61429486738674 -0.14647002100210
 6 -8.89240972597260 -0.74283784078408 -0.23184423042304
 6  8.09640562656265  2.24262400230023  0.03681935093509
 6 -7.60607574957496 -1.41660599369937 -0.48847417941794
 6  8.10799128012801  3.78565677057706  0.23821518751875
 6 -7.72051315731573 -2.88925867396740 -1.05971614661466
 6  6.87581298829883  1.61141113501350 -0.06130613661366
 6 -6.49204100710071 -0.75624109920992 -0.41244425042504
 6  5.51077162916292  2.10174788168817  0.09685460146015
 6 -5.09434055605560 -1.18179805590559 -0.52563473747375
 6  4.40275420642064  1.41437685158516 -0.05076070507051
 6 -4.01785720572057 -0.52538874497450 -0.17989531953195
 6  2.98871147614762  1.63957455535554  0.04721638663866
 6 -2.65502926692669 -1.00815514561456 -0.39472713271327
 6  2.72473275427543  3.02540198909891  0.64794750375038
 6 -2.38083357735774 -2.48777607970797 -0.78309934993499
 6  2.06832640764076  0.60561772567257 -0.08643776877688
 6 -1.70254157715772 -0.02516281038104 -0.12819464646465
 6  0.63683085208521  0.70677544544454  0.10367624762476
 6 -0.22334120312031 -0.22585469056906 -0.35259289928993
 1  13.60342961496150 -0.43312674777478  1.20140497849785
 1  13.00144538053805 -2.26212679377938  1.76344647664767
 1 -14.15548832583258 -0.44974513151315  1.43663086908691
 1 -14.12751411841184 -0.10745766876688 -0.25448706870687
 1  12.64674987698770 -3.04397914101410 -0.47352541754175
 1 -12.63116857785779  1.52577709570957  1.85270474347435
 1  14.07756868886889 -0.16501922202220 -1.27054293829383
 1  13.40765225822582 -1.12533476057606 -2.32756343234323
 1 -13.34494003800380  1.76514783578358 -1.23153108610861
 1 -12.36536514351435  3.00916298029803 -0.39942682568257
 1  11.93175179517952 -0.30624135023502  3.44856951795180
 1  10.34314017901790  0.06769725962596  2.75687456845685
 1  11.78235750575057  1.08791852475248  2.10366950195019
 1  10.59193819681968 -2.69414999509951  0.72571795779578
 1  10.86223714071407 -2.59517443454345  2.71653157715772
 1  9.57042304330433 -1.83978497159716  1.75341028402840
 1 -11.93277017701770 -0.22834726372637  2.93637753075308
 1 -10.93919842884288 -1.56556371137114  1.99900590459046
 1 -12.62974413341334 -1.90372127712771  2.63635623162316
 1 -13.80647042804280 -2.88723997599760  0.27306181518152
 1 -11.93822687068707 -3.00849287728773  0.45009006500650
 1 -13.03391374937494 -1.96102641064106 -1.07433590759076
 1  8.70893271727173  0.00635231513151  0.81376556055606
 1 -10.46005573757376 -2.06896062006201 -0.79035866886689
 1  10.11775419441944  0.84763486138614 -2.32503720672067
 1  11.79817825282528  1.19464375527553 -2.98236795079508
 1  11.24438867386739 -0.36022650975098 -3.09959708970897
 1 -11.19223023002300  2.20427365636564 -2.45874736773677
 1 -9.82685822482248  0.89281991899190 -2.22051665766577
 1 -10.07054880988099  2.47029564256426 -1.33326692269227
 1  15.01455800880088 -3.08272717781778  0.13975586858686
 1 -15.12541197619762  1.58269318331833  1.71664986998700
 1  10.02163764576458  2.37235053895390 -0.50527984298430
 1 -8.72675937293729  0.34245634363436  0.05178036503650
 1  8.90056291829183  4.23370322322232 -0.40108641164116
 1  7.15966935593559  4.13343875277528 -0.01917608460846
 1  8.58800351035103  3.77014990189019  1.22834585258526
 1 -8.29684671467147 -3.53334026312631 -0.33925976497650
 1 -8.21731748774878 -2.74823383748375 -2.21910824082408
 1 -6.77125597459746 -3.52693634573457 -1.32157894989499
 1  7.10485214821482  0.38653239613961 -0.07536092809281
 1 -6.45254551655165  0.26007584748475  0.07491511451145
 1  5.37698708270827  3.26583173107311  0.26204845984598
 1 -4.99139295929593 -2.15090639773977 -0.96827422742274
 1  4.32089518851885  0.30684893079308 -0.33926233723372
 1 -4.18559406340634  0.51496661356136  0.26103889988999
 1  3.38245603060306  3.16304034593459  1.57417361836184
 1  1.63123977697770  3.12330100100010  0.93403581158116
 1  2.86352037403740  3.86601443534353 -0.03113360936094
 1 -2.90082221922192 -3.01069821692169 -0.07273031703170
 1 -2.68352786078608 -2.62408352845285 -2.01403537053705
 1 -1.36492329132913 -2.69733990909091 -0.42027506350635
 1  2.46362352035204 -0.47432608370837 -0.12208011201120
 1 -2.06221562256226  1.11147106500650 -0.01321793479348
 1  0.29730547754775  1.69736244214421  0.48402419741974
 1  0.30176294629463 -1.08929887998800 -0.54190177417742

