%nproc=4
%Mem=2GB
# td=(NStates=1) CAM-B3LYP/6-31G(d,p) 

TD

0 1
 8  14.69540775977598 -2.16235370647065 -0.31547040004000
 8 -14.66145274227423  2.05325718171817  0.93204229822982
 6  11.47005029902990 -1.04120475457546  1.24678803980398
 6 -12.37324495649565 -0.83911647164716  0.91608713071307
 6  12.93456218821882 -1.35628866696670  1.06448402040204
 6 -13.75816842584258 -0.19673583358336  0.86633552955296
 6  13.31320331433143 -1.86659218631863 -0.25315020402040
 6 -13.42617495749575  1.43238603660366  0.84228601260126
 6  10.91097962396240 -0.33858807490749 -0.01547579357936
 6 -11.34235133613361 -0.26878790779078 -0.03517427142714
 6  12.93627784678468 -0.88470922802280 -1.40106097909791
 6 -12.79187994799480  1.68146612361236 -0.45398244024402
 6  11.61268601560156 -0.23399377247725 -1.16510502650265
 6 -11.56180977097710  0.80448677167717 -0.84340387938794
 6  11.22355308230823 -0.27297645574557  2.50458089908991
 6  10.59071851285129 -2.38569905100510  1.43926204620462
 6 -11.59136133013301 -0.84165599359936  2.18763734373437
 6 -12.51498220022002 -2.36370181318132  0.43263516751675
 6  9.66148097409741  0.35571660856086  0.28140482048205
 6 -10.13237460446045 -1.02317640264026 -0.44819350035004
 6  11.14332709770977  0.36632109700970 -2.44711891889189
 6 -10.66172861186119  1.33099348334833 -1.92001130813081
 6  9.35312527952795  1.59338277617762 -0.09727510151015
 6 -8.79064954995500 -0.58581213821382 -0.30895194119412
 6  7.98430441644164  2.27130687058706  0.11290695969597
 6 -7.50801594359436 -1.30147448054805 -0.65874120612061
 6  8.02777325832583  3.75133333823382  0.43361472747275
 6 -7.78441954795480 -2.70272002010201 -1.15447562256226
 6  6.87024243124312  1.55251524542454  0.02327232123212
 6 -6.35866766976698 -0.70158563366337 -0.50178318431843
 6  5.56077662966297  2.03330103700370  0.16536145214521
 6 -5.01779290129013 -1.15982585868587 -0.54318649264926
 6  4.40108403940394  1.24808022192219 -0.03087871687169
 6 -3.96658207820782 -0.42408861496150 -0.34523185318532
 6  3.07959056405641  1.66388698659866  0.00777244224422
 6 -2.62153591759176 -0.84919925002500 -0.45318297829783
 6  2.69956023702370  3.06521597049705  0.70195290429043
 6 -2.33725921992199 -2.24133143524352 -0.74861590159016
 6  2.11038061306131  0.71415857975798 -0.17947707270727
 6 -1.59291061406141  0.10178988488849 -0.32758458545855
 6  0.70379754875488  0.91371613951395  0.00517639763976
 6 -0.11903077207721 -0.04572667776778 -0.43375101510151
 1  13.53675294729473 -0.41272470757076  1.31099593759376
 1  13.19665490149015 -2.09804038513851  1.96524665666567
 1 -14.31756453345335 -0.08381853885389  1.78527573357336
 1 -14.39661102810281 -0.41938886188619 -0.07507912791279
 1  12.80902610461046 -2.67707245034503 -0.56689475447545
 1 -12.88257371837184  1.72028654665467  1.59574904790479
 1  13.59653058505851 -0.14933765386539 -1.28706459045905
 1  13.22465395839584 -1.61318354545455 -2.16237691369137
 1 -13.50514605860586  1.43241456245625 -1.26500443344334
 1 -12.39066767376738  2.70086215021502 -0.54127101010101
 1  11.92649126912691 -0.46910763686369  3.42873753475347
 1  10.15010087508751 -0.26928643874387  2.81379026002600
 1  11.73814308430843  0.48588832173217  2.30950008500850
 1  10.94085308830883 -3.19055963606361  0.68889427542754
 1  10.85129604660466 -2.95912082918292  2.40941086508651
 1  9.47261326232623 -2.02827382048205  1.45054999799980
 1 -11.58164506450645  0.28336390739074  2.83921781478148
 1 -10.73202771177118 -1.40076723172317  2.12691869586959
 1 -12.05724688368837 -1.36806771177118  2.89211180718072
 1 -13.22907268826883 -2.71768302030203  1.38361287028703
 1 -11.53548659665966 -3.12879490749075  0.38302335833583
 1 -13.26314667266727 -2.48019832783278 -0.55543401740174
 1  8.97869969396940 -0.24195251535154  0.99412359635964
 1 -10.22508224022402 -1.92114583858386 -0.89311894489449
 1  9.94690710971097  0.53781387928793 -2.28483318631863
 1  11.59870830583058  1.41767605850585 -2.73974368836884
 1  11.38032226722672 -0.27618810591059 -3.28444557455746
 1 -11.41911291829183  1.79702293129313 -2.59551104410441
 1 -9.99203474247425  0.50754139113911 -2.26914152015202
 1 -10.07153890889089  2.24297291029103 -1.52156575257526
 1  14.99222577557756 -2.60092899799980  0.51034292729273
 1 -15.10266970197020  1.63388830283028  1.70739894489449
 1  10.15641112311231  2.03766707060706 -0.50663997899790
 1 -8.55027172417242  0.45004710271027 -0.07481229422942
 1  8.59870273227323  4.26891674457446 -0.30744704770477
 1  7.10669405840584  4.25426083498350  0.47730356335634
 1  8.47038174817482  3.89003189008901  1.28012103010301
 1 -8.18288531853185 -3.39269619871987 -0.39733557255726
 1 -8.30103585958596 -2.63929294339434 -2.02083841384138
 1 -6.77300614961496 -3.15948960106011 -1.59752654465447
 1  6.91873353635363  0.58764250715072 -0.25045843784378
 1 -6.51643190519052  0.26986682658266 -0.09584196119612
 1  5.40153953795379  3.16609175707571  0.36529878487849
 1 -4.87134095409541 -2.18053936103610 -0.95085248524852
 1  4.73037613661366  0.25551379727973 -0.47245565656566
 1 -3.99373487748775  0.61303642054205 -0.01987919191919
 1  3.38991677667767  3.39466350825083  1.58608480948095
 1  1.65819247224722  3.01777044794479  0.58954136213621
 1  3.00747476947695  3.77396523042304  0.03126263026303
 1 -2.31332346934694 -2.96471361846185  0.38940589658966
 1 -2.94192370037004 -2.86995811591159 -1.62106607360736
 1 -1.21874867386739 -2.06153632873287 -1.18314135013501
 1  2.36516367436744 -0.08844749584958 -0.58344624862486
 1 -1.98178757975798  1.16711662956296 -0.23895050805081
 1  0.11168691569157  1.68109081498150  0.45455125012501
 1  0.07800057005701 -0.95612556265627 -1.02515009900990

