%nproc=4
%Mem=2GB
# td=(NStates=1) CAM-B3LYP/6-31G(d,p) 

TD

0 1
 8  14.76774499349935 -2.28157562866287 -0.38989784278428
 8 -14.86345294229423  1.80876273227323  0.80646974097410
 6  11.42038533253325 -1.06327696179618  1.22616597759776
 6 -12.35563319531953 -0.95551811181118  0.83121864386439
 6  13.02096082808281 -1.43984702280228  1.15908348034803
 6 -13.65957856685669 -0.20842700270027  0.85568446444644
 6  13.37621961596160 -1.97007253435344 -0.21863675267527
 6 -13.56355869586959  1.26772957095710  0.79307109110911
 6  10.94451297729773 -0.29309352545255 -0.00235448144814
 6 -11.37076417741774 -0.34577560656066 -0.15693644764476
 6  12.97855207420742 -0.87662841994199 -1.22829370237024
 6 -12.83841460146015  1.71665964296430 -0.35382242424242
 6  11.59198394539454 -0.37430780388039 -1.10080859685969
 6 -11.59399298929893  0.91964828782878 -0.72998253725373
 6  11.28123885088509 -0.20306946504650  2.53989443044304
 6  10.67198663966397 -2.38594907600760  1.34719283928393
 6 -11.68480067406741 -0.96040786878688  2.25088366836684
 6 -12.67520822282228 -2.40744618761876  0.37037894189419
 6  9.73445827182718  0.36474751165117  0.18736541654165
 6 -10.14074544154415 -0.98195228022802 -0.40151883288329
 6  11.19343210821082  0.28931339623962 -2.27852205920592
 6 -10.77047948694870  1.59457984198420 -1.79195850285028
 6  9.33317328432843  1.62512595049505 -0.17073244724472
 6 -8.87229771477148 -0.50689424642464 -0.25597664366437
 6  8.03767975397540  2.32439217911791  0.08067373637364
 6 -7.60178532053205 -1.21845617871787 -0.49818515051505
 6  8.19945042604260  3.80811901680168  0.38316968296830
 6 -7.61392249824983 -2.65263501160116 -1.04119429442944
 6  6.96214162116212  1.60483047694769 -0.01689169516952
 6 -6.40009181218122 -0.60095557065707 -0.36933993999400
 6  5.57240779277928  2.05853356025603  0.16627154315432
 6 -5.11041216321632 -1.16453632973297 -0.48583075707571
 6  4.41372530353035  1.28001341524152  0.02487685868587
 6 -3.96740216021602 -0.40243644974497 -0.32134946494649
 6  3.04291689668967  1.70307090499050  0.16470813581358
 6 -2.54272803680368 -0.78805313541354 -0.55094275427543
 6  2.80078035903590  3.15057450635063  0.36123883288329
 6 -2.40216571057106 -2.19410671277128 -0.94362540254025
 6  2.14046362136214  0.76761392529253 -0.20385951095110
 6 -1.61888321132113  0.10127983388339 -0.32468429542954
 6  0.71005817481748  0.97307207510751 -0.12223634363436
 6 -0.22018088708871  0.01485938083808 -0.38439607960796
 1  13.54009328132813 -0.45883931903190  1.17912275027503
 1  13.27273250925093 -2.12971355245525  2.13366349834984
 1 -14.27949072607261 -0.56796695369537  1.72619982598260
 1 -14.28619998699870 -0.65286220922092 -0.17124874487449
 1  12.79106430843084 -2.97652239533953 -0.23023108810881
 1 -13.09655511651165  1.71873639163916  1.68579805280528
 1  13.59157008900890 -0.08172089218922 -1.23096898089809
 1  13.05196668966897 -1.17951017811781 -2.24290496649665
 1 -13.46833237723772  1.53785510651065 -1.36472440544054
 1 -12.62859146614661  2.82503456745675 -0.31373825682568
 1  11.56156477647765 -0.79169989608961  3.48141280228023
 1  10.32401826682668  0.18658914881488  2.60677955895590
 1  11.85672494249425  0.71964169706971  2.46187532253225
 1  10.77682668566857 -3.12171275137514  0.42888827482748
 1  10.97891880888089 -3.07568248534853  2.16183610761076
 1  9.50654665566557 -2.35605659875988  1.45331027402740
 1 -11.43250015001500  0.00869644064406  2.66105999899990
 1 -10.75443995299530 -1.58472562756276  2.42335833983398
 1 -12.41245240424042 -1.44688559355936  3.00306290229023
 1 -13.48511829282928 -2.61539279127913  1.21506601560156
 1 -11.71923497149715 -3.02659468746875  0.41980703670367
 1 -13.07694805280528 -2.67991829982998 -0.78727720172017
 1  8.86124794879488 -0.27708602870287  0.38860304430443
 1 -10.32175190719072 -2.10394411841184 -0.66459609260926
 1  10.10196261526153  0.57024712261226 -2.22475717871787
 1  11.84414284928493  1.12779707060706 -2.38806852085209
 1  11.39113334833483 -0.38387887498750 -3.22054918491849
 1 -11.39177018401840  1.97396062506251 -2.66302779577958
 1 -10.14172971197120  0.82792342934293 -2.24219882588259
 1 -10.01714346934694  2.43713232623262 -1.46244984098410
 1  14.96967352035204 -2.80862976807681  0.45569746274627
 1 -15.47963739873987  1.51589650365036  1.46101430643064
 1  10.30322580458046  2.19526283018302 -0.46658597359736
 1 -8.77816451345135  0.45781787978798 -0.03073788678868
 1  8.91760462246225  4.20288014091409 -0.57843414641464
 1  7.22335572457246  4.49135454435444  0.46631246424642
 1  8.98180289028903  4.11072395929593  1.23127614561456
 1 -7.95380241024102 -3.37289421852185 -0.16027186618662
 1 -8.32119787578758 -2.76378539263926 -1.74405073507351
 1 -6.58774762376238 -3.25319897199720 -1.52702949494950
 1  6.98325998899890  0.41026476937694 -0.02699609160916
 1 -6.51680194219422  0.46865670557056 -0.07955033203320
 1  5.38570795479548  3.14443959185919  0.42981523652365
 1 -5.01688550855086 -2.24365567266727 -0.94105150515052
 1  4.51124422342234  0.32646089198920 -0.13370178117812
 1 -4.09600510451045  0.74403952085209 -0.22557976197620
 1  3.13747153215322  3.29090313221322  1.55820202120212
 1  1.77015366836684  3.55611428232823  0.21986439443944
 1  3.28161218321832  3.77489532343234 -0.47550804680468
 1 -2.68347048404840 -2.79772691979198 -0.15398844284428
 1 -2.78148765676568 -2.52051317141714 -1.90450441744174
 1 -1.24468126712671 -2.35876605170517 -1.47056009200920
 1  2.54684184218422 -0.20947959905991 -0.38046595059506
 1 -1.99249865086509  1.13214313221322  0.12335572257226
 1  0.49997574457446  2.02625533143314  0.15513130813081
 1  0.12080485048505 -1.10468041814181 -0.67019460346035

