%nproc=4
%Mem=2GB
# td=(NStates=1) CAM-B3LYP/6-31G(d,p) 

TD

0 1
 8  14.64384260326033 -2.47042451355136 -0.49589844284428
 8 -14.82438903590359  1.91510336633663  0.82904199819982
 6  11.45330862486249 -0.96361699579958  1.28009137013701
 6 -12.28206583858386 -1.00340290029003  0.93258878087809
 6  12.99972870487049 -1.41749478757876  1.02703027502750
 6 -13.63070567956796 -0.25225138513851  1.02785168116812
 6  13.30731272527253 -2.11586711381138 -0.28333322232223
 6 -13.51473381338134  1.25763856185619  0.73930571457146
 6  10.97829635563556 -0.25274949104910  0.08672442644264
 6 -11.40084718571857 -0.34994602360236 -0.25907666166617
 6  12.91491571057106 -0.99366012311231 -1.34632550555055
 6 -12.92618337833783  1.58108608560856 -0.61978902090209
 6  11.60220496749675 -0.23751412451245 -1.11790030603060
 6 -11.61832542254225  0.84059038203820 -0.89799933893389
 6  11.39785051205121 -0.19841900000000  2.50186062706271
 6  10.60852029302930 -2.27234771587159  1.36545466546655
 6 -11.60073226722672 -0.90232206020602  2.27576615661566
 6 -12.44943564556456 -2.49880532353235  0.58807071107111
 6  9.64256908290829  0.43573461036104  0.20546722672267
 6 -10.13660502750275 -1.04623870887089 -0.38847752875288
 6  11.12887565256526  0.34475894079408 -2.36601080808081
 6 -10.83812625162516  1.44720510451045 -2.03558286528653
 6  9.38280824782478  1.71169460736074 -0.13233860786079
 6 -8.90957144214421 -0.53386694369437 -0.32567361336134
 6  8.08992497849785  2.29452919281928  0.12757842684268
 6 -7.61775691769177 -1.21686601970197 -0.56797212921292
 6  8.11424190519052  3.75942414731473  0.62006337233723
 6 -7.79394050005001 -2.73534328242824 -0.90830100510051
 6  6.95879128612861  1.57345733963396  0.06000599459946
 6 -6.41460326332633 -0.50553602870287 -0.49650265626563
 6  5.57644819681968  2.12734044094409  0.27479239523952
 6 -5.09784090609061 -0.97673754985499 -0.56165833983398
 6  4.55840977197720  1.23889930383038  0.01022539353935
 6 -4.03407882788279 -0.19392559865987 -0.50567789778978
 6  3.20332293729373  1.59304990289029  0.08969063406341
 6 -2.62096586058606 -0.69703403350335 -0.67238489848985
 6  2.82169245024502  3.01358080698070  0.60261297029703
 6 -2.26762225622562 -2.19011631373137 -0.79770081008101
 6  2.14247382238224  0.71709887378738 -0.22107123212321
 6 -1.59047037003700  0.25832553845385 -0.33355518251825
 6  0.77198436743674  0.98962373027303 -0.00166428642864
 6 -0.21012988198820  0.00378827372737 -0.29774741474147
 1  13.68211748374837 -0.61084451955196  1.24136897489749
 1  13.19062429842984 -2.29970055115512  1.69203933593359
 1 -14.19691246824683 -0.27686784378438  1.88685589158916
 1 -14.31463283028303 -0.56589351235123  0.24164254425443
 1  12.53098830083008 -2.98752349544954 -0.47829589458946
 1 -12.97786324732473  1.79990450845085  1.62090156315632
 1  13.87847877987799 -0.35620834093409 -1.26467235123512
 1  12.77521901490149 -1.43958618571857 -2.35146582258226
 1 -13.63098864286429  1.23376469746975 -1.35646357935794
 1 -12.72979158615862  2.75120718471847 -0.66528341134113
 1  11.80651927192719 -0.85381610771077  3.37643230423042
 1  10.43130899589959 -0.01966147624762  2.81685056605661
 1  11.83113238323832  0.66232596549655  2.47379651465147
 1  10.90015901890189 -2.65463604370437  0.17795318131813
 1  11.04386530353035 -3.14701961906191  2.01047097109711
 1  9.52851885288529 -2.18104909800980  1.58503344634463
 1 -11.27405430543054  0.24446001700170  2.65385927892789
 1 -10.57988249724973 -1.41071822682268  2.33530953495350
 1 -12.19248040704070 -1.19983088808881  2.99251184718472
 1 -13.32202198319832 -2.86023727572757  1.32221673067307
 1 -11.54228727672767 -3.11935396339634  0.86944200020002
 1 -12.72864322232223 -2.60602091009101 -0.38402687668767
 1  8.96435825982598 -0.12483080318032  0.67882206620662
 1 -10.36995672767277 -2.05691941594159 -0.43518315131513
 1  10.09271169016902  0.69490958885889 -2.11727643064306
 1  11.77406584158416  1.29586387728773 -2.63328304230423
 1  11.28742297729773 -0.48913940104010 -3.11679880988099
 1 -11.68196920392039  1.33646687568757 -2.96802829582958
 1 -10.07244278327833  0.75557619461946 -2.12930753675368
 1 -10.58919067406741  2.51868048104810 -1.89635323132313
 1  14.89472602560256 -3.04487339243924  0.34454634763476
 1 -15.18977841284128  1.55577049104910  1.59707791279128
 1  10.19213469546955  2.41213451735173 -0.42432174717472
 1 -8.88426512351235  0.61033313131313 -0.21644645764576
 1  9.04805766776678  4.46333618651865  0.34286798379838
 1  7.17196058505851  4.07070247914791  0.32778861186119
 1  8.03392810281028  3.69274216111611  1.81873489148915
 1 -8.36911394139414 -3.25062199129913  0.18010217121712
 1 -8.41085684168417 -2.93520253435343 -1.65902223222322
 1 -6.81901075007501 -3.32577622972297 -0.86573336533653
 1  6.97612927592759  0.52776651955196 -0.32246563856386
 1 -6.65798606060606  0.64250409030903 -0.51106348334834
 1  5.48248763276328  3.19452460036004  0.59402165716572
 1 -4.97374119411941 -2.05716702380238 -0.69221662166217
 1  4.75669876887689  0.18476672257226 -0.32122053305331
 1 -4.22395789978998  1.00390550745075 -0.76962416641664
 1  3.35890367536754  3.26962100400040  1.53202940394039
 1  1.74357101010101  3.11692036293629  1.04918732673267
 1  2.95986000800080  3.78665649954995 -0.16955745174517
 1 -2.67637977497750 -2.78035518261826 -0.11808485248525
 1 -2.94804431243124 -2.55149626972697 -1.68887285428543
 1 -1.13170996999700 -2.27805798089809 -1.13046608260826
 1  2.17227438543854 -0.36640529162916 -0.58327623162316
 1 -1.89447884888489  1.30538045594559 -0.07266387938794
 1  0.35784153115312  2.08473117901790  0.46644243924392
 1  0.09220199019902 -0.99620957105711 -0.82577016101610

