%nproc=4
%Mem=2GB
# td=(NStates=1) CAM-B3LYP/6-31G(d,p) 

TD

0 1
 8  14.64217243624362 -2.28313578467847 -0.36626547954796
 8 -14.68425502250225  2.14607646364636  0.73710280428043
 6  11.34156745074507 -1.14291492559256  1.25823918491849
 6 -12.44125175717572 -0.87336989698970  0.85861138313831
 6  12.84270300230023 -1.50544358245825  1.07113468546855
 6 -13.76232884188419 -0.13470963096310  0.79391828782878
 6  13.24089608360836 -2.00325585268527 -0.29675456445645
 6 -13.52878521852185  1.39374217221722  0.86286807080708
 6  11.03826235223522 -0.35500971707171  0.08650440444044
 6 -11.35323242424242 -0.37697872687269 -0.12287304130413
 6  12.97602182118212 -0.90826158325833 -1.31266213921392
 6 -12.66827758775878  1.76633461046105 -0.33304034603460
 6  11.63260800780078 -0.29470984408441 -1.14859337533753
 6 -11.40416400640064  0.86955327832783 -0.73002254125413
 6  11.23678440544055 -0.16816597469747  2.47378781978198
 6  10.52610205120512 -2.39420990209021  1.41706982698270
 6 -11.80742293629363 -1.00470229822982  2.19619819981998
 6 -12.61202190419042 -2.47931337433743  0.31918382238224
 6  9.68302312831283  0.29357039393939  0.22779945994599
 6 -10.07701906890689 -1.12732681768177 -0.43195187618762
 6  11.19815258025803  0.56327079197920 -2.25357956495650
 6 -10.62935537453745  1.40098048204820 -1.91651095809581
 6  9.39904987198720  1.68606204410441  0.01984661066107
 6 -8.88689917491749 -0.63974753175318 -0.29587063306331
 6  8.03833981998200  2.30255999589959  0.11693736273627
 6 -7.62544768676868 -1.41619595269527 -0.43809914191419
 6  8.05010549154916  3.75509371427143  0.44729609560956
 6 -7.71322242824282 -2.86412616071607 -0.85953612861286
 6  7.05475088208821  1.51805179907991 -0.17658766476648
 6 -6.47089889288929 -0.70789626472647 -0.30245325132513
 6  5.62132268426843  2.11109881678168 -0.04903998799880
 6 -5.13262438443844 -1.21699157525753 -0.51922409640964
 6  4.47791172217222  1.32555796969697 -0.11072670167017
 6 -4.03082850285028 -0.46523272937294 -0.30581791179118
 6  3.16614921992199  1.77571816971697  0.05703736873687
 6 -2.50416418041804 -0.79942427252725 -0.46424408440844
 6  2.80342062306231  3.09739918881888  0.64439714871487
 6 -2.29429492349235 -2.13914121622162 -0.94125516551655
 6  2.10581015601560  0.90034719861986 -0.29053817881788
 6 -1.58802012501250  0.16692639853985 -0.28983081008101
 6  0.73518068706871  1.00918568646865 -0.04927904790479
 6 -0.14884375337534  0.04858275317532 -0.35965360536054
 1  13.19903917591759 -0.64887832293229  1.14565940394039
 1  13.34230946694669 -2.13253383448345  1.91435156715672
 1 -14.47857063406341 -0.55029518651865  1.51887909390939
 1 -14.26014738173818 -0.44592151515152 -0.05574719471947
 1  12.81068627062706 -3.07702244534453 -0.68840690569057
 1 -12.93174863586359  1.68343286128613  1.67799727272727
 1  13.71343227522752  0.00921820172017 -1.34943082708271
 1  13.01796328932893 -1.27694992209221 -2.23513418941894
 1 -13.40616616061606  1.61619294029403 -1.11354928792879
 1 -12.28670727772777  2.78721078507851 -0.35280216321632
 1  11.68050667066707 -0.57936866296630  3.36353101410141
 1  10.18388425342534  0.14494498439844  2.82392127312731
 1  11.69308857885789  0.76528626152615  2.38871800680068
 1  10.62422142514251 -3.04533511361136  0.44968035403540
 1  10.82873379037904 -3.00482539963996  2.18604852885289
 1  9.43567956895690 -2.07246823992399  1.43000794379438
 1 -11.53992089208921  0.07165273627363  2.27984187718772
 1 -10.94660916991699 -1.62464961996200  2.24845084908491
 1 -12.51813297229723 -1.36973787878788  3.03211580758076
 1 -13.41955173617362 -2.87952920492049  0.96920142914291
 1 -11.73135618361836 -2.94769679767977  0.43270832683268
 1 -13.09535989398940 -2.48574888288829 -0.62379085308531
 1  8.80481230523052 -0.30057837793779  0.61192537653765
 1 -10.30997072907291 -2.12559628362836 -0.73069270227023
 1  10.25624804380438  0.86223632153215 -2.19984468746875
 1  12.00990942594260  1.27255154605461 -2.40310002400240
 1  11.11567580258026  0.05320483338334 -3.23338046804680
 1 -11.26550755775578  2.00961419041904 -2.71061255425543
 1 -10.07214275327533  0.63429406640664 -2.32447705370537
 1 -9.95828758375838  1.97787640064006 -1.33074667066707
 1  14.86045259825982 -2.97498640374037  0.30668256125613
 1 -15.21720115511551  1.73734864886489  1.51086929192919
 1  10.19328481048105  2.31538484238424 -0.60276959195920
 1 -8.60255695269527  0.28152025002500  0.20944613161316
 1  8.78055091709171  4.33356320922092 -0.25897220022002
 1  6.99738312731273  4.28252366126613  0.29075490849085
 1  8.36999170917092  3.91436432333233  1.37116013401340
 1 -8.37777480748075 -3.52495942504250 -0.20422626162616
 1 -7.99582533853385 -2.90901991609161 -1.95503183318332
 1 -6.76234508350835 -3.32641629372937 -0.73995078707871
 1  7.11267293029303  0.69399314221422 -0.75098849084908
 1 -6.63329359135914  0.27637747764776 -0.00630300730073
 1  5.46216560056006  3.19554470237024  0.07237949294930
 1 -5.07213103310331 -2.18951025812581 -0.97140454045405
 1  4.68767186618662  0.20896914281428 -0.14429284028403
 1 -3.92802830683068  0.71729684658466 -0.05704290829083
 1  3.14889267426743  3.37602164406441  1.63608980998100
 1  1.60689734273427  3.21861053195320  0.69689209720972
 1  3.09875389738974  3.80564839873987  0.11488099209921
 1 -2.68826096309631 -2.91719886698670 -0.29538258225823
 1 -2.71295080308031 -2.16548766886689 -1.97880184718472
 1 -1.17613441244124 -2.23885406050605 -1.02727576357636
 1  2.43608076607661 -0.04358300940094 -0.92839074307431
 1 -2.03731313231323  1.14931484938494  0.00794418141814
 1  0.18086383338334  1.84477718361836  0.65050084508451
 1  0.35765853585359 -1.10217016711671 -0.13632121612161

