%nproc=4
%Mem=2GB
# td=(NStates=1) CAM-B3LYP/6-31G(d,p) 

TD

0 1
 8  14.69735795479548 -2.33125059615962 -0.29499835283528
 8 -14.79759635663566  1.90394225022502  0.82466156015602
 6  11.47156045004500 -1.03724435853585  1.25912927392739
 6 -12.27989562156216 -0.92320488048805  0.85483100510051
 6  12.99065779777978 -1.44573761186119  1.10293786578658
 6 -13.58442105110511 -0.25741190119012  0.87639653565357
 6  13.33858585258526 -1.96779230633063 -0.15748063706371
 6 -13.49979231923192  1.30008280628063  0.84389617361736
 6  11.02415094109411 -0.31838605470547 -0.00701494749475
 6 -11.35611271227123 -0.37185821482148 -0.22195294929493
 6  13.09230344934493 -0.96369712681268 -1.24654552755276
 6 -12.80684144414442  1.64540251725173 -0.47905494749475
 6  11.69688443544355 -0.29486986008601 -1.15763427942794
 6 -11.60318390839084  0.80528685168517 -0.84382392139214
 6  11.24361508850885 -0.19571872997300  2.43273371437144
 6  10.53260270127013 -2.41646212731273  1.48294641464146
 6 -11.60995318931893 -1.02348417641764  2.32824140414041
 6 -12.57392809480948 -2.51609705270527  0.49879178317832
 6  9.67261208720872  0.27188822572257  0.12576925692569
 6 -10.09056042304231 -1.06309039403940 -0.44691337233723
 6  11.24552731773177  0.40398486338634 -2.47285149214921
 6 -10.79254169316932  1.37434781878188 -2.00558986598660
 6  9.31271123812381  1.50016345424542 -0.27604297829783
 6 -8.87378786378638 -0.54313787078708 -0.31418246424642
 6  8.01682766876688  2.15950569046905 -0.01347567856786
 6 -7.65303044504450 -1.21974630773077 -0.58761409340934
 6  8.19667014801480  3.57558576347635  0.43943530953095
 6 -7.66639774577458 -2.72208195629563 -0.85558573357336
 6  6.86079148614861  1.55663565746575 -0.02292229822982
 6 -6.44102590559056 -0.55664113921392 -0.46226923292329
 6  5.57799835183518  2.07523523042304  0.15939085508551
 6 -5.10590171217122 -1.11071094719472 -0.55928810281028
 6  4.45672960396040  1.40108552245224 -0.09958558755876
 6 -4.06578199819982 -0.34920112621262 -0.35299262926293
 6  3.07440004500450  1.73307390529053  0.13956562156216
 6 -2.56522028602860 -0.63241757185719 -0.58042570257026
 6  2.80347062806281  3.17098654755476  0.77500020902090
 6 -2.34923041704170 -1.95917321942194 -1.06180722072207
 6  2.06573614861486  0.89840700460046 -0.09765889088909
 6 -1.68982030503050  0.30158986488649 -0.26805863286329
 6  0.68697586658666  1.01961672957296  0.11068694869487
 6 -0.24307317631763  0.16024391929193 -0.35912355235524
 1  13.55751502350235 -0.69218265336534  1.29852469046905
 1  13.00084532053205 -2.24180476157616  1.76421655365537
 1 -13.97436021302130 -0.65470562756276  1.73177038303830
 1 -14.14141550855086 -0.63774069706971  0.09067744774477
 1  12.82928813081308 -2.83590833393339 -0.54820288528853
 1 -12.96845230623062  1.72727724572457  1.52794226722672
 1  13.62345327732773 -0.00502322242224 -1.02493837783778
 1  13.21781327432743 -1.50115234233423 -2.32254293029303
 1 -13.53878942294229  1.44369569056906 -1.34652258525853
 1 -12.41002960996100  2.78979104310431 -0.65363224622462
 1  11.47655627562756 -0.65636636273627  3.25331999299930
 1  10.36602246724673  0.22899338923892  2.58492737373737
 1  11.84160343034304  0.69337907080708  2.12147128212821
 1  10.68268727172717 -3.16084666476648  0.53267865386539
 1  10.76217713471347 -3.09790470757076  2.35833575757576
 1  9.44380038103810 -1.83685467856786  1.48637358035804
 1 -11.44939183918392  0.11283685468547  2.87082097509751
 1 -10.86425093409341 -1.63307046204620  2.20530653465347
 1 -12.23391455045505 -1.53407431243124  2.93930652665267
 1 -13.35982576357636 -2.84500575257526  1.06085059405941
 1 -11.62310535853585 -3.18866089408941  0.70491554755475
 1 -13.05224558255826 -2.52323263126313 -0.56742521652165
 1  8.87494931893189 -0.39316763686369  0.59341352535254
 1 -10.22738247024703 -2.00861458545855 -0.88697833083308
 1  10.23825624462446  0.98630872877288 -2.49726442944294
 1  12.17308574357436  0.97825211611161 -2.85191490549055
 1  11.04553878887889 -0.33468395549555 -3.28799592959296
 1 -11.60005101210121  1.84113734273427 -2.62121361436144
 1 -10.14979051805181  0.65347598459846 -2.37401200720072
 1 -10.25326708170817  2.21624023702370 -1.63239683568357
 1  15.05001155415541 -2.79420832593259  0.56168806180618
 1 -15.18438787378738  1.96016093009301  1.73790199519952
 1  10.13444892689269  2.16451975587559 -0.78543785878588
 1 -8.83951064806481  0.52006410441044 -0.03287810081008
 1  8.96793965596560  3.99797965086509 -0.24454075707571
 1  7.14557794679468  3.98326373527353  0.46446227922792
 1  8.68338304830483  3.63286617351735  1.52181519951995
 1 -8.02931996199620 -3.15804273337334  0.04714887588759
 1 -8.29834559055906 -3.18824783888389 -1.69440577057706
 1 -6.71353020202020 -3.22159581168117 -0.91312810481048
 1  6.88025968896890  0.54280802370237 -0.34419781178118
 1 -6.43586384838484  0.43159299919992 -0.11697407440744
 1  5.50543992799280  3.24414956285629  0.31648390339034
 1 -4.81163498349835 -2.08675998309831 -0.70741814181418
 1  4.51135423442344  0.52240048594859 -0.42352076307631
 1 -4.13115861986199  0.78952406930693 -0.08081528552855
 1  3.35873365836584  3.17908195009501  1.78294449544954
 1  1.75694234723472  3.23858252915292  0.75852826082608
 1  2.93731775377538  4.17955578947895  0.04722422642264
 1 -2.81744388138814 -2.74232137923792 -0.39039208320832
 1 -2.79186869486949 -2.34607572767277 -2.05107907490749
 1 -1.39098589758976 -2.28708888398840 -1.21469450545054
 1  2.46080323832383 -0.09752840394039 -0.32694059805981
 1 -1.89589899089909  1.13075299319932  0.12292567956796
 1  0.46447219421942  2.05727843374337  0.43130892589259
 1  0.08067083708371 -0.86723667376738 -0.65954353835384

