%nproc=4
%Mem=2GB
# td=(NStates=1) CAM-B3LYP/6-31G(d,p) 

TD

0 1
 8  14.73974219321932 -2.07051452255225 -0.32489134213421
 8 -14.69604620162016  1.91655351135114  0.69851894589459
 6  11.45121841584158 -1.10322095619562  1.27405076607661
 6 -12.27808544054405 -1.04943750375037  0.75353087508751
 6  12.89550828282828 -1.45237827592759  1.04704227622762
 6 -13.63942655165516 -0.25604176417642  0.72987188318832
 6  13.39079107310731 -2.00723625072507 -0.32631752075208
 6 -13.52314465446545  1.20880367836784  0.74065584958496
 6  10.93474200020002 -0.31688590469047  0.02695844984498
 6 -11.27353445444544 -0.33508453745375 -0.29511026502650
 6  13.00909512851285 -1.10524128122812 -1.38111898489849
 6 -12.83388414841484  1.67850582758276 -0.55840288228823
 6  11.56005075207521 -0.39846021912191 -1.20071858785879
 6 -11.66087967796780  0.78816513951395 -0.87212675167517
 6  11.19821054805481 -0.27641679977998  2.48037847884788
 6  10.64838427942794 -2.35637611871187  1.35620374037404
 6 -11.67052924692469 -0.98986081408141  2.19507808780878
 6 -12.49631033303330 -2.54632007500750  0.54729663366337
 6  9.65623044904491  0.38261929882988  0.20397707770777
 6 -10.05880724772477 -0.99549363436344 -0.50418909990999
 6  11.11532429742974  0.40703516841684 -2.49272347934793
 6 -10.62190462946295  1.55655603960396 -1.84611391839184
 6  9.38440840784078  1.61724516241624 -0.20305567956796
 6 -8.88263874887489 -0.57329088608861 -0.23253429942994
 6  8.04981096709671  2.18839857975798 -0.04456878787879
 6 -7.61436657865787 -1.19275360846085 -0.55252058405841
 6  8.09902038303830  3.67537574247425  0.29839120512051
 6 -7.73490459645965 -2.65440518861886 -0.85180535553555
 6  6.92014742174217  1.50548054195420 -0.10327033303330
 6 -6.40969277227723 -0.45677115221522 -0.26009901590159
 6  5.61458201020102  1.99636734363436  0.23212812881288
 6 -5.08856997899790 -1.05448532463246 -0.50277245124512
 6  4.45995992699270  1.24215962986299  0.18670304130413
 6 -4.00686610661066 -0.20541674777478 -0.29130646064606
 6  3.06456906190619  1.76311690959096  0.28009967496750
 6 -2.64329809380938 -0.70588491859186 -0.45934359435944
 6  2.81742202320232  3.07443689258926  0.70117282628263
 6 -2.37412290629063 -2.04272157425743 -0.86255729572957
 6  2.09884945994599  0.82063922782278 -0.01618074307431
 6 -1.62758408140814  0.20632033793379 -0.21536336333633
 6  0.68832600160016  0.97251201910191  0.04578045804580
 6 -0.25776464546455  0.02271016591659 -0.33022066206621
 1  13.33785305730573 -0.53406684178418  1.22450728872887
 1  13.29023425942594 -2.16443702480248  1.64104423642364
 1 -14.27716049304930 -0.60567072407241  1.42159936593659
 1 -14.10087145414541 -0.56187311031103 -0.30911253125313
 1  13.00044524652465 -2.93112785588559 -0.39187725272527
 1 -12.97382284328433  1.47636215421542  1.50026949994999
 1  13.71255218721872 -0.24015673577358 -1.28415429942994
 1  13.12070356335633 -1.61757398449845 -2.34192486848685
 1 -13.77586313031303  1.61683300430043 -1.27816574957496
 1 -12.57491609860986  2.59579164316432 -0.21611849484948
 1  11.65520414041404 -0.80168089418942  3.37328198919892
 1  10.27957382238224  0.30576106600660  2.57697657865787
 1  11.94380365036504  0.67874760766077  2.48918805380538
 1  10.74512351535154 -3.10006058615862  0.42351773777378
 1  10.88354927192719 -2.88747366446645  2.32023194719472
 1  9.51744774577458 -1.92306329942994  1.42055699869987
 1 -11.60563746374637  0.07717328832883  2.73704759775978
 1 -10.65184969396940 -1.33976113111311  2.28778478247825
 1 -12.46782794179418 -1.43127403240324  2.90237283328333
 1 -13.39675945694569 -2.67385863786379  1.22570707970797
 1 -11.59342239023902 -3.06142817081708  0.66801185718572
 1 -12.75136549454946 -2.76744705270527 -0.56040451445145
 1  8.86688851285128 -0.19034735483548  0.63690787478748
 1 -10.25503523552355 -1.98693241724172 -0.82863249624962
 1  10.03327574657466  0.86323642154215 -2.42426712971297
 1  11.85747418241824  1.35941023192319 -2.70237995199520
 1  11.18300253525353 -0.27423791089109 -3.30629775977598
 1 -11.50967197419742  2.10752398139814 -2.61179267226723
 1 -9.93197873687369  0.73908454545455 -2.31760636663666
 1 -10.18239999499950  2.32824143714371 -1.33723731973197
 1  15.15387194019402 -2.56069497459746  0.48910080308031
 1 -15.27792722772277  1.67429234323432  1.56027423242324
 1  10.17569305130513  2.23023632753275 -0.72017133213321
 1 -8.78644534153415  0.47704980298030  0.16377156415642
 1  9.06203906590659  3.95990584348435 -0.42052835583558
 1  7.08554194319432  4.16272168106811  0.27854368736874
 1  8.48719342934293  4.00961384828483  1.25059807780778
 1 -8.41840887088709 -3.08352528162816 -0.00598643764376
 1 -8.07930368636864 -3.00176919101910 -1.77435376537654
 1 -6.71871072007201 -3.29361301340134 -0.56159295129513
 1  6.78659032203220  0.46429017191719 -0.37715110711071
 1 -6.59403966596660  0.51814165406541  0.12926054905490
 1  5.44546393039304  3.00334548244824  0.65926818181818
 1 -5.18303212321232 -1.93841514861486 -0.92075947594760
 1  4.65856895589559  0.07920616651665  0.07926951595159
 1 -4.09742524652465  0.87394251115111 -0.01100830483048
 1  3.47502528752875  3.51558560046005  1.39052525352535
 1  1.71429808280828  3.09179785068507  0.93085549354936
 1  3.05191921392139  3.78537637153715 -0.31376187218722
 1 -2.75876801380138 -2.83465061216122 -0.05078812281228
 1 -2.97096660466047 -2.26668778887889 -1.86936090309031
 1 -1.33222002100210 -2.25657583268327 -0.93956699269927
 1  2.40426758475848 -0.21401005210521 -0.34373227722772
 1 -1.94411381238124  1.13676359425943  0.09951333833383
 1  0.36241198819882  1.97363006890689  0.30961675667567
 1  0.23534630463046 -0.99862981308131 -0.49540712471247

