%nproc=4
%Mem=2GB
# td=(NStates=1) CAM-B3LYP/6-31G(d,p) 

TD

0 1
 8  14.61198941794179 -2.28963643474347 -0.33501235423542
 8 -14.88408500550055  1.80499235523552  0.71842093609361
 6  11.41078437243724 -1.08479911401140  1.16400976197620
 6 -12.34574220622062 -0.99458201820182  0.79761528352835
 6  12.94647337933793 -1.44675771387139  1.16332390439044
 6 -13.68998160716072 -0.26556271627163  0.78697759375938
 6  13.34935692969297 -1.93187871497150 -0.29866475547555
 6 -13.59377171717172  1.16098889688969  0.69849163316332
 6  10.91349987598760 -0.27608182428243  0.00200595459546
 6 -11.32106920792079 -0.28691972097210 -0.24507526152615
 6  13.00748496749675 -0.94474523162316 -1.24491536453645
 6 -12.88287904790479  1.61993997099710 -0.57529457145715
 6  11.68100284728473 -0.24921529462946 -1.14484300030003
 6 -11.61348493849385  0.89505582858286 -0.86589612861286
 6  11.30538126512651 -0.28370752885289  2.51142158315832
 6  10.62356179717972 -2.38133861496150  1.42948106810681
 6 -11.68741093509351 -0.87564939293929  2.06720530053005
 6 -12.44457515951595 -2.48247369036904  0.33444534853485
 6  9.69512433843384  0.39026006290629  0.20041672167217
 6 -10.08861022802280 -0.96387047204720 -0.45618429942994
 6  11.33465623062306  0.36332079697970 -2.53245745274527
 6 -10.62255469446945  1.69180956495650 -1.70119942694269
 6  9.37417738473847  1.62155559345935 -0.15895126912691
 6 -8.83986447144714 -0.52695625262526 -0.14392543854385
 6  8.09673565956596  2.26970671057106 -0.05124945594559
 6 -7.56844198619862 -1.21360569366937 -0.36414174617462
 6  8.08271875287529  3.68234643954395  0.25277664366437
 6 -7.63700480648065 -2.65372512061206 -1.14964513951395
 6  6.88460386738674  1.58996899079908 -0.20087009300930
 6 -6.36757856085609 -0.55252072717272 -0.20991399739974
 6  5.51404195619562  2.04961266816682 -0.00200528452845
 6 -5.02949407140714 -1.13435331143114 -0.45781795579558
 6  4.41179511051105  1.28574398829883 -0.06394202320232
 6 -3.93778919891989 -0.34257046314631 -0.23811114111411
 6  3.09354195919592  1.67291788968897  0.16646831183118
 6 -2.53535729972997 -0.76955128522852 -0.40785844584458
 6  2.82331261226123  3.11156060496050  0.53943665266527
 6 -2.31871736573657 -2.13586088818882 -0.82845388538854
 6  2.02808238323832  0.83662082598260 -0.11583070807081
 6 -1.64105542854285  0.07488719461946  0.09834800780078
 6  0.57712488148815  0.94434920282028  0.15279115911591
 6 -0.16697556655666 -0.07082918801880  0.00343270327033
 1  13.67614688668867 -0.61228466356636  1.26841167916792
 1  12.95730096609661 -2.41401198229823  1.71534166616662
 1 -14.23219599659966 -0.65104526152615  1.83031023702370
 1 -14.31058242524253 -0.63502042504250 -0.04632625262526
 1  12.64914011601160 -2.90052479557956 -0.43707177217722
 1 -13.13730919191919  1.52035655365537  1.63166263926393
 1  13.91108204020402 -0.19542226232623 -1.39835571957196
 1  13.09284077707771 -1.40062228932893 -2.28183885988599
 1 -13.59221476547655  1.73011433243324 -1.46693462646265
 1 -12.61721032803280  2.77776984098410 -0.35486236923692
 1  11.76484510451045 -0.82450317641764  3.27011167216722
 1  10.29520538553856  0.01206169606961  2.83466234723472
 1  11.76023529352935  0.70978071097110  2.40266940194019
 1  10.61164016701670 -2.93969454955496  0.44361974797480
 1  11.00248116511651 -2.95697061416142  2.19639956395640
 1  9.58598459945995 -2.24445543864386  1.87745268826883
 1 -11.57740464046405  0.34004957595760  2.53359725272527
 1 -10.64340884988499 -1.12320947594759  1.97313331733173
 1 -12.23812497149715 -1.57748865386539  2.69828242424242
 1 -13.06858663966396 -3.05889714171417  1.21384589358936
 1 -11.40420346834683 -3.03578560656066  0.34415947194719
 1 -13.06656701470147 -2.59986029402940 -0.56115458945895
 1  8.96571839583958 -0.22246056615662  0.80088427242724
 1 -10.24211394339434 -2.06751047504751 -1.08392802580258
 1  10.26170858985899  0.90758085598560 -2.49932463546355
 1  12.16707514251425  1.27138142904290 -2.65986570057006
 1  11.31598583358336 -0.10775126222622 -3.42604973497350
 1 -11.29467047404741  1.93137636663666 -2.62619411241124
 1 -9.61572711171117  1.07715835283528 -2.06038064406441
 1 -10.27984973997400  2.67611622462246 -1.26218981498150
 1  14.88357491049105 -3.14536344144414  0.18136002900290
 1 -15.12233166816682  1.82439735373537  1.76593479847985
 1  10.09931541354135  2.14915821972197 -0.73216253125313
 1 -8.89142583958396  0.46081817981798  0.16608179517952
 1  9.05041790379038  4.20542039493949 -0.23728003100310
 1  7.11702509150915  4.36798220712071  0.04776060906091
 1  8.39751446144614  3.95226811371137  1.35186820482048
 1 -8.08223525352535 -3.48720564966497 -0.50045588458846
 1 -8.46888264426443 -2.37343635773577 -2.17058338833883
 1 -6.66158500750075 -3.02216586868687 -1.56970376237624
 1  6.93809547254726  0.66221996489649 -0.69971336333633
 1 -6.55684594659466  0.43804364426443  0.27020464346435
 1  5.48294767876788  3.12775792369237  0.40594284928493
 1 -5.19791361136114 -2.13732503960396 -0.97194459445945
 1  4.44760785978598  0.15817406330633 -0.23569198019802
 1 -4.30506601060106  0.63207832473247  0.26047884388439
 1  3.19542732773277  3.45296933883388  1.33416961796180
 1  1.79345599859986  3.33496216711671  0.84242665066507
 1  2.93984800680068  3.58127596149615 -0.55993648964896
 1 -2.76668880588059 -2.88228537563756 -0.07982102610261
 1 -2.62081158915892 -2.23929504960496 -1.86829079607961
 1 -1.23612041104110 -2.53595377047705 -0.78121115711571
 1  2.53626078407841 -0.03457210831083 -0.43681158515852
 1 -1.83103250425042  1.14941485938594  0.41536492349235
 1  0.21397714471447  1.83170587648765  0.44140993599360
 1  0.20920369036904 -1.06134608470847 -0.16106369036904

