%nproc=4
%Mem=2GB
# td=(NStates=1) CAM-B3LYP/6-31G(d,p) 

TD

0 1
 8  14.73064128312831 -2.16849432053205 -0.42049090209021
 8 -14.83181977897790  2.05581743774377  0.65443453745375
 6  11.55081837583758 -1.07708834293429  1.24601796279628
 6 -12.45666329832983 -0.88725128512851  0.86612213421342
 6  13.07384611661166 -1.37308034613461  1.08611618361836
 6 -13.79485209420942 -0.24070023002300  0.63547244324432
 6  13.42789478347835 -1.80435596269627 -0.35041993099310
 6 -13.63838617861786  1.31185398339834  0.67710949494950
 6  11.07214574057406 -0.33819803590359  0.03700945494549
 6 -11.42649975097510 -0.22154318331833 -0.11611236523652
 6  13.09882410141014 -0.84523528062806 -1.36546741974197
 6 -12.77055781578158  1.73961193819382 -0.55330237223722
 6  11.72734748174818 -0.23617399049905 -1.17843635963596
 6 -11.62438602860286  0.92158848184818 -0.76091563056306
 6  11.45694642164217 -0.23487264536454  2.53834427542754
 6  10.76101554255426 -2.38624910601060  1.42470059005901
 6 -11.77346954095409 -0.91770359835984  2.19359793979398
 6 -12.59691039303931 -2.39256469946995  0.47727963196320
 6  9.80734556055606  0.30394143104310  0.25009168916892
 6 -10.10437180418042 -1.10356444144414 -0.28655733673367
 6  11.33545631063106  0.70222468736874 -2.29673388038804
 6 -10.67615005400540  1.55825620962096 -1.75304461146115
 6  9.38761872887289  1.60387382528253  0.04442906890689
 6 -8.88810929592959 -0.56177973497350 -0.19035008100810
 6  8.05008099409941  2.20136987688769  0.19739540854085
 6 -7.69970511251125 -1.28651298439844 -0.35253058505851
 6  7.99955043604360  3.65357356225623  0.32376374237424
 6 -7.59961106710671 -2.77072682078208 -0.72003217821782
 6  6.89711511851185  1.47865785968597  0.11677167116712
 6 -6.53900570357036 -0.54379985508551 -0.33180618661866
 6  5.59767031903190  1.94035174207421  0.06598151415142
 6 -5.17440856285629 -1.12802267836784 -0.58025019901990
 6  4.46004993599360  1.19451486538654 -0.10816644564456
 6 -4.09158457845785 -0.43269947604760 -0.33158048804880
 6  3.08137074207421  1.64159475737574  0.01916358135814
 6 -2.66108987298730 -0.84590892099210 -0.49042670267027
 6  2.83734401540154  3.09491894079408  0.62479518851885
 6 -2.34986048004800 -2.24487178927893 -0.97449848984899
 6  2.07972754775478  0.70156732063206 -0.29697882288229
 6 -1.73242456545655  0.07524723062306 -0.21459328632863
 6  0.61243841284128  0.84463923182318 -0.14950907090709
 6 -0.20689955895590 -0.17113921902190 -0.43479111911191
 1  13.78235750775078 -0.54614804990499  1.36935177317732
 1  13.35507074307431 -2.16860744184418  1.77175730773077
 1 -14.56199897689769 -0.54494465146515  1.44318152415242
 1 -14.24540590759076 -0.46549347234723 -0.31270289028903
 1  12.40212541454146 -2.77381212431243 -0.40791885688569
 1 -12.95167062806281  1.52500701870187  1.51850132313231
 1  13.96471740374037 -0.18035075517552 -1.28491437543754
 1  13.08908040104011 -1.39174140124012 -2.38460913691369
 1 -13.33694923892389  1.70016133713371 -1.52015994899490
 1 -12.61151975897590  2.92191425542554 -0.73430031303130
 1  11.94802342234224 -0.70180090619062  3.21054571557156
 1  10.44047991299130 -0.25976548664866  2.89757863886389
 1  11.81061033103310  0.69339907280728  2.38008714371437
 1  10.64227323032303 -2.93343392349235  0.34547993399340
 1  11.33559447644765 -2.95242015911591  2.24896482048205
 1  9.65650165116512 -2.31044203730373  1.80689563256326
 1 -11.64173107310731  0.25058062906291  2.68284217721772
 1 -10.71767627662766 -1.42711986698670  2.34021002500250
 1 -12.25000615961596 -1.13941484648465  3.21242383838384
 1 -13.56326610761076 -2.80437168916892  0.91731624062406
 1 -11.78908195619562 -3.02936496449645  0.85167022302230
 1 -12.89481983998400 -2.47574788278828 -0.52748122212221
 1  9.13651547554755 -0.21232955305531  0.85787997199720
 1 -10.50369010101010 -2.15723944794479 -0.56251588458846
 1  10.14569698869887  0.94133423132313 -2.29818452145215
 1  12.06609504450445  1.58781307220722 -2.47506722072207
 1  11.21077531253125 -0.02550303740374 -3.10908803880388
 1 -11.34792579957996  2.04453768276828 -2.63692518551855
 1 -9.87728326732673  0.84895553255326 -2.15410001600160
 1 -10.18785054005401  2.37231584458446 -1.28310190619062
 1  14.76767332033203 -3.25540444554455 -0.12817092409241
 1 -15.24515395039504  1.86125103910391  1.67983618861886
 1  10.07251273327333  2.49365266916692 -0.34981429642964
 1 -8.72127882488249  0.40789288728873  0.02103729072907
 1  8.24930779277928  4.26420627352735 -0.55804210721072
 1  6.97011040004000  4.11649705860586  0.74615044804481
 1  8.84574928492849  3.89605249214921  1.02219523752375
 1 -8.00041707170717 -3.41534846394639  0.08326248724872
 1 -8.42831858785878 -2.63272228632863 -1.64131046104610
 1 -6.62402125112511 -2.99082273437344 -1.13087987998800
 1  7.04460612361236  0.39036277917792 -0.08465185718572
 1 -6.67257751975198  0.46941678157816 -0.20192256925693
 1  5.32547193119312  3.09238438633863  0.34357661266127
 1 -5.12466628662866 -2.21655296239624 -0.89198659865987
 1  4.69601270027003  0.17273551945195 -0.48095650665067
 1 -4.26564206820682  0.53221833873387  0.05229802580258
 1  3.48602638763876  3.01940598249825  1.46109231023102
 1  1.73234988798880  3.00090876177618  0.68859126712671
 1  3.18373239523952  3.95751358525853 -0.20460095609561
 1 -2.67371950895090 -3.14142128922892 -0.43150619461946
 1 -2.97955746374637 -2.26724784488449 -1.95574954195420
 1 -1.27260405940594 -2.43097327242724 -1.12120515651565
 1  2.37778493649365 -0.17580623172317 -0.60410831483148
 1 -2.12588198919892  1.07364728262826  0.08611199819982
 1  0.22282802980298  1.88690139603960  0.09107490249025
 1  0.19517228722872 -1.13134308440844 -0.60103768776878

