%nproc=4
%Mem=2GB
# td=(NStates=1) CAM-B3LYP/6-31G(d,p) 

TD

0 1
 8  14.68199641864186 -2.22638010911091 -0.68024687768777
 8 -14.96444304130413  1.90564242024202  0.32608170217022
 6  11.57594088808881 -1.10842147624762  1.11889525052505
 6 -12.47113474547455 -0.86130869086909  0.79306482848285
 6  13.16379511151115 -1.40769380748075  0.97163473547355
 6 -13.84993760276028 -0.22925908590859  0.62699159515952
 6  13.35755774977498 -1.99278480558056 -0.40851574057406
 6 -13.68998133813381  1.34695749374937  0.51641342534253
 6  11.02524105010501 -0.28234245034503 -0.00581482748275
 6 -11.38176527752775 -0.27217824682468 -0.19826058005801
 6  13.01714593359336 -0.96254701180118 -1.46702757575758
 6 -12.88557931793179  1.67736571357136 -0.65479252125213
 6  11.67956270327033 -0.22034240734073 -1.15970448644865
 6 -11.58317190719072  0.74170049304930 -0.83852339133913
 6  11.54731545854585 -0.24158331643164  2.51702214321432
 6  10.73227266826683 -2.40638111921192  1.27343546354635
 6 -11.84354654865487 -0.70714254225423  2.19862844284428
 6 -12.70283098509851 -2.41875731873187  0.61218312231223
 6  9.72584741074107  0.38232926982698  0.18393507350735
 6 -10.10964233123312 -1.01951603660366 -0.31696037703770
 6  11.21223398839884  0.64456892179218 -2.32005621262126
 6 -10.64307674667467  1.43241362536254 -1.84090339733973
 6  9.39617958495850  1.63347678557856 -0.06777215121512
 6 -8.94045453045305 -0.60025358235824 -0.18675972197220
 6  8.18027401340134  2.28050779067907  0.25570123912391
 6 -7.63518866086609 -1.32460679377938 -0.34997032903290
 6  8.16319680068007  3.82669087398740  0.61297266326633
 6 -7.77317842384238 -2.71353110121012 -0.77978815381538
 6  7.05421082808281  1.56973696759676  0.04685467946795
 6 -6.49084088708871 -0.61597707280728 -0.24117712371237
 6  5.58028858085809  1.92256996389639  0.25574049004900
 6 -5.13193431543154 -1.09875975207521 -0.24230640464046
 6  4.46857078807881  1.21905731963196 -0.04440006900690
 6 -3.99897531753175 -0.23595980208021 -0.22346967696770
 6  3.09486209120912  1.56060665856586  0.13160482548255
 6 -2.58920268426843 -0.75998032813281 -0.38590625062506
 6  2.84129441044104  3.02529197809781  0.56813952295230
 6 -2.42471796579658 -2.26024332643264 -0.76600764076408
 6  2.12948252325233  0.69497666156616 -0.10617974297430
 6 -1.65909723272327  0.19107881378138 -0.21886371337134
 6  0.69043621262126  0.89750451835184 -0.03470759075908
 6 -0.26719558855886  0.00722861776178 -0.28817645764576
 1  13.74667393939394 -0.50748418351835  1.25466030403040
 1  13.35263049904991 -2.16277685878588  1.75985611761176
 1 -14.42383516051605 -0.62017217421742  1.41930913691369
 1 -14.24633600060006 -0.62609953295330 -0.39381100110011
 1  12.89193439543955 -3.01525626872687 -0.46576464146415
 1 -13.30683614461446  1.59166368436844  1.47483695669567
 1  13.91720265226523 -0.36636935703570 -1.50745662966297
 1  12.82788428142814 -1.34487671477148 -2.42924360036004
 1 -13.37725326932693  1.45021634263426 -1.53255118811881
 1 -12.45866447344734  2.58060012401240 -0.73434031703170
 1  12.02006062606261 -0.75358608470847  3.44920958195820
 1  10.53115898089809 -0.26160567066707  2.57720660166017
 1  12.16729599959996  0.45792552545255  2.26454558955896
 1  10.54061306430643 -2.98311889198920  0.28991437743774
 1  11.05427634463446 -3.01096601370137  2.11244116811681
 1  9.69582558355836 -2.14080507360736  1.63680862386239
 1 -11.47750465046505  0.14937050805081  2.72931682468247
 1 -11.04504901390139 -1.45437259225923  2.16120212421242
 1 -12.58944010301030 -0.98721962696270  2.91757435343534
 1 -13.52283206420642 -2.52204345634563  1.07793230223022
 1 -11.81393444144414 -3.12682471047105  0.76823187918792
 1 -12.98430878887889 -2.55688599659966 -0.56734520852085
 1  9.06520834483448 -0.28813713381338  0.77471165516552
 1 -10.35972570457046 -2.12997672167217 -0.38730836383638
 1  10.22620503950395  1.11139123702370 -2.20560526352635
 1  11.97164559955996  1.53119741064106 -2.25389510351035
 1  11.24177841284128 -0.07079756685669 -3.06218334833483
 1 -11.15308631563156  1.57453068206821 -2.93096458945895
 1 -9.75053059205921  0.73501413841384 -2.06795140114011
 1 -10.28027978297830  2.49881849484948 -1.55069866586659
 1  15.12008856185618 -2.68778768386839  0.06755864886489
 1 -15.41226066106611  1.69940485448545  1.09680788578858
 1  10.49119460146015  2.38890219411941 -0.04771408640864
 1 -8.89746644364436  0.45362746074607  0.13869905690569
 1  8.43426628862886  4.37711756465647 -0.25591189418942
 1  7.09163255225523  4.15891130003000  1.04784061706171
 1  8.86226093609361  4.08723161006101  1.40594361236124
 1 -7.95343237323732 -3.36266319541954  0.09417357835784
 1 -8.54721047704770 -2.85699471357136 -1.41672800280028
 1 -6.95723457245725 -3.13104675677568 -1.27071386338634
 1  7.13138480148015  0.52693643654365 -0.21037442944294
 1 -6.42411267326733  0.49925976587659  0.12244986798680
 1  5.57676706070607  3.02463761166117  0.88771102610261
 1 -4.94958877887789 -2.20478178527853 -0.44225162516252
 1  4.79887298629863  0.26199444534453 -0.47371578257826
 1 -4.26815231923192  0.74425954285429  0.03431622762276
 1  3.51550933593359  2.94877891979198  1.46538273927393
 1  1.67095374837484  3.21375004590459  0.84020642864286
 1  3.34462848484848  3.72788062196220 -0.22955345134513
 1 -3.26135827282728 -2.81649879697970 -0.24878792279228
 1 -2.62394190219022 -2.33399451955196 -1.96617058405841
 1 -1.27262406140614 -2.51552172727273 -0.34927796379638
 1  2.39986714471447 -0.35124377547755 -0.14776268026803
 1 -2.11913131413141  1.21715163306331  0.18613200020002
 1  0.46133188018802  1.93939664556456  0.18955475047505
 1 -0.05190242024202 -0.94568451855186 -0.82488007200720

