%nproc=4
%Mem=2GB
# td=(NStates=1) CAM-B3LYP/6-31G(d,p) 

TD

0 1
 8  14.60418863786379 -2.45640311141114 -0.44076292929293
 8 -14.80783738073807  1.89198105410541  0.79116821082108
 6  11.47916121012101 -1.08591922602260  1.21601496249625
 6 -12.34999263126313 -0.91274383438344  0.70729625162516
 6  13.03651238323832 -1.50719375747575  1.01851942394239
 6 -13.63374598359836 -0.14733089308931  0.67458635463546
 6  13.33890588458846 -2.08271379847985 -0.37441233023302
 6 -13.52735507550755  1.32779557755776  0.74063584758476
 6  10.92988151415142 -0.27072128822882 -0.02908715471547
 6 -11.35235233623362 -0.24209523852385 -0.26014676867687
 6  13.05971019001900 -0.89991074817482 -1.36777765076508
 6 -12.91794255425543  1.75410338733873 -0.59199624162416
 6  11.67425217221722 -0.20628100120012 -1.17232574857486
 6 -11.54445803580358  0.95994231723172 -0.76764630363036
 6  11.41581230823082 -0.18947810591059  2.52197263826383
 6  10.61222066306631 -2.39249973107311  1.39266738673867
 6 -11.93490568456846 -1.09889171717172  2.17317589758976
 6 -12.65641634363436 -2.40149559255926  0.15228713271327
 6  9.69621444744474  0.42678371527153  0.19059573957396
 6 -10.09362072907291 -1.00006409140914 -0.44721340234023
 6  11.32088485348535  0.53301776667667 -2.34423863086309
 6 -10.81617405640564  1.62389277327733 -1.88173748074807
 6  9.30091005800580  1.69940337823782 -0.24160953495350
 6 -8.86897738273827 -0.56925048204820 -0.23519456545655
 6  8.04866085208521  2.34658439833983 -0.08477280828083
 6 -7.64030917291729 -1.28617295039504 -0.33759909190919
 6  8.20341082208221  3.80113831873187  0.26724809080908
 6 -7.72254336033603 -2.74800454855486 -0.81250142514251
 6  6.84487989498950  1.67251724562456 -0.05591559755976
 6 -6.45133693669367 -0.61150662576258 -0.18193119911991
 6  5.53392394439444  2.15738344524452  0.17515243124312
 6 -5.10816193819382 -1.13679355545555 -0.32153432743274
 6  4.54042797379738  1.30898631253125  0.09431380238024
 6 -3.99298471847185 -0.36086229232923 -0.32483981398140
 6  3.12893549854985  1.67615821372137  0.22184384938494
 6 -2.60462422642264 -0.78815314541454 -0.39255691569157
 6  2.80873115411541  3.12191164006401  0.53210591959196
 6 -2.30375586958696 -2.23197049914991 -0.65985702570257
 6  2.19690926592659  0.65804296819682 -0.07243636863686
 6 -1.55766708970897  0.04105381128113 -0.17356918391839
 6  0.78381555055506  0.83232800070007  0.03446932693269
 6 -0.17397626662666 -0.15694779987999 -0.23825146514651
 1  13.50111938393839 -0.55049848494849  1.24513935193519
 1  13.27139237523752 -2.25973655475548  1.95272540454045
 1 -14.13655643264326 -0.63258341534153  1.71774898089809
 1 -14.06564793179318 -0.52010893389339 -0.26862848284828
 1  12.41804700670067 -2.88969371247125 -0.62028009300930
 1 -12.91440690169017  1.42139665766577  1.68155762876288
 1  13.72824375637564 -0.27535025512551 -1.09968585258526
 1  13.16302779577958 -1.24349657675768 -2.25135581158116
 1 -13.76057160116012  1.60302162316232 -1.42062999599960
 1 -12.70652925992599  2.85313737773777 -0.54070095309531
 1  11.58881750175018 -1.08066879297930  3.34559922092209
 1  10.33370923592359  0.23207369726973  2.46387526852685
 1  12.21631090109011  0.53284301720172  2.60385952095210
 1  10.70276927992799 -2.93100368046805  0.52638802480248
 1  11.09061997899790 -3.07632254935494  2.25095501950195
 1  9.56244224522452 -2.15235622872287  1.63393833683368
 1 -11.66326322632263 -0.17363179217922  2.55085897889789
 1 -11.01802631163116 -1.70952810781078  2.11900790479048
 1 -12.72041320032003 -1.71750265526553  2.66707930393039
 1 -13.24319410041004 -2.75352660466047  0.93674818381838
 1 -11.81640468846885 -3.03350537853785  0.15830088608861
 1 -13.11767212521252 -2.33926423442344 -0.94316279027903
 1  8.88567039103910 -0.03037135723572  0.91240542454245
 1 -10.25338507050705 -2.07115083908391 -0.78864849784979
 1  10.25036745574557  0.76550664856486 -2.25753045604560
 1  11.77025546054606  1.78033232413241 -2.54348406240624
 1  11.37736197119712  0.04248376127613 -3.35775290529053
 1 -11.48458946594659  1.76011924092409 -2.82294378737874
 1 -9.97194273327333  0.90862149914991 -2.20790539653965
 1 -10.39203095809581  2.54960357335734 -1.55930952695270
 1  14.92001855485548 -2.62955186028603  0.58320021302130
 1 -15.21529096409641  1.44153906790679  1.52092029702970
 1  10.14628011001100  2.28419172307231 -0.49775909090909
 1 -8.86059275627563  0.33804590259026  0.10718590559056
 1  9.49436229822982  4.32976282918292  0.12523622062206
 1  7.22417580658066  4.53654906380638 -0.46613078007801
 1  8.02121683168317  3.92952583948395  1.73100611861186
 1 -8.77823485348535 -3.07154408350835 -0.16996283528353
 1 -8.07830358635864 -2.90130914501450 -1.79669599959996
 1 -6.77493634263426 -3.43846749884989 -0.26269306130613
 1  6.93440510351035  0.56665040794079 -0.30314370637064
 1 -6.42740300230023  0.37198703860386  0.20235785878588
 1  5.30925030903090  3.21850699859986  0.25259751475147
 1 -4.81593541354136 -2.28421972907291 -0.49838723872387
 1  4.82209530853085  0.29403764966497 -0.14334274527453
 1 -4.20159566356636  0.70687580448045 -0.15627283128313
 1  3.43632141714171  3.24235827772777  1.38536473747375
 1  1.64085073807381  3.36121479237924  0.71365377337734
 1  3.16536055805580  3.69888772267227 -0.13141363736374
 1 -2.79814195119512 -3.06316346344634 -0.13242628662866
 1 -2.57731723972397 -2.55202632273227 -1.62522648964896
 1 -1.18737553655366 -2.42825300040004 -0.65219825582558
 1  2.68181533953395 -0.25805445654565 -0.06996490049005
 1 -1.81082048304831  1.05677559545955  0.08097148414841
 1  0.49311505850585  1.85648835473547 -0.00772497749775
 1  0.13722649264927 -1.12354230433043 -0.50969855385539

