%nproc=4
%Mem=2GB
# td=(NStates=1) CAM-B3LYP/6-31G(d,p) 

TD

0 1
 8  14.76558477747775 -2.10829830093009 -0.49444829782978
 8 -14.72002859985998  1.96220807680768  0.75859495349535
 6  11.47023031703170 -1.15099573367337  1.26086944794479
 6 -12.30291792379238 -0.87953051305131  0.85283080508051
 6  12.91882061406141 -1.45507854595460  1.07080465246525
 6 -13.57047965696570 -0.13053921392139  0.79603849984999
 6  13.34160615461546 -1.95290081718172 -0.34359924892489
 6 -13.49200154015402  1.41730452845285  0.71499328332833
 6  10.97646617261726 -0.27432164826483 -0.07698194419442
 6 -11.36951405240524 -0.32685371437144 -0.19546030003000
 6  12.96309052805280 -0.87316807390739 -1.36114698769877
 6 -12.74732549254925  1.66343432043204 -0.68453549554956
 6  11.60817556455646 -0.14076444954495 -1.21411992799280
 6 -11.55461905190519  0.82775909890989 -0.79813935293529
 6  11.34869559655966 -0.29534869296930  2.58085852685269
 6  10.61641108210821 -2.34990547164716  1.38216633663366
 6 -11.69506170017002 -0.74825665366537  2.25660424042404
 6 -12.57005770777078 -2.40168561156116  0.60557246124612
 6  9.61233605960596  0.29103013991399  0.23238991899190
 6 -10.11993336033603 -1.07156124112411 -0.54231291229123
 6  11.09740250525052  0.47064152905291 -2.49358356535654
 6 -10.64936737573757  1.46344672867287 -1.89430873787379
 6  9.35682564956496  1.55054849274927 -0.09176455045505
 6 -8.84821530653065 -0.67668122512251 -0.40259130513051
 6  8.04902088808881  2.24506424632463  0.17688335733573
 6 -7.63827896989699 -1.33226755985599 -0.63377870987099
 6  8.06600708170817  3.70819902480248  0.66400776677668
 6 -7.72530363636364 -2.77366711481148 -1.16823699869987
 6  6.84938034503450  1.49015900980098 -0.06805681168117
 6 -6.45726752975297 -0.69140461556156 -0.36621962796280
 6  5.54736528852885  2.03825153205321  0.10728564456446
 6 -5.04885600760076 -1.17387726382638 -0.46417859185919
 6  4.43053698469847  1.18406382028203 -0.01420704970497
 6 -3.99193461346135 -0.43209941604160 -0.24147147714771
 6  3.05973857885789  1.70736133403340  0.10524218921892
 6 -2.59209297329733 -0.78017234733473 -0.22206986698670
 6  2.82903318431843  3.07460690959096  0.40978368736874
 6 -2.38033352735274 -2.15171247334733 -0.53710475047505
 6  2.12188176317632  0.79479664356436 -0.05675480048005
 6 -1.63348467146715  0.16410611651165 -0.06206803380338
 6  0.61469863886389  0.96400116801680  0.05123100310031
 6 -0.22873174217422 -0.06381848694869 -0.33614125412541
 1  13.39988926092609 -0.45343877897790  1.14739957795780
 1  13.17621285728573 -2.26903748484848  1.81649178117812
 1 -14.15987876487649 -0.48075823282328  1.67136434243424
 1 -14.15524689168917 -0.45843276627663 -0.16155777577758
 1  12.76658186018602 -2.84697944104410 -0.70904896989699
 1 -12.96296175717572  1.93222774077408  1.51183065606561
 1  13.96208714071407 -0.26358907900790 -1.11719760376038
 1  12.99642113511351 -1.24477670477048 -2.26200687668767
 1 -13.69764530853085  1.44068538953895 -1.32220015301530
 1 -12.47511611861186  2.75856792079208 -0.75150203320332
 1  11.82661128112811 -0.72021274737474  3.41504616561656
 1  10.29927579257926  0.03697418731873  2.75040392139214
 1  11.95126439643964  0.63674340724072  2.29368850385038
 1  10.83374237723772 -3.05797637773777  0.54980036603660
 1  10.76781769876988 -2.99187410451045  2.25603552755276
 1  9.57489349034904 -2.19530052315231  1.25992093509351
 1 -11.32225912591259  0.29504507550755  2.58787268026803
 1 -10.75355986498650 -1.24294144914491  2.22095809980998
 1 -12.19641080008001 -1.49701060606061  2.98592118811881
 1 -12.95665544654465 -2.91259251125112  1.47483199219922
 1 -11.66677972597260 -2.85250727872787  0.74847990399040
 1 -12.70679103710371 -2.49551985998600 -0.55503397739774
 1  8.80483230723072 -0.30949927002700  1.10137432143214
 1 -9.98467819981998 -2.19683340734073 -0.78507814081408
 1  9.99057147614761  0.67415751365137 -2.34055875887589
 1  11.70043847884789  1.34194848574857 -2.97571728572857
 1  10.85309954495450 -0.19127961506151 -3.36218334833483
 1 -11.24481548854886  1.91582481148115 -2.54016550955096
 1 -10.03842938193820  0.74816545354535 -2.50849545554555
 1 -9.87379913491349  2.11711032403240 -1.33396699269927
 1  14.90181673467347 -2.68733763886389  0.33222511551155
 1 -15.17402683768377  1.56788170217022  1.46110431543154
 1  10.32347782978298  2.11706501040104 -0.33280259525953
 1 -8.66725342234223  0.54414651265126 -0.30673548654865
 1  8.38738160016002  4.33413326622662 -0.21144744774477
 1  7.09605299429943  4.13324873377338  0.96410224322432
 1  8.59197390739074  3.84560744764477  1.64113713171317
 1 -8.28109513951395 -3.21997892699270 -0.25778161716172
 1 -8.45995175117512 -2.77735674977498 -1.99151548154816
 1 -6.66723557255726 -3.11799545164516 -1.41480827282728
 1  6.95539720272027  0.62356609950995 -0.60567395939594
 1 -6.46734699669967  0.25049488938894  0.07633525652565
 1  5.55968535253525  3.14669981788179  0.17646990199020
 1 -4.95975979597960 -2.13218452555255 -0.82578997899790
 1  4.72098519751975  0.16158440434043 -0.31879029002900
 1 -4.16837234123412  0.80923604050405  0.22459525552555
 1  3.15738352335233  3.31138518041804  1.36290249124912
 1  1.71624827782778  3.42999167006701  0.27539994799480
 1  3.24422844484448  3.86472430633063 -0.36364686068607
 1 -2.94696683368337 -2.67204435153515  0.13657061306131
 1 -2.50365987398740 -2.35725684578458 -1.67581154815482
 1 -1.32539933893389 -2.44907508260826 -0.41437447344734
 1  2.43842100010001 -0.20362901400140 -0.45518342234223
 1 -1.95612501350135  1.34039395729573 -0.02665927892789
 1  0.12972871987199  1.89166187208721  0.63538933393339
 1  0.14055682568257 -0.83677362746275 -1.08595617961796

