%nproc=4
%Mem=2GB
# td=(NStates=1) CAM-B3LYP/6-31G(d,p) 

TD

0 1
 8  14.73871209020902 -2.06195366646665 -0.31588044104410
 8 -14.62410900790079  2.24345620162016  0.94236333033303
 6  11.45187848184819 -1.01803243734373  1.28360172117212
 6 -12.33767139913991 -0.87598015801580  0.84586010801080
 6  12.92304103610361 -1.29367240534053  1.11083865586559
 6 -13.72619522852285 -0.00734689468947  0.83454235023502
 6  13.36785877987799 -1.84622014911491 -0.27845273427343
 6 -13.44290663066307  1.49868266626663  0.88020980498050
 6  10.93276180218022 -0.22126634273427  0.09792554655466
 6 -11.29927702870287 -0.25039606860686 -0.15665641964196
 6  12.97038125712571 -0.90840159725973 -1.32402327532753
 6 -12.65544630463046  1.92277025402540 -0.44051109310931
 6  11.61869661666167 -0.25437581068107 -1.06654517051705
 6 -11.48559214921492  0.98536485948595 -0.66338587758776
 6  11.09575030203020 -0.26667582568257  2.60340078107811
 6  10.68134757575758 -2.36641712281228  1.30473859385939
 6 -11.82745493949395 -0.96670849884988  2.26010459045905
 6 -12.75858656065607 -2.27839328232823  0.36289819381938
 6  9.67419224522452  0.47049808670867  0.15695237523752
 6 -10.13280464746475 -1.05707979297930 -0.48968764976498
 6  11.21049381438144  0.45593005790579 -2.35174938193819
 6 -10.57393983298330  1.40311069506951 -1.87120642764276
 6  9.36229619661966  1.66742017991799 -0.11917729172917
 6 -8.88453893889389 -0.63727728472847 -0.36642768876888
 6  8.05322130813081  2.35676541644164  0.14807047604760
 6 -7.63839898189819 -1.40203453655366 -0.51998733073307
 6  8.04513499449945  3.76705491039104  0.61280264626463
 6 -7.67294840084008 -2.88253800190019 -0.81905208020802
 6  6.88492389938994  1.66968696259626 -0.13585359135914
 6 -6.43835563856386 -0.75231070617062 -0.38619162516252
 6  5.54651520352035  1.95047275417542  0.04400931693169
 6 -4.99098022002200 -1.20806068216822 -0.59529170317032
 6  4.44904883588359  1.20584599849985 -0.15980160916092
 6 -3.93261868186819 -0.42362856895690 -0.33070040004000
 6  3.01457406240624  1.52961355925593  0.00389205420542
 6 -2.55807957195720 -0.90622495259526 -0.52571023102310
 6  2.65959624062406  2.95857530643064  0.47436014501450
 6 -2.36790228422842 -2.34974227632763 -1.01611265126513
 6  2.03257283228323  0.59377654155416 -0.21829095409541
 6 -1.60439176217622 -0.04761505560556 -0.26246807380738
 6  0.67528469746975  0.77511227912791 -0.22739685968597
 6 -0.20065893489349 -0.28038014311431 -0.36610425042504
 1  13.48806807880788 -0.24334776987699  1.12751758975898
 1  13.29759499549955 -1.93822440354035  1.95264539653965
 1 -14.27264004100410 -0.35261541854185  1.66224343034303
 1 -14.24698606560656 -0.36753367636764 -0.00727234723472
 1  13.04505970797080 -2.65235997909791 -0.62914097909791
 1 -12.68117357835784  1.79414393239324  1.68962843584358
 1  13.65982691469147  0.06501378127813 -1.40381626562656
 1  13.18191968496850 -1.29548177527753 -2.46571724772477
 1 -13.34857040104010  1.85257657865787 -1.29116704970497
 1 -12.25844445144515  2.95829789378938 -0.42889977297730
 1  11.68641726172617 -0.68824955105511  3.42002666366637
 1  10.07036290129013 -0.12753226332633  3.02231111211121
 1  11.50966023602360  0.81160089298930  2.65075421042104
 1  10.66308531153115 -3.02342292239224  0.36209159515952
 1  11.05384630163016 -3.08624354145415  2.00789071307131
 1  9.58822482348235 -2.27412840594059  1.52057700070007
 1 -11.53918081808181 -0.03058748774877  2.47734162716272
 1 -10.95984049304931 -1.77455461046105  2.38193419741974
 1 -12.62428358735874 -1.51959286428643  2.90324292029203
 1 -13.57277705870587 -2.77553880588059  0.95222973197320
 1 -11.95599864786479 -3.13925595359536  0.26918197419742
 1 -13.06361671967197 -2.14238454645465 -0.80678915291529
 1  9.01126295029503 -0.33786210631063  0.61584576857686
 1 -10.16271600360036 -2.12985670967097 -0.39858949194919
 1  10.14381680068007  0.84080417831783 -2.48684338733873
 1  12.03076151115112  1.43766805770577 -2.52697241124112
 1  11.52704693969397 -0.29435992309231 -3.14753188318832
 1 -11.36714772177218  1.85019824882488 -2.74126561956196
 1 -9.89522506150615  0.54576521352135 -2.28389299529953
 1 -9.93279503450345  2.09971858485849 -1.63368696469647
 1  14.93559011201120 -2.56615552065207  0.46805869886989
 1 -15.06326576157616  1.62207712171217  1.76342454745475
 1  10.28006348834884  2.38388169206921 -0.32753206820682
 1 -8.82325902290229  0.47798989698970 -0.09056386938694
 1  8.55870873287329  4.46250610351035 -0.16217252025203
 1  7.12839622862286  4.29610501940194  0.70727656065606
 1  8.54870958095809  3.85148803570357  1.52544556255626
 1 -8.25351238123812 -3.40145707480748  0.05010917191719
 1 -8.18858461446145 -3.10740975507551 -1.94700103010301
 1 -6.75976482548255 -3.39974362646265 -0.77875466746675
 1  7.07991965496550  0.67226096899690 -0.52347573957396
 1 -6.53511377337734  0.32467230713071 -0.15562793979398
 1  5.34148353235324  2.73812896079608  0.67092934793479
 1 -5.05661948194819 -2.18066937403740 -0.77979537953795
 1  4.76779987898790  0.19160740664066 -0.38037644864486
 1 -3.79335483948395  0.60445556245625  0.01516431243124
 1  3.16633441844184  3.03050709260926  1.46284248524853
 1  1.57979463246325  2.95406407730773  0.55164757275728
 1  3.05375939793979  3.77001483538354 -0.19586008200820
 1 -2.67354949194920 -2.98724587168717 -0.25511855585559
 1 -2.82295180318032 -2.50293141324132 -2.00966493349335
 1 -1.34620141914191 -2.65147532263226 -1.18588162416242
 1  2.27302446044604 -0.59945859695970 -0.32173007700770
 1 -1.92085148614861  0.95863578147815  0.33409679667967
 1  0.38130387738774  1.83456616251625  0.08202399739974
 1  0.29818258825883 -1.15899584968497 -0.51423900790079

