%nproc=4
%Mem=2GB
# td=(NStates=1) CAM-B3LYP/6-31G(d,p) 

TD

0 1
 8  14.87826604560456 -2.05429290039004 -0.30370922392239
 8 -14.93662025902590  1.93129498549855  0.49149824382438
 6  11.54941823582358 -1.05335596969697  1.08409177017702
 6 -12.34342197419742 -0.93245580558056  0.81124664666467
 6  12.94035276727673 -1.39116215431543  0.94472204420442
 6 -13.75407801680168 -0.15757191719172  0.68045694169417
 6  13.43662565656566 -1.96149167626763 -0.37376226522652
 6 -13.62641498149815  1.32896569456946  0.57103888788879
 6  10.99198772477248 -0.31083529962996 -0.06435068106811
 6 -11.29224632563256 -0.22841387038704 -0.08350910491049
 6  13.05822004100410 -0.98591934903490 -1.42579345234523
 6 -12.89403016301630  1.76130410741074 -0.63845088708871
 6  11.76816156315632 -0.24404477757776 -1.14302281828183
 6 -11.59990358035803  0.88397472047205 -0.81688122712271
 6  11.19193992099210 -0.34476363446345  2.48872931393139
 6  10.74662410341034 -2.43552403350335  1.18544666466647
 6 -11.82579477347735 -0.77990981898190  2.23301188118812
 6 -12.53601430343034 -2.37411285428543  0.39277118111811
 6  9.66045087108711  0.39909094599460  0.15929260926093
 6 -10.06127749474948 -0.97246133113311 -0.30021870287029
 6  11.36836960196020  0.55484994989499 -2.38180238723872
 6 -10.57167960696070  1.57616800080008 -1.73867317431743
 6  9.41333130013001  1.68299173707371  0.13043766976698
 6 -8.76583706870687 -0.57031058805881 -0.24924597059706
 6  8.00992697869787  2.22480222012201  0.20593626262626
 6 -7.61340648264826 -1.30203453655366 -0.45574090609061
 6  8.01319180018002  3.68268647354735  0.64223558955896
 6 -7.80880198619862 -2.80362011011101 -0.74549472447245
 6  6.89853526052605  1.55440543444344 -0.10287029302930
 6 -6.45479728272827 -0.63413888898890 -0.30545355135514
 6  5.53484403640364  2.01711941884188  0.01156607260726
 6 -5.03436455845585 -1.19144902100210 -0.42006418041804
 6  4.41172510351035  1.24378979287929 -0.23352898189819
 6 -4.02935835583558 -0.33888009410941 -0.14622195219522
 6  2.98984158915892  1.68561915981598 -0.03595193019302
 6 -2.66195995999600 -0.84887921802180 -0.31177883788379
 6  2.82081236223622  3.10362981188119  0.45552826182618
 6 -2.42006750075008 -2.30149745184518 -0.73574461446145
 6  2.06479605460546  0.67312447634763 -0.10770989598960
 6 -1.57905922892289  0.04320402630263 -0.05086691369137
 6  0.63913108210821  0.86990175807581  0.08282416241624
 6 -0.16102497149715 -0.18951105620562 -0.23518115811581
 1  13.69229850185019 -0.46808024312431  1.07340217821782
 1  13.31384662066207 -2.01603218431843  1.84787491949195
 1 -14.39216199319932 -0.51652180918092  1.48089529552955
 1 -14.27521888888889 -0.49724664766477 -0.33865548554855
 1  13.09027422942294 -2.96718146124612 -0.75432349734974
 1 -13.21723718471847  1.82981749974998  1.49053852685268
 1  13.95410634263426 -0.07068978907891 -1.46551243524352
 1  13.17829932293229 -1.52588481558156 -2.51320199619962
 1 -13.52267781178118  1.43165448644864 -1.52982091509151
 1 -12.67561616861686  2.79521158515852 -0.54723160616062
 1  11.76484510451045 -1.02542326842684  3.24937959895990
 1  10.16946281128113 -0.27567707780778  2.75777465846585
 1  11.71103037303730  0.63909364226423  2.64376351135113
 1  11.33041204420442 -3.07328790889089  0.43757914391439
 1  11.12412332933293 -2.82709762686269  2.02218214221422
 1  9.59888588958896 -2.38529952305231  1.26574151715171
 1 -11.72775967596760  0.13513908490849  2.77536142914291
 1 -10.87573208220822 -1.04257141214121  2.37263326732673
 1 -12.65934709370937 -1.35568647364736  2.84742733873387
 1 -13.37342712371237 -2.63797504950495  0.84018852785279
 1 -11.80622367036704 -2.98950097809781  0.75345040104010
 1 -12.87180753875388 -2.31419172717272 -0.56876535053505
 1  9.09064088808881 -0.46836515661566  0.60933511751175
 1 -10.18192792479248 -1.94190791479148 -0.55813544654465
 1  10.30305272427243  0.96975707360736 -2.19316401940194
 1  12.03365180018002  1.38012230313031 -2.25136485048505
 1  11.46970120512051  0.09776928982898 -3.35362249224923
 1 -11.20724173117312  1.87332056105611 -2.59498099109911
 1 -9.68387392639264  1.01361199819982 -2.11680628662866
 1 -10.21934368936894  2.59810842384238 -1.14603819981998
 1  15.21093764676468 -2.64025293039304  0.48423031603160
 1 -15.34966440144014  1.43696861086109  1.21925013001300
 1  10.14518000000000  2.30647395129513 -0.26429574457446
 1 -8.77910460746075  0.42610470847085  0.13520870787079
 1  8.55348821082108  4.38708856175618 -0.06420272327233
 1  7.07938132713271  4.35881129002900  0.89542537553755
 1  8.72662737273727  3.69251213811381  1.62658567656766
 1 -8.80353738373837 -3.12959988908891 -0.09812565156516
 1 -8.12306806280628 -2.73569258335834 -1.95651198119812
 1 -6.82929177817782 -3.33060671277128 -0.62548934093409
 1  7.00470213321332  0.54216795969597 -0.53455684768477
 1 -6.53639390139014  0.31602144204420 -0.09434181118112
 1  5.34275365936594  2.91262641054105  0.48088034303430
 1 -4.89664348434844 -2.29767107420742 -0.69133653365336
 1  4.42928602760276  0.20445869176918 -0.70005841684168
 1 -4.25499100310031  0.65290040694069  0.26009880588059
 1  2.99717750275027  3.28485252715271  1.51599780078008
 1  1.80351700470047  3.32404107500750  0.61424383238324
 1  3.28070209220922  3.72325015891589 -0.18053854985499
 1 -2.78541067806781 -3.02596974407441 -0.05188823282328
 1 -3.22231173917392 -2.23935505560556 -1.71287525452545
 1 -1.34208100710071 -2.56829700480048 -1.10377341334133
 1  2.45990314831483 -0.30952960406041 -0.40209811381138
 1 -1.99316871787179  1.03795371327133  0.13024641164116
 1  0.11594734173417  1.88076078197820  0.42775857085709
 1  0.22246501650165 -1.14821477157716 -0.35937352135214

