%nproc=4
%Mem=2GB
# td=(NStates=1) CAM-B3LYP/6-31G(d,p) 

TD

0 1
 8  14.72183040204020 -2.25162263336334 -0.31837069006901
 8 -14.82867946494649  1.89660151615162  0.79436853085309
 6  11.37896119011901 -1.05144577867787  1.23209657065707
 6 -12.29546717871787 -1.00168272827283  0.70834635663566
 6  12.83569230123012 -1.36342938103810  1.17629520152015
 6 -13.68598120712071 -0.24989114911491  0.71665056105611
 6  13.23547554155416 -2.03547907500750 -0.18842373137314
 6 -13.61218355835584  1.30389318731873  0.77019880388039
 6  10.84429295529553 -0.44449866596660 -0.03419766576658
 6 -11.29969707070707 -0.22965399439944 -0.12883363736374
 6  12.86239045804580 -1.16906766386639 -1.42144301730173
 6 -12.75537629762976  1.72647062406241 -0.38624566656666
 6  11.52391713871387 -0.42836320942094 -1.25659417541754
 6 -11.52711630163016  0.95990231323132 -0.71001054005401
 6  11.13378410541054 -0.12216137423742  2.46938737973797
 6  10.63833327432743 -2.33264374547455  1.46524464446445
 6 -11.74000619461946 -0.97644947294729  2.20055863586359
 6 -12.57134783678368 -2.48872431543154  0.25849775377538
 6  9.58739356535654  0.38633967086709  0.16931361136114
 6 -10.08141950895090 -1.07854193919392 -0.41232991399140
 6  11.02747551255126  0.19034349924993 -2.39662386938694
 6 -10.60847328632863  1.78098848284828 -1.66365567256726
 6  9.39829979697970  1.67620105800580 -0.21423679767977
 6 -8.75209569456946 -0.58207176417642 -0.31958300430043
 6  8.11557754375437  2.35671541144114  0.02655832483248
 6 -7.52740788278828 -1.29243357645765 -0.58281361336134
 6  8.15862634363436  3.79355756065607  0.38718008400840
 6 -7.57733883988399 -2.68631837993799 -1.37617779277928
 6  6.87811321832183  1.64197419131913 -0.16356636263626
 6 -6.31792359535954 -0.72985846094609 -0.14949795579558
 6  5.56194674667467  2.12792049894990  0.13411832783278
 6 -5.02616373837384 -1.32348222432243 -0.48086026002600
 6  4.39944387538754  1.27867328122812 -0.01807743674367
 6 -3.90581600160016 -0.49924613071307 -0.15060239023902
 6  3.05637824282428  1.91997259515952  0.13433509850985
 6 -2.50803456745675 -0.82041637173717 -0.33727138713871
 6  2.77927820882088  3.35960540944094  0.29759246824682
 6 -2.17162265626563 -2.10012731483148 -0.99780082008201
 6  2.10276985198520  0.84214137803780  0.08460933593359
 6 -1.57845916891689  0.03996370227023  0.02696086908691
 6  0.63866103510351  1.01719648754876  0.13621950195020
 6 -0.14041291029103 -0.07169927502750 -0.18779641964196
 1  13.34629390139014 -0.33582701780178  1.13831866986699
 1  13.26291152715272 -1.93549413051305  2.08287841984198
 1 -14.33410618761876 -0.70645080208021  1.56816402240224
 1 -14.18712007900790 -0.56561348434844 -0.28165978597860
 1  12.76762196419642 -3.13574831793179 -0.37270533553355
 1 -13.08782424342434  1.57241175917592  1.79230870387039
 1  13.65891682368237 -0.40089280938094 -1.62903878787879
 1  12.88820031303130 -1.76059828692869 -2.31352202820282
 1 -13.45990153415342  1.74297561856186 -1.29554748774877
 1 -12.62732133913391  2.90673273727373 -0.27613449644965
 1  11.41169978997900 -0.57423814991499  3.49524418541854
 1  10.05467133213321  0.10247073697370  2.57583646464647
 1  11.66737600760076  0.79081881478148  2.13280241524152
 1  11.01770077307731 -2.96202678277828  0.55206059205921
 1  10.94872578957896 -2.80373529062906  2.39008893289329
 1  9.63429943094309 -2.07602859595960  1.35984092709271
 1 -11.71944884488449  0.10843641464146  2.56387028002800
 1 -10.86505101410141 -1.55679283428343  2.44918092209221
 1 -12.33306446544655 -1.38549945494549  2.95354795079508
 1 -13.32405218621862 -2.88158941094109  0.78555306430643
 1 -11.79386243424342 -3.01698372637264  0.60794585058506
 1 -12.82784314231423 -2.48986929492949 -0.77202567656766
 1  8.68929075307531  0.04307598749875  0.89527371137114
 1 -10.05161489348935 -2.17369109310931 -0.89548918191819
 1  9.99817223622362  0.56693679157916 -2.48178288128813
 1  11.88643707870787  1.23496778767877 -2.47151686568657
 1  11.34476871187119 -0.49918040514051 -3.26424355435543
 1 -11.14529553655366  2.01001423042304 -2.51003249624963
 1 -9.69742528152815  1.10650128712871 -1.83304791079108
 1 -9.91999375437544  2.44969358235824 -1.14074767076708
 1  15.00338689168917 -2.59425833093309  0.50897279027903
 1 -15.50095953095309  1.37684259825983  1.34510271527153
 1  10.10314579657966  2.27846115001500 -0.56267558255826
 1 -8.59772646964696  0.35568766676668 -0.01597641064106
 1  8.80376323832383  4.28554840774077 -0.41779808280828
 1  7.13449683868387  4.14354976387639  0.30818665166517
 1  8.84089879987999  3.99558244514451  1.20646366436644
 1 -8.31279830983098 -3.58308523762376 -0.71422726172617
 1 -7.98093384938494 -2.49954896899690 -2.31286761676168
 1 -6.75557440644064 -3.27877152925293 -1.47987477947795
 1  7.19435109810981  0.58054179707971 -0.57529092109211
 1 -6.45873613561356  0.22676251615162  0.45553317631763
 1  5.46724610861086  3.17767291519152  0.23134538953895
 1 -4.73403722372237 -2.12004331143114 -0.87667506750675
 1  4.47478057705771  0.23445169106911 -0.04480289128913
 1 -4.06458196219622  0.48263338023802  0.17776057205721
 1  3.33133091809181  3.57196123802380  1.23347954895490
 1  1.64644129712971  3.47020569146915  0.50369277727773
 1  3.27879190119012  3.96865469936994 -0.58143863986399
 1 -2.45323746074608 -3.00813796089609 -0.40848389238924
 1 -2.80846035403540 -2.38294941504150 -1.88794276127613
 1 -1.08248504750475 -2.57683785888589 -1.12325536153615
 1  2.46601375937594 -0.08309696079608 -0.05787369136914
 1 -1.86376577757776  0.94971488938894  0.60185357235724
 1  0.10922666966697  2.06376908280828  0.30333612861286
 1  0.14159692969297 -0.98404835493549 -0.64227181118112

