%nproc=4
%Mem=2GB
# td=(NStates=1) CAM-B3LYP/6-31G(d,p) 

TD

0 1
 8  14.64179239823982 -2.32423989508951 -0.51671052405241
 8 -14.74617121412141  1.94341619761976  0.81061015501550
 6  11.47594088808881 -1.07752838693869  1.33074643564356
 6 -12.24766239823982 -1.03039559955996  0.91406692869287
 6  12.98503723572357 -1.33581661976198  1.08147571957196
 6 -13.63258586758676 -0.29179533953395  0.90003889988999
 6  13.32208420242024 -1.96138166526653 -0.25253014201420
 6 -13.41117345734573  1.26352915091509  0.66461824582458
 6  10.92257078307831 -0.42687690379038  0.04771052505251
 6 -11.32832993399340 -0.33563459245925 -0.13917467146715
 6  12.90215443444344 -0.92986374347435 -1.36804767776778
 6 -12.89809056905691  1.55846382338234 -0.63281032303230
 6  11.51031577857786 -0.40154052715272 -1.10699921592159
 6 -11.59757334733473  0.81616793979398 -0.81865140414041
 6  11.28500922792279 -0.35208436653665  2.58518895989599
 6  10.67595703670367 -2.45341582268227  1.50971909190919
 6 -11.59644183818382 -0.84193602160216  2.25956453645365
 6 -12.40123082508251 -2.46482192519252  0.67241914591459
 6  9.67938276427643  0.27629866676668  0.26390307030703
 6 -10.09089045604560 -1.11507559255926 -0.41204988598860
 6  10.86139890489049  0.39167363226323 -2.35012921992199
 6 -10.78202064106411  1.39094947894789 -1.87443675067507
 6  9.44197416441644  1.59634307220722 -0.02607798179818
 6 -8.84373485848585 -0.56040959795980 -0.36404745074507
 6  8.08349433543354  2.31637137703770  0.16258192719272
 6 -7.55777091909191 -1.27443177627763 -0.49552488448845
 6  8.21711219221922  3.79621782668267  0.52019338533853
 6 -7.69773087908791 -2.69621937003700 -0.86764693969397
 6  6.95914132113211  1.58511850575058  0.11717171117112
 6 -6.41308311131113 -0.64498997409741 -0.23998700470047
 6  5.55433598559856  2.03505121202120  0.33563847984799
 6 -5.12447356935694 -1.12338221432143 -0.54308648264826
 6  4.48393232423242  1.27384279817982  0.00146451745175
 6 -4.02617803780378 -0.27450365646565 -0.44259158915892
 6  3.19703230823082  1.76568716661666  0.00971263626363
 6 -2.62196596059606 -0.60859518961896 -0.62076973697370
 6  2.84273455445545  3.04963441234123  0.64357706670667
 6 -2.37215270927093 -2.10812811491149 -1.01470251025103
 6  2.12231180618062  0.90545770967097 -0.34860398539854
 6 -1.71427275027503  0.37573727962796 -0.46843867086709
 6  0.63142031103110  1.14961972987299 -0.27210133013301
 6 -0.25153402240224  0.14971286618662 -0.54767240724072
 1  13.54345361736174 -0.47372080718072  1.25165000300030
 1  13.32717795379538 -2.08683926502650  1.77074720672067
 1 -14.41538431543154 -0.49098925592559  1.68711591759176
 1 -14.19764113111311 -0.72611953495350 -0.04511613161316
 1  12.67702290429043 -2.77357210031003 -0.72124018901890
 1 -12.85529099009901  1.72678719671967  1.43017249024903
 1  13.65709664166417 -0.27054977507751 -1.43627951195119
 1  12.98226971997200 -1.37535976307631 -2.41666234223422
 1 -13.65368091209121  1.33922524352435 -1.32248018101810
 1 -12.66204481148115  2.61687375137514 -0.81926880988099
 1  11.88052667266727 -0.77670839693969  3.51137579857986
 1  10.11980784578458 -0.45183469356936  2.65941482248225
 1  11.52936220622062  0.95051478437844  2.41261039603960
 1  10.65338434143414 -2.99941052115211  0.41735712171217
 1  11.24129504650465 -3.03411832893289  2.24794471847185
 1  9.68039404040404 -2.20296128922892  2.08576351935194
 1 -11.39574647464746  0.11540711171117  2.70150404340434
 1 -10.43669817881788 -1.33464061906191  2.30279628362836
 1 -12.23785494449445 -1.14467537253725  3.06977957395740
 1 -13.30134991599160 -2.81968322032203  1.26778128712871
 1 -11.54061710971097 -2.89218124612461  0.68413346934693
 1 -12.76234659265927 -2.60541084908491 -0.21383985798580
 1  8.88469029302930 -0.27152547264727  0.75843002700270
 1 -10.20282001400140 -2.09296302030203 -0.88481811481148
 1  9.74554697369737  0.55466556445645 -2.48140284328433
 1  11.30396883188319  1.48382267316732 -2.52619233323332
 1  11.16386062106211 -0.08340882798280 -3.34810194019402
 1 -11.47150815781578  1.55455868486849 -2.68177967096710
 1 -9.99527506650665  0.61590222722272 -2.28457306330633
 1 -10.29016077107711  2.32001061406141 -1.68250184618462
 1  14.79155570857086 -3.22799170427043 -0.15560366736674
 1 -15.38709814481448  1.34839975397540  1.53920212521252
 1  10.21438692069207  2.08801210511051 -0.45685500050005
 1 -8.64497119411941  0.56701879987999 -0.18546335933593
 1  8.63344620662066  4.43518337123712 -0.26132243524352
 1  7.16288967796780  4.15029043794379  0.71898773177318
 1  8.79277398739874  4.05085797269727  1.38365138313831
 1 -8.34725175517552 -2.93969089818982  0.06395055605561
 1 -8.37286304230423 -2.98674768886889 -1.76454278427843
 1 -6.62982183118312 -3.15688934103410 -0.73001979397940
 1  7.14646630963096  0.62401614451445 -0.42730612261226
 1 -6.42192245424542  0.50906074597460 -0.10135251225122
 1  5.31174055805581  2.98859400730073  0.76024827982798
 1 -4.92342616261626 -2.21810311741174 -0.80602800280028
 1  4.50094319331933  0.13394164006401 -0.49907831883188
 1 -4.27914341834184  0.75528064496450 -0.08555575957596
 1  3.61534931993199  3.17269131103110  1.43219942094209
 1  1.67421407440744  3.18565723662366  0.74302671067107
 1  3.03562758475848  3.98214604850485 -0.02761325732573
 1 -2.76197833483348 -2.72942008910891 -0.32261530553055
 1 -2.66595610361036 -2.39025014511451 -1.96375034203420
 1 -1.36453325232523 -2.55554572967297 -0.94349738573857
 1  2.44791194919492 -0.19344799589959 -0.74097200120012
 1 -2.04558395939594  1.29514943284328 -0.26396300930093
 1  0.15036078307831  2.10500320622062  0.15902169716972
 1  0.29098186818682 -0.75130508060806 -0.99455703970397

