%nproc=4
%Mem=2GB
# td=(NStates=1) CAM-B3LYP/6-31G(d,p) 

TD

0 1
 8  14.70829904890489 -2.08506597769777 -0.50193904690469
 8 -14.80800739773977  2.04505636163616  0.86779587358736
 6  11.42900619461946 -1.10945157925793  1.19795315631563
 6 -12.24727235923592 -0.97173973397340  0.69723524552455
 6  12.92831156315632 -1.46901994009401  1.13141071307131
 6 -13.60480308930893 -0.12715887588759  0.74655355135514
 6  13.32694468846885 -1.94821034813481 -0.28413330233023
 6 -13.53925626562656  1.39848264626463  0.79661144514451
 6  10.89016754275428 -0.31358557465747  0.06575232923292
 6 -11.30078717971797 -0.31141217021702 -0.31847260126013
 6  12.89810402940294 -0.94899565666567 -1.31920279327933
 6 -12.82724348434844  1.81582955995600 -0.47187422942294
 6  11.50919566656666 -0.17197757085709 -1.10841935793579
 6 -11.55818940894089  0.90833715671567 -0.78193773277328
 6  11.29654038103810 -0.34790394849485  2.45692613361336
 6  10.66727616861686 -2.37444792589259  1.30319843984398
 6 -11.69981217521752 -0.89033086108611  2.21890047004700
 6 -12.58805950795080 -2.41706714971497  0.32421432543254
 6  9.63304813081308  0.45489652655266  0.26432311231123
 6 -10.04014538153815 -1.07410149514952 -0.49038771977198
 6  11.06594935993599  0.55571003590359 -2.38022222922292
 6 -10.64953739273927  1.53960434443444 -1.90691999899990
 6  9.33853382038204  1.60944438233823 -0.13285865986599
 6 -8.82767325232523 -0.54171772877288 -0.39851089708971
 6  8.10403638963896  2.34742448234823  0.04380004900490
 6 -7.61767690969097 -1.27355168826883 -0.68257358935894
 6  8.12454293529353  3.78044624952495  0.37574894089409
 6 -7.65147625362536 -2.77251699979998 -0.91722189718972
 6  6.96062146914691  1.57653764766477 -0.07639764576458
 6 -6.47837964096410 -0.66931240634063 -0.36779978597860
 6  5.54919547154716  1.99381708860886  0.13230814681468
 6 -5.09619074107411 -1.12579245534553 -0.42356453045305
 6  4.43700763176318  1.21212662656266  0.09805417641764
 6 -3.98452387238724 -0.38349455555556 -0.26732406240624
 6  3.04265687068707  1.65531612951295  0.08874053905391
 6 -2.64373813781378 -0.82267659775978 -0.41581924192419
 6  2.79426970797080  3.14193364226423  0.32899560856086
 6 -2.23582907690769 -2.30530783288329 -0.55537657765777
 6  2.14820439543954  0.64592175607561  0.00386126112611
 6 -1.59455077807781  0.07554726062606 -0.23167499449945
 6  0.71850901990199  0.73987875577558 -0.00516463646365
 6 -0.21773064206421 -0.22477458255826 -0.12386002600260
 1  13.22927219921992 -0.45392882798280  1.22399723772377
 1  13.17521275727573 -2.12257283838384  1.90796092809281
 1 -14.00813359035904 -0.47024718171817  1.64454166016602
 1 -14.20314168116812 -0.38689561256126 -0.09682130213021
 1  12.82945814781478 -2.89772451555155 -0.32327039203920
 1 -12.85779124012401  1.70220473847385  1.56771624462446
 1  13.55536646864686 -0.14154687478748 -1.29798568256826
 1  12.98470996399640 -1.32275450255025 -2.24069474547455
 1 -13.42739828382838  1.73729505050505 -1.20972890589059
 1 -12.38883749074908  2.88851091509151 -0.27452433543354
 1  11.83978259825983 -0.89555028112811  3.28337299829983
 1  10.24602046704670 -0.23915342544254  3.01346022702270
 1  11.77428669866987  0.54694442734273  2.36757589258926
 1  10.99581858485849 -3.08850943104310  0.57003238923892
 1  10.90073099009901 -3.09174409150915  2.24478440244024
 1  9.65080108110811 -2.03206419951995  1.24485942894289
 1 -11.10554745474547 -0.06009043804380  2.56423031603160
 1 -10.91947645664567 -1.80399755475548  2.32413841784178
 1 -12.42905406440644 -1.19412031703170  2.87181977797780
 1 -13.32944272527253 -3.00042129412941  0.87217172617262
 1 -11.62157520552055 -2.96481850985099  0.51708676467647
 1 -12.89353971197120 -2.30461076907691 -0.73418189218922
 1  8.85793761776178 -0.18485680578058  0.87082126612661
 1 -10.27496722872287 -2.08877260126013 -0.69837947094710
 1  9.88437085608561  0.66763686158616 -2.48970367336734
 1  11.49984841984199  1.60829512041204 -2.44111382538254
 1  11.43472770777078 -0.16897738483848 -3.42670980098010
 1 -11.30446145314531  1.89912314131413 -2.67884937793779
 1 -9.95454099309931  0.68235887288729 -2.01221582758276
 1 -10.12891464646465  2.54311292429243 -1.58792238823882
 1  15.17415396839684 -2.52158106320632  0.25539743274327
 1 -15.03275271027103  2.01730664466447  1.81865007000700
 1  10.26403188518852  2.14388769266927 -0.65270458545855
 1 -8.70611730873087  0.42657475547555  0.17167235423542
 1  8.58472133413341  4.38256810971097 -0.29757606060606
 1  7.30482387138714  4.46695210411041  0.25564139713971
 1  8.39156386638664  3.79916280318032  1.57640065806581
 1 -8.38029505950595 -3.23338026712671 -0.23004884388439
 1 -8.18041379737974 -3.08459747384738 -1.90389671967197
 1 -6.78727757675767 -3.40984463656366 -0.89692648464846
 1  7.10561222422242  0.56065980888089 -0.27238063006301
 1 -6.66829709170917  0.35220506040604 -0.05382775977598
 1  5.48548793279328  3.07499264716472  0.35268752375238
 1 -5.00538435843584 -2.18866017311731 -0.68431583158316
 1  4.62512561156116  0.18746699259926 -0.28351676267627
 1 -4.23403890789079  0.71626674357436 -0.10462766676668
 1  3.10520830583058  3.29191323322332  1.36502270327033
 1  1.69644629762976  3.30804947584758  0.31373378137814
 1  3.36353037503750  3.69428726262626 -0.20680117611761
 1 -2.61392352935294 -2.81355850295030  0.52996995299530
 1 -3.13768327632763 -2.79574069416942 -1.34361832883288
 1 -1.18573537253725 -2.54790496559656 -0.71825486148615
 1  2.49437659565957 -0.46860551165116 -0.17899580358036
 1 -1.98671807280728  1.14448436633663 -0.04840145314531
 1  0.34019976697670  1.84272697859786 -0.12555676067607
 1  0.21182395239524 -1.20077002710271 -0.14795237923792

