%nproc=4
%Mem=2GB
# td=(NStates=1) CAM-B3LYP/6-31G(d,p) 

TD

0 1
 8  14.64461268026803 -2.16812428352835 -0.57555640864086
 8 -14.82281887888789  1.90971282728273  0.55817491149115
 6  11.56722001600160 -0.91203183728373  1.28030139113911
 6 -12.29087671967197 -0.84397695769577  0.76771229322932
 6  13.04984371637164 -1.23651668976898  1.02814038603860
 6 -13.63794640364036 -0.16780294029403  0.77012590859086
 6  13.29403139713971 -1.88588411551155 -0.30932582158216
 6 -13.50839317931793  1.29538233623362  0.75225700970097
 6  10.99381790779078 -0.23258747484748  0.04225997999800
 6 -11.31633873487349 -0.21653268226823 -0.15024577857786
 6  12.83688790779078 -1.01047180428043 -1.48140901390139
 6 -12.74830559055906  1.74110208720872 -0.53596063806381
 6  11.48073282028203 -0.40546091919192 -1.27878639463946
 6 -11.51404499449945  0.97262358535854 -0.87790732973297
 6  11.52739346634664  0.02599344124412  2.33891433243324
 6  10.78343778477848 -2.22662314341434  1.66181430143014
 6 -11.63264545854585 -0.82302413041304  2.15250383038304
 6 -12.53029373137314 -2.33336877987799  0.47263916791679
 6  9.67609243524353  0.37802883978398  0.13952063206321
 6 -10.08415978297830 -1.00925501050105 -0.39929861086109
 6  10.85347811281128  0.15084954985499 -2.59154336133613
 6 -10.65894833383338  1.56396678067807 -1.94948425542554
 6  9.28050801780178  1.72376581448145 -0.19923529752975
 6 -8.84983546854686 -0.54800835783578 -0.22933397939794
 6  8.04354034003400  2.25338507840784  0.16145181418142
 6 -7.60462560456046 -1.29363369646965 -0.48826415841584
 6  8.07224770577058  3.74527273217322  0.47621898789879
 6 -7.64451555755576 -2.70692044014401 -1.00854102910291
 6  6.85577098409841  1.51047104100410  0.08927892189219
 6 -6.44297610061006 -0.64919039413941 -0.24557756375638
 6  5.54924547654765  1.96148385528553  0.38413332933293
 6 -5.08301942394239 -1.19371924802480 -0.65215738973897
 6  4.42571650265026  1.20335574947495  0.03759813081308
 6 -4.01058647864786 -0.37825403150315 -0.31430876087609
 6  3.06507911291129  1.53553415131513  0.31746341134113
 6 -2.65773953795380 -0.82365669576958 -0.52916057605761
 6  2.75700598159816  2.92385183408341  1.01204391339134
 6 -2.26396189018902 -2.19755705780578 -1.04792583258326
 6  2.09304887988799  0.63642080598060 -0.13617274227423
 6 -1.63568489148915  0.00530023592359 -0.12569439643964
 6  0.62209937893789  0.83931869976998  0.06906278627863
 6 -0.18797766676668 -0.20076218131813 -0.23562120212021
 1  13.54801407340734 -0.39268270337034  0.92024686268627
 1  13.69434467046705 -1.74950553165317  1.93631376337634
 1 -14.24005678267827 -0.51530168716872  1.66861406740674
 1 -14.37461882888289 -0.47469439243924 -0.09949156915692
 1  12.79057425942594 -2.83194793789379 -0.21147921292129
 1 -13.12339780078008  1.76053057105711  1.59874934793479
 1  13.85541647364736 -0.52105482558256 -1.62121800580058
 1  13.02161365436544 -1.56829905700570 -2.48166884288429
 1 -13.58021356535654  1.70393171417142 -1.32191012401240
 1 -12.59411801880188  2.90704276827683 -0.61605848884889
 1  12.12808142814282 -0.36767749384939  3.20764542554255
 1  10.45349121412141  0.13171366126613  2.69214809580958
 1  11.87358662866287  1.06124585748575  2.03398253325333
 1  10.78604760776077 -3.08724930503050  0.83234862086209
 1  11.25031594859486 -2.50266518361836  2.61679160316032
 1  9.69828582958296 -1.88258925202520  1.65958090109011
 1 -11.51585848584858  0.26178174917492  2.54399829282928
 1 -10.83770827982798 -1.23200035503550  2.35549155315532
 1 -11.99331049004901 -1.45115602060206  3.12133472947295
 1 -13.31599138013801 -2.78894014601460  1.20357486648665
 1 -11.65022807080708 -2.93770579857986  0.58005306130613
 1 -12.98442880088009 -2.52734304230423 -0.42771124512451
 1  9.02978480248025 -0.26107442754275  0.77178136213621
 1 -10.44503423542354 -2.15307903190319 -0.28365799879988
 1  9.72823524252425  0.21130122802280 -2.66447115011501
 1  11.34034246924693  0.93702799369937 -2.89704941894189
 1  10.97738197319732 -0.58192867996800 -3.42929005900590
 1 -11.03366437343734  1.92972620162016 -2.93200469346935
 1 -9.86162170117012  0.90754139113911 -2.27054166016602
 1 -10.20145190019002  2.31488010101010 -1.52382597859786
 1  15.08564511751175 -2.46369527462746  0.49328122112211
 1 -15.33524295929593  1.72241715571557  1.30969917491749
 1  10.11427690969097  2.22127543144314 -0.28781809680968
 1 -8.60879757675768  0.56233833183318 -0.03909872287229
 1  8.58815167716772  4.06196604950495 -0.32228853185319
 1  6.99018240724072  4.08283369226923  0.50398623162316
 1  8.54529923992399  4.16485937283728  1.38964198219822
 1 -8.05858288828883 -3.33778070717072 -0.14356019501950
 1 -8.17626338233823 -2.50264927902790 -2.05492182218222
 1 -6.72194104310431 -3.22379603170317 -1.12442923492349
 1  6.99311097409741  0.60443418631863 -0.41496488848885
 1 -6.54525478747875  0.28531837173717  0.04807243024302
 1  5.31268065206521  2.85315046294629  1.00066232123212
 1 -4.97199101910191 -2.21084239133913 -0.98297569756976
 1  4.66780987998800  0.19881812771277 -0.62177058805881
 1 -4.28882438643864  0.57765288218822  0.10989378537854
 1  3.14577236223622  2.88979302120212  1.94802100310031
 1  1.75175182818282  3.31217988888889  0.91128353635363
 1  3.68348237023702  3.53464129802980  0.40693019701970
 1 -2.84259639663966 -2.97130427752775 -0.26103914791479
 1 -2.64266377437744 -2.53481460156016 -2.01479544654465
 1 -1.17719451845185 -2.39084926002600 -1.33360639663966
 1  2.45820297829783 -0.42352100320032 -0.65175307930793
 1 -1.78964836583658  0.89380929882988  0.31769515651565
 1 -0.00285453845385  1.65685839173917  0.39938573357336
 1  0.20336310631063 -1.10231018111811 -0.60244782878288

