%nproc=4
%Mem=2GB
# td=(NStates=1) CAM-B3LYP/6-31G(d,p) 

TD

0 1
 8  14.74610282928293 -2.19818728982898 -0.28115696869687
 8 -14.77948454545455  1.96362821882188  0.77262635663566
 6  11.39893318731873 -1.06925755985599  1.24117747874787
 6 -12.30906853885388 -0.87542010201020  0.79390491249125
 6  12.94841357335734 -1.31201423952395  1.04778235023502
 6 -13.67757036603660 -0.19150531053105  0.81243013901390
 6  13.39271126512651 -1.84424995209521 -0.19708459745975
 6 -13.52954529452945  1.24469726772677  0.65523730773077
 6  10.99780830683068 -0.14840905700570 -0.03282752875288
 6 -11.36107320832083 -0.30944197319732 -0.28674942894289
 6  13.09706392539254 -0.84747550465046 -1.28465933893389
 6 -12.89159991999200  1.65194317131713 -0.63250029202920
 6  11.72267701470147 -0.20713108620862 -1.16915543154315
 6 -11.59999358935894  0.94020034303430 -0.87176671567157
 6  11.23838456545655 -0.21513067116712  2.46132657365737
 6  10.69810925192519 -2.39155963706371  1.29665778577858
 6 -11.75983817781778 -0.91716354435444  2.15771435143514
 6 -12.64547524952495 -2.33895933893389  0.36125802980298
 6  9.68572339833983  0.48226926382638  0.14788146814681
 6 -10.10156152315231 -0.99863394839484 -0.43254193519352
 6  11.27151991699170  0.48571303620362 -2.46617082408241
 6 -10.64175661466147  1.64771515551555 -1.93330263726373
 6  9.39676964396440  1.81178461636164 -0.18164353835384
 6 -8.96759724472447 -0.44245780278028 -0.27817886388639
 6  7.99330531653165  2.25734547444744 -0.01045537653765
 6 -7.69088423042304 -1.18595292839284 -0.39984531653165
 6  8.00174065506551  3.70928913381338  0.57068843484348
 6 -7.75304641064106 -2.63135288338834 -0.77889806480648
 6  6.91723713071307  1.44306430033003 -0.19926993299330
 6 -6.45133693669367 -0.51353682878288 -0.18197120312031
 6  5.58750930293029  1.92525023192319  0.01294621062106
 6 -5.10492161416142 -1.09797967406741 -0.26966914091409
 6  4.46239017001700  1.16650206410641 -0.21486711571157
 6 -3.97819323932393 -0.42666887298730 -0.19715704570457
 6  3.09946255125513  1.37767836573657  0.13161482648265
 6 -2.54720848484848 -0.81008533863386 -0.38857651765177
 6  2.76386666766677  2.72321177007701  0.81097380638064
 6 -2.34843033703370 -2.27362466456646 -0.90925196519652
 6  2.09914948994899  0.52011917581758 -0.11392051705171
 6 -1.55781710471047  0.10041974787479 -0.22816464346435
 6  0.75642281128113  0.80951571947195  0.03143902390239
 6 -0.19172804180418 -0.15550765586559 -0.35830347034703
 1  13.52319159115912 -0.40245368046805  1.21245608360836
 1  13.02549778577858 -2.13301388248825  1.87964809680968
 1 -14.25619839683968 -0.30200035703570  1.81037824382438
 1 -14.40628199519952 -0.54662158515852  0.03983236323632
 1  12.93082828482848 -2.67231197429743 -0.51013907890789
 1 -12.94293975497550  1.71257577557756  1.46341581458146
 1  13.92716364836484 -0.01885460556056 -1.60986687068707
 1  12.87958945194519 -1.30549277637764 -2.26749742574257
 1 -13.60405594959496  1.72063338433843 -1.32749068206821
 1 -12.78065667266727  2.75582764676468 -0.52517940094009
 1  11.60191881188119 -0.94262498859886  3.35059972097210
 1  10.31078694369437  0.36435692559256  2.47072595359536
 1  11.82437170717072  0.77567730063006  2.38721785678568
 1  10.82760176317632 -2.94064464456446  0.30817620362036
 1  10.93182409940994 -2.92771768886889  2.20676060006001
 1  9.57632363336334 -2.33830482358236  1.39006394939494
 1 -11.92176907690769  0.08809438043804  2.81443533653365
 1 -10.76529103810381 -1.09895705070507  2.22758876287629
 1 -12.05309646864687 -1.83154405940594  3.04060665666567
 1 -13.36445622662266 -2.40491174317432  1.15009951895189
 1 -11.69819286728673 -3.00587261526153  0.33121817781778
 1 -13.09488984698470 -2.57578788678868 -0.59149762376238
 1  9.06503832783278 -0.17355567566757  0.69547373137314
 1 -10.10965069706971 -2.09047277127713 -0.58526815981598
 1  10.19667208620862  0.90392048994899 -2.27597230023002
 1  11.73214164916492  1.38633292419242 -2.62712242624262
 1  11.42508674367437 -0.13891437853785 -3.27307443744374
 1 -11.26533754075408  1.92555578457846 -2.81295278827883
 1 -9.73057859685969  0.92776341334133 -2.23098770477048
 1 -10.35342709770977  2.74018263126313 -1.48958255425543
 1  14.93708026102610 -2.83195210031003  0.49466135913591
 1 -15.08193762876288  1.67806272027203  1.63387159215922
 1  10.03960944294429  2.50348365226523 -0.57463677867787
 1 -8.82077877487749  0.59494159215922 -0.01670648364836
 1  9.16945980798080  4.23936378927893  0.19143284028403
 1  7.10382377137714  4.48905431433143  0.32620845384538
 1  8.09370408040804  3.67743062996300  1.89586260426043
 1 -8.13098012801280 -3.16292322142214  0.06161032203220
 1 -8.31962771877188 -2.83038205230523 -1.55138146814681
 1 -6.91325017401740 -3.11775542764276 -0.96374316631663
 1  7.08543020602060  0.52259600250025 -0.74254764676468
 1 -6.36018628062806  0.53787362726273  0.03803142614261
 1  5.64915429942994  3.00582573047305  0.32657491249125
 1 -5.07983180318032 -2.18788009510951 -0.57425482548255
 1  4.90715381438144  0.08361660756076 -0.46859527052705
 1 -4.09041454545454  0.64686980388039 -0.04659186318632
 1  3.13100088508851  2.80378442034203  1.85320152115212
 1  1.75432208520852  3.08946761766177  0.65411781978198
 1  3.41847586958696  3.44324215811581  0.10988049204920
 1 -2.72808494549455 -3.08038518561856  0.01973892989299
 1 -2.98065757375738 -2.45408652875288 -1.83653762076208
 1 -1.35688248724872 -2.49568974407441 -1.09926296229623
 1  2.51281843984398 -0.56111476257626 -0.50945884988499
 1 -1.94281368236824  1.10386030393039  0.05162854985499
 1  0.36246199319932  1.70535324122412  0.53166896189619
 1  0.05747851785178 -1.17935788588859 -0.51193877787779

