%nproc=4
%Mem=2GB
# td=(NStates=1) CAM-B3LYP/6-31G(d,p) 

TD

0 1
 8  14.58392661166117 -2.42833030413041 -0.46837569056906
 8 -14.77943454045404  1.98390024602460  0.70975006900690
 6  11.36195948994900 -1.11183181728173  1.17220058105811
 6 -12.31944957695769 -0.94756731673167  0.82324784678468
 6  12.84734346634663 -1.48974201230123  1.08805637763776
 6 -13.70685329432943 -0.30602676267627  0.84701359735974
 6  13.16577857185719 -2.04482000910091 -0.37613250225023
 6 -13.53573591359136  1.35589838783878  0.72481426542654
 6  10.93546207220722 -0.33087730383038 -0.01999624562456
 6 -11.37420452145214 -0.28580960996100 -0.16573732773277
 6  12.85192941194119 -0.95307606470647 -1.41675254825483
 6 -12.85030579057906  1.60858883588359 -0.59504654665467
 6  11.59154390139014 -0.28278865196520 -1.24868338433843
 6 -11.64690828082808  0.82351867486749 -0.84567410641064
 6  11.26549727672767 -0.29263842194219  2.41481192219222
 6  10.51508094909491 -2.36965744684468  1.40626874687469
 6 -11.71059325332533 -1.01180300830083  2.16782536253625
 6 -12.63843454545455 -2.39549499249925  0.39203110711071
 6  9.61987681368137  0.41979301620162  0.16950363036304
 6 -10.02782414941494 -1.17851193619362 -0.41324000500050
 6  11.21000376537654  0.47383184808481 -2.43362756975698
 6 -10.71683412241224  1.42820320432043 -1.99089839683968
 6  9.50975094209421  1.73442688058806 -0.06858223222322
 6 -8.80368085308531 -0.51213477047705 -0.40975202120212
 6  8.14017000300030  2.41039077897790  0.17025269426943
 6 -7.55373051505151 -1.32499683278328 -0.59277460946095
 6  8.18142862386239  3.78735694059406  0.53471483748375
 6 -7.63682478847885 -2.80071982008201 -0.82527270227023
 6  6.95234064106411  1.63510350425042 -0.03042304830483
 6 -6.41863366636664 -0.57631310641064 -0.45164817081708
 6  5.58993954595460  2.08410611751175  0.23599851585159
 6 -5.06526764876488 -1.04666454255426 -0.52986516051605
 6  4.54335826682668  1.35460087398740 -0.03510913991399
 6 -3.91526694669467 -0.29455566166617 -0.23389071907191
 6  3.09089169416942  1.76268686658666  0.11503316831683
 6 -2.55962972697270 -0.72600693079308 -0.33643130313031
 6  2.79698997999800  3.27478692759276  0.40272298129813
 6 -2.29696519051905 -2.17331463356336 -0.76294733473347
 6  2.14152372737274  0.77912507640764 -0.10591971697170
 6 -1.50939226222622  0.08002770867087  0.05146331933193
 6  0.75449261826183  0.93425819371937  0.17275315531553
 6 -0.10430929992999 -0.08607071217122 -0.09836747674767
 1  13.47199647164716 -0.57090052515251  1.25801063906391
 1  13.20359559555956 -2.24817539863986  1.78941907390739
 1 -14.15498827582758 -0.15822597959796  1.80616782278228
 1 -14.50950231723172 -0.47721464446445 -0.01902352235224
 1  12.52396759875988 -2.99900464356436 -0.44018208320832
 1 -13.03616907790779  1.65369988798880  1.67474694769477
 1  13.82607353935393 -0.27563028312831 -1.56441232523252
 1  13.02570406340634 -1.52321454855486 -2.31608228422842
 1 -13.68063360736074  1.54527584858486 -1.42028996199620
 1 -12.49435804280428  2.65382744674467 -0.54140102310231
 1  11.75078369836984 -0.98642936903690  3.13509817081708
 1  10.21375724072407 -0.23245275537554  2.83968284928493
 1  11.72493176317632  0.66249598249825  2.50352948794880
 1  10.34291329432943 -3.12173275337534  0.54695008100810
 1  10.89384030103010 -2.84228914601460  2.29047897189719
 1  9.55268126912691 -2.04940593369337  1.45389033203320
 1 -11.42223912391239 -0.09750417941794  2.48338223122312
 1 -10.67997250625063 -1.56577373237324  2.24303030703070
 1 -12.30035119411941 -1.45885679067907  2.84135673167317
 1 -13.62974275527553 -2.70048130013001  1.02543705270527
 1 -11.70361340934093 -3.05437746574657  0.65787084308431
 1 -12.91301165916592 -2.65601590959096 -0.75270374437444
 1  8.78821064506451 -0.04467278737874  0.74315849984999
 1 -10.28185791779178 -2.24838856285629 -0.59088872187219
 1  10.19503192219222  0.83075317321732 -2.52931763476348
 1  12.07341577657766  1.37205149604961 -2.64408412241224
 1  11.39384361936194 -0.18853934103410 -3.20511764176418
 1 -11.36819782678268  1.81003423242324 -2.84328582158216
 1 -9.88907444644465  0.75882651965197 -2.50952555855586
 1 -10.15814756975698  2.15162377537754 -1.51124472047205
 1  14.80155670867087 -3.27306621172117  0.16365825882588
 1 -15.12125156015601  2.07785269926993  1.79591779677968
 1  10.35877135913591  2.46892019591959 -0.33073238823882
 1 -8.76797349434943  0.74152625062506 -0.20513532653265
 1  8.59732259425943  4.39819967286729 -0.32092839583958
 1  7.23901729072907  4.19434484338434  0.96119195219522
 1  8.91857656765676  3.90017290419042  1.38162118011801
 1 -8.01337836783678 -3.45576250535054 -0.08552439143914
 1 -8.41131688768877 -3.16434544864486 -1.57816414641464
 1 -6.57618646764676 -3.44498815091509 -1.02164895689569
 1  6.98706036903690  0.77963170607061 -0.46237962996300
 1 -6.61749201120112  0.46547638753875 -0.30898327532753
 1  5.58338772277228  3.23017816571657  0.45797805280528
 1 -4.80621444144414 -2.26082738983898 -0.69636703670367
 1  4.55720881988199  0.35210345624562 -0.19802821382138
 1 -3.92317782178218  0.90611572847285  0.12777557355736
 1  3.12002978797880  3.52848689058906  1.34379058005801
 1  1.61392804580458  3.16803547444745  0.31229363736374
 1  3.10883490549055  4.00369820372037 -0.33797429342934
 1 -2.74404654165417 -2.78625577267727  0.17132408840884
 1 -3.13664317231723 -2.38486960706071 -1.36788075507551
 1 -1.47593439243924 -2.38830900600060 -1.20498353435344
 1  2.58609576757676 -0.09800845194519 -0.53946185018502
 1 -1.87495689668967  1.03387330523052  0.29078246524652
 1  0.36279202620262  2.00431313721372  0.78843463846385
 1  0.30524329432943 -0.91361131123112 -0.52869045304530

