%nproc=4
%Mem=2GB
# td=(NStates=1) CAM-B3LYP/6-31G(d,p) 

TD

0 1
 8  14.68816703570357 -2.15414288538854 -0.49534838783878
 8 -14.71927852485248  1.96346820282028  0.79500859485949
 6  11.46051934593459 -1.12736337043704  1.20134349534953
 6 -12.20777840984098 -0.87699025902590  0.84046956895690
 6  12.98845757775778 -1.42203524162416  1.04388196019602
 6 -13.63592620162016 -0.13499965996600  0.80140903690369
 6  13.37449944394439 -1.92521804890489 -0.27115200420042
 6 -13.48784112411241  1.31175397339734  0.75227701170117
 6  10.88577710371037 -0.30919513561356  0.06179193319332
 6 -11.34539164016402 -0.29625065406541 -0.33575432943294
 6  12.96541076007601 -0.94535529262926 -1.40868174117412
 6 -12.83978473847385  1.63759173617362 -0.57495453745375
 6  11.67648239523952 -0.27697807090709 -1.13969248524853
 6 -11.60635422542254  0.84941126412641 -0.94896443544354
 6  11.24181490849085 -0.33584274237424  2.47413785478548
 6  10.62946238723872 -2.36088656975698  1.36205432543254
 6 -11.57243943794379 -0.61601342934293  2.24727330733073
 6 -12.62659336133613 -2.50120556355636  0.75131703570357
 6  9.60246507250725  0.30065110201020  0.21819849984999
 6 -10.09559092609261 -1.04449853485349 -0.35353403440344
 6  11.23933669866987  0.59281374627463 -2.28265247224722
 6 -10.75814825382538  1.33211359535954 -2.12976228322832
 6  9.37240720772077  1.61125456335634 -0.13258863286329
 6 -8.89160964596460 -0.59444300130013 -0.31542258825883
 6  8.03404939093909  2.22036177607761  0.18787445644564
 6 -7.59526466846685 -1.29413374647465 -0.49971530353035
 6  8.09060954195420  3.68294649954996  0.53778514451445
 6 -7.74695580158016 -2.84199394749475 -0.82405258025803
 6  6.84953036003600  1.54079407330733  0.05022501650165
 6 -6.46469827282728 -0.64168964406441 -0.43336634263426
 6  5.47459801180118  2.01812951985199  0.21859677567757
 6 -5.04163528552855 -1.22025190129013 -0.50104227822782
 6  4.48331226222622  1.26037145104510  0.02121649264926
 6 -4.04606002600260 -0.36206241234123 -0.38513584358436
 6  2.99374197919792  1.68635923382338  0.14272593759376
 6 -2.69426319031903 -0.69964429452945 -0.54783244324432
 6  2.80377065806581  3.01765121402140  0.55617832683268
 6 -2.25733122712271 -2.13087038913891 -0.95636667666767
 6  2.12993256825683  0.77910507440744 -0.08463758875888
 6 -1.60455177817782  0.18557826372637 -0.25252707970797
 6  0.69771694069407  0.99531429932993 -0.00855497549755
 6 -0.18190705970597  0.09826772167217 -0.33683132313231
 1  13.50612988498850 -0.49489292439244  1.35407024502450
 1  13.20760599659966 -2.31184176527653  1.54434456645665
 1 -14.14317709470947 -0.56053621062106  1.68169537553755
 1 -14.19817118411841 -0.49235615861586  0.08228660866087
 1  12.73947914991499 -2.80560530363036 -0.66687475247525
 1 -12.77125258625863  1.59506402440244  1.73701317431743
 1  13.91474240624062 -0.45229794989499 -1.47054293829383
 1  12.86122761576158 -1.26049827692769 -2.40645132113211
 1 -13.46441198519852  1.46004732573257 -1.36303423642364
 1 -12.78142674967497  2.68559062306231 -0.91230811381138
 1  11.90520914091409 -1.13546427252725  3.19294395539554
 1  10.18604446944695 -0.20799030913091  2.68012689368937
 1  11.66455572557256  0.55505523842384  2.62427156215622
 1  10.58785778877888 -2.89910049014901  0.34000938693869
 1  11.13852476947695 -2.92888780588059  2.04779470347035
 1  9.66503250425042 -2.24973596669667  1.61354629762976
 1 -11.29153605360536  0.40895646664666  2.24388828182818
 1 -10.71976648564856 -1.40780793579358  2.21521752575258
 1 -12.03616477547755 -1.07453835883588  3.02344494049405
 1 -13.23243302430243 -2.72410366236624  1.63509801880188
 1 -11.62934598259826 -3.03829585758576  0.88396345234523
 1 -13.01109146714671 -2.71136144414441 -0.12587106110611
 1  8.78601042504250 -0.26012433253325  0.71024520852085
 1 -10.14645437743774 -2.02970669466947 -0.32635226822682
 1  10.13292571157116  0.72184228212821 -2.26833153615362
 1  11.60263869886989  1.67907219811981 -2.37740745474548
 1  11.47614184918492  0.12389190209021 -3.33124025402540
 1 -11.37239824682468  1.46570979998000 -3.11735322832283
 1 -9.89788532753275  0.67997863486349 -2.37886249224923
 1 -10.51229298429843  2.26675528852885 -1.75353894989499
 1  15.14370092309231 -3.04789369446945 -0.08618672567257
 1 -14.80731016601660  1.86399131313131  1.91541974697470
 1  10.31947742974297  2.12975627952795 -0.37244655965597
 1 -8.81427812481248  0.51127322532253 -0.38229304230423
 1  8.55001786378638  4.23158301120112 -0.27483378637864
 1  7.13433682268227  4.23144855375538  0.92205803880388
 1  8.74527923792379  3.86361924882488  1.45636865486549
 1 -8.49245627562756 -3.52945987508751 -0.21718755775578
 1 -8.21532728872887 -3.05921493559356 -1.75745207520752
 1 -6.71939078807881 -3.18130178227823 -0.75664245624563
 1  6.87235889888989  0.49378312121212 -0.23804719671967
 1 -6.39249951195120  0.36424626452645 -0.02187456445645
 1  5.10179956395640  3.05710085798580  0.41330358535854
 1 -4.88295211521152 -2.20284159125913 -0.90463786378638
 1  4.59349244824482  0.35537378327833 -0.31557996899690
 1 -4.24124962896290  0.87425254215422 -0.00764796879688
 1  2.93511129612961  3.15471951385139  1.72012821382138
 1  1.82114876787679  3.20158882978298  0.75271767976798
 1  3.36872089408941  3.67042487638764  0.12186169016902
 1 -2.70823296029603 -2.70789793689369 -0.22270531453145
 1 -2.70481998999900 -2.30873199329933 -1.93151711871187
 1 -1.01096789578958 -2.22397257235724 -1.01054409040904
 1  2.42640979897990 -0.27393604470447 -0.31402930693069
 1 -2.08994839583958  1.12829274717472  0.07028041504150
 1  0.43051879887989  1.99558226412641  0.23643943894389
 1  0.31966473647365 -0.95625557565757 -0.52750033403340

