%nproc=4
%Mem=2GB
# td=(NStates=1) CAM-B3LYP/6-31G(d,p) 

TD

0 1
 8  14.93999221822182 -2.03397086818682 -0.30110896389639
 8 -14.76411300830083  2.02163401940194  0.90322941694169
 6  11.62122541654165 -1.00473110721072  1.27943130413041
 6 -12.35193282528253 -0.92479503950395  0.65192071407141
 6  13.07366609860986 -1.27686072417242  1.11476904890489
 6 -13.64531714071407 -0.05674183418342  0.74261315731573
 6  13.51426342034203 -1.86971249834983 -0.21127601660166
 6 -13.52937527752775  1.40734353235324  0.80674245824582
 6  11.01678020402040 -0.33131734783478 -0.07794204020402
 6 -11.36424352535253 -0.19274030303030 -0.21695244924492
 6  13.08186240524052 -0.85516627372737 -1.28885975897590
 6 -12.75909666966697  1.84005198219822 -0.38584562656266
 6  11.86390113711371 -0.23933430653065 -1.16147466346635
 6 -11.47708129812981  1.07314363736374 -0.69224876387639
 6  11.24968569556956 -0.19069822792279  2.50448088908891
 6  10.85433487448745 -2.35666614771477  1.36586470647065
 6 -11.77845003900390 -1.14610643864386  2.18117669766977
 6 -12.59576027802780 -2.33723916691669 -0.05836393239324
 6  9.73735856185619  0.36653769066907  0.09845652565257
 6 -10.10519188618862 -1.04254833983398 -0.39828850985099
 6  11.38402116711671  0.37240170507051 -2.44875908290829
 6 -10.57248968796880  1.70487087108711 -1.70241954895490
 6  9.34426439343934  1.64470790869087 -0.20938631263126
 6 -8.86030651565157 -0.59317287428743 -0.33961500750075
 6  7.95670165616562  2.12098183808381 -0.02067639863986
 6 -7.72982812481248 -1.34416874997500 -0.60493582558256
 6  7.98812929392939  3.62358056295630  0.13382474847485
 6 -7.76883798979898 -2.81944169226923 -0.89118929392939
 6  6.82946835383538  1.44270426432643 -0.10596060206021
 6 -6.48981078407841 -0.71577705280528 -0.39102210821082
 6  5.48848940094009  2.05265297219722  0.01629654565457
 6 -5.18426954895490 -1.22172204830483 -0.40367254125413
 6  4.38146207720772  1.28269368326833 -0.05233086208621
 6 -4.07750317031703 -0.35073127922792 -0.20427775777578
 6  2.95080768576858  1.49093969186919  0.12372403740374
 6 -2.68210197419742 -0.85899022912291 -0.36442410241024
 6  2.69282956395640  2.93158260716072  0.57605031403140
 6 -2.38413390739074 -2.26177347944794 -0.67182822282228
 6  2.00913048804880  0.56854401830183 -0.00131925692569
 6 -1.69139046204620  0.14894460036004 -0.13713554055406
 6  0.54999216821682  0.89688445634563  0.08725460546055
 6 -0.33471234023402 -0.16428853395340 -0.09322696269627
 1  13.64500377237724 -0.47198063316332  1.23987882588259
 1  13.37254249024902 -1.95235581668167  2.01285141714171
 1 -14.36642941994199 -0.35418557555756  1.45480268626863
 1 -14.06375774277428 -0.29005592859286 -0.28968058805881
 1  12.73220842284228 -2.75282002510251 -0.39529759475948
 1 -12.98296375737574  1.74938945694570  1.69061853485349
 1  13.93597452945295 -0.24645736583658 -1.35285116911691
 1  13.08431992499250 -1.37902012911291 -2.33489416541654
 1 -13.48303384738474  1.69485080608061 -1.30846877987799
 1 -12.48946755375538  2.98518058205821 -0.34711159415942
 1  11.82410103010301 -0.70765149124913  3.28938359935994
 1  10.16200206520652 -0.00014952505251  2.55132401340134
 1  11.48931820182018  0.98556828972897  2.18400753575358
 1  10.74078308130813 -3.00242082218222  0.48975436143614
 1  11.04756567356736 -3.10916583368337  2.41350127412741
 1  9.74410041104110 -2.02673366646665  1.72285722872287
 1 -11.74021092109211 -0.21825625462546  2.79209310231023
 1 -10.72458696769677 -1.76443359835984  2.27978398239824
 1 -12.62739389838984 -1.89329023402340  2.87531012701270
 1 -13.39543932493249 -2.70118137013701  0.55522003100310
 1 -11.59337238523852 -2.87964999299930 -0.03823876787679
 1 -12.82622298029803 -2.11514182218222 -1.14841331533153
 1  8.94036586058606 -0.28677699779978  0.40577476147615
 1 -10.31285101710171 -2.09752347634764 -0.88444807780778
 1  10.26591901090109  0.46082618051805 -2.43392809580958
 1  11.61837027202720  1.68513280418042 -2.46314602860286
 1  11.65064929992999 -0.32836332343234 -3.23900103010301
 1 -11.10885189218922  2.09358258725873 -2.54929642264226
 1 -9.64464000300030  0.80015065206521 -2.22716732273227
 1 -9.92326408140814  2.44062267526753 -1.16890048604860
 1  15.07614416741674 -2.51891079617962  0.46590848384838
 1 -15.21091052605260  1.63163807780778  1.58825703070307
 1  10.19403488548855  2.26867017091709 -0.60251956695670
 1 -8.69674637163716  0.46478857685769 -0.13915872887289
 1  8.43077593959396  4.16458631153115 -0.88035433843384
 1  7.22999638863886  4.25200060896090  0.33366919991999
 1  8.78920363036304  3.91584447134713  1.01868488648865
 1 -8.45592262226223 -3.51458838793879 -0.26473231223122
 1 -8.02853860986099 -3.01828084218422 -2.03977030703070
 1 -6.73943279227923 -3.24546819891989 -0.75391218321832
 1  6.89276093909391  0.36022976587659 -0.34925831783178
 1 -6.51751201320132  0.29405924582458 -0.00983336033603
 1  5.52485186918692  3.04289943784378  0.45923817881788
 1 -5.02236605660566 -2.26305761286129 -0.86105350535054
 1  4.57111021002100  0.14631287718772 -0.18763717471747
 1 -4.25729123312331  0.65205032193219  0.13390618661866
 1  3.32268005300530  3.28344238613861  1.35968216921692
 1  1.61462811581158  3.21305997689769  0.88984139213921
 1  2.72371639363936  3.66020385428543 -0.15810630663066
 1 -2.80927306430643 -2.78863601070107  0.27532448844885
 1 -3.10847035503550 -2.60356147624762 -1.68074204120412
 1 -1.36683348234823 -2.40185036013601 -0.86103913991399
 1  2.23923108110811 -0.27118576967697 -0.39218712271227
 1 -2.07418681968197  0.98784870277028  0.08839222622262
 1  0.15121086808681  1.79681238713871  0.22653844884488
 1  0.10769353935394 -0.94741469156916 -0.54777236123612

