%nproc=4
%Mem=2GB
# td=(NStates=1) CAM-B3LYP/6-31G(d,p) 

TD

0 1
 8  14.70195841484149 -2.23979145024502 -0.40578943194319
 8 -14.81289788678868  1.90403225922592  0.72610170417042
 6  11.43835712971297 -1.16850748484848  1.18557191819182
 6 -12.31058869086909 -0.95404796479648  0.75559108110811
 6  12.93207193919392 -1.56411945004500  1.16462403440344
 6 -13.66812942194219 -0.22177833783378  0.72367126312631
 6  13.35566756075607 -1.96617214431443 -0.30048493749375
 6 -13.48743108310831  1.28834163216322  0.74176596059606
 6  10.96788531453145 -0.39039325542554 -0.00403464946495
 6 -11.33716081708171 -0.26127715671567 -0.17064781878188
 6  13.07475169416942 -0.95461621872187 -1.35523639663966
 6 -12.78718947894789  1.77372534953495 -0.50269731173117
 6  11.72141688868887 -0.19823019611961 -1.09882839883988
 6 -11.60151374137414  0.89386570957096 -0.81550108910891
 6  11.20685141214121 -0.24523368146815  2.36884732573257
 6  10.62057149814981 -2.45079556065607  1.37390551055106
 6 -11.73332552655265 -0.95981780978098  2.15472405240524
 6 -12.60883158515852 -2.42282772577258  0.47092899689969
 6  9.64677950395039  0.30914195109511  0.13947062706271
 6 -10.12983435043504 -1.06578066306631 -0.40249893089309
 6  11.39363212821282  0.55684014891489 -2.32878708570857
 6 -10.69096153515352  1.50154053805381 -1.82487179417942
 6  9.32372233923392  1.61244468236824 -0.08625399939994
 6 -8.80977146214621 -0.67763132013201 -0.25779682568257
 6  7.98307429342934  2.34879461936194  0.18296396539654
 6 -7.54071921392139 -1.32172650575058 -0.47723305530553
 6  8.09580006100610  3.82603080798080  0.42997436343634
 6 -7.73723482948295 -2.88000774887489 -0.92710288528853
 6  6.97124253125313  1.54067406130613 -0.09122912891289
 6 -6.47605940894089 -0.68354382948295 -0.30272327832783
 6  5.49517006900690  1.98797650455046  0.06967188318832
 6 -5.07429855185519 -1.11877175327533 -0.48284045804580
 6  4.42125605660566  1.23736915081508 -0.14004963396340
 6 -4.00974639463946 -0.33471967806781 -0.28548587858786
 6  3.10804340934093  1.78614921282128  0.11964362936294
 6 -2.62856662066207 -0.70850518061806 -0.37435509550955
 6  2.86875715671567  3.18895834473447  0.50005271427143
 6 -2.29953544754475 -2.14567186928693 -0.75309634963496
 6  2.12153172817282  0.79139630353035 -0.09669879487949
 6 -1.68000932393239  0.22779248514851 -0.11832365936594
 6  0.67106427542754  0.98140290819082  0.01692757275728
 6 -0.28938780778078  0.09943783868387 -0.32968060806081
 1  13.67481675367537 -0.72292572767277  1.42339717771777
 1  12.97330256625663 -2.24225480658066  1.90738087008701
 1 -14.20080285728573 -0.56276643364336  1.39712691869187
 1 -14.28409977697770 -0.41422834583458 -0.37515913591359
 1  12.73913911591159 -2.87772251535154 -0.54069213421342
 1 -12.81350681168117  1.63211772977298  1.68505797879788
 1  13.85114604660466 -0.15469818991899 -1.23275915991599
 1  13.10296178917892 -1.30994322142214 -2.42074275027503
 1 -13.43631917591759  1.82355367636764 -1.40908884188419
 1 -12.51918052505251  2.79007107110711 -0.13376025902590
 1  11.69262788278828 -0.63479420552055  3.28483314431443
 1  10.27973383838384  0.19049953985399  2.64066294729473
 1  11.75333460346035  0.70335006790679  2.13529266426643
 1  10.51055005800580 -3.13129370947095  0.63188857485749
 1  10.65877679467947 -3.03532844994499  2.37942786678668
 1  9.60974697569757 -2.21403239633963  1.46782172517252
 1 -11.87017391739174  0.00833640464046  2.68616250925093
 1 -10.53556806580658 -1.11099825482548  2.25533153715372
 1 -12.36751791079108 -1.68186909190919  2.86191878787879
 1 -13.47607738873887 -2.84355560756076  1.17205171417142
 1 -11.65586863486349 -2.96988901690169  0.40306536253625
 1 -12.87692805080508 -2.65784609260926 -0.53971244524452
 1  8.92965478947895 -0.37960628072807  0.58412259625963
 1 -10.33629336133613 -2.14011773577358 -0.44391402440244
 1  10.35919833883388  0.90144024192419 -2.53504820782078
 1  12.04700313531353  1.37451174207421 -2.79687940194019
 1  11.52747698269827 -0.33477396449645 -3.07026415641564
 1 -11.22250325732573  2.24628785778578 -2.43088458145815
 1 -9.95748128712871  0.80340097709771 -2.30116472247225
 1 -9.91190294529453  2.05071368436844 -1.31712530853085
 1  14.85905245824582 -2.87283618871887  0.29446133913391
 1 -15.20024945994599  1.78997391139114  1.51480968596860
 1  10.15260074207421  2.24107741164116 -0.25406472147215
 1 -8.66693339033903  0.56139823782378 -0.11558637163716
 1  8.92956581858186  4.32181203410341 -0.17570387338734
 1  7.12278566756676  4.29064447334734  0.11710754375438
 1  8.53287799779978  3.99182206910691  1.54062708070807
 1 -8.51666869686969 -3.22330926002600 -0.16999283828383
 1 -8.28823457945795 -2.96697571167117 -1.83225955595560
 1 -6.77734658365837 -3.16599025112511 -1.17842463446345
 1  7.14304596759676  0.26761050395040 -0.32394578657866
 1 -6.55931619361936  0.28110795069507 -0.02812518951895
 1  5.28602798679868  3.08284343224322  0.05185744074407
 1 -4.98008182818282 -2.25734704180418 -0.54354175417542
 1  4.40343344234423  0.27811605750575 -0.66030444144414
 1 -4.16607211121112  0.68168328522852 -0.17751495549555
 1  3.33570135513551  3.49205324722472  1.32595879687969
 1  1.75872252525253  3.44776344724472  0.45619802780278
 1  3.29782380438044  3.93588142204220 -0.20803129912991
 1 -2.95906804380438 -2.93366051315132  0.00070702670267
 1 -2.35968547654766 -2.49017013711371 -1.94358832583258
 1 -1.15640243924392 -2.32054222932293 -0.25074811081108
 1  2.60426758475848 -0.25862451355136 -0.48212611661166
 1 -2.06135553655366  1.31396131403140  0.06572995999600
 1  0.39416516351635  2.03369607550755  0.65158095309531
 1  0.20225299529953 -0.89015896599660 -0.69094667866787

