%nproc=4
%Mem=2GB
# td=(NStates=1) CAM-B3LYP/6-31G(d,p) 

TD

0 1
 8  14.89472769176918 -2.05459293039304 -0.28966781978198
 8 -14.60485708270827  2.08800065606561  0.79912900690069
 6  11.49054234823482 -1.05389602370237  1.18068142914291
 6 -12.37152478447845 -0.79571213121312  0.79195471747175
 6  12.90533926592659 -1.45976901500150  1.14166173817382
 6 -13.59995260426042 -0.13288944894489  0.87142603860386
 6  13.33667566156616 -1.94874040114011 -0.22516740574057
 6 -13.35433777377738  1.40737353535354  0.94587637163716
 6  10.93719224522452 -0.31421563766377 -0.00227447344734
 6 -11.29035613661366 -0.28194922392239 -0.13527428142814
 6  12.98250246924692 -0.91402215931593 -1.23554442744274
 6 -12.61546230623062  1.84863284028403 -0.36384342634263
 6  11.73954870187019 -0.23611398449845 -1.12862137813781
 6 -11.45764935493549  0.96614293729373 -0.75895543454345
 6  11.26661738873887 -0.19191834993499  2.52709315031503
 6  10.58054749574958 -2.37071755285529  1.33669178917892
 6 -11.53892608660866 -0.82480430843084  2.19339791979198
 6 -12.61944264626463 -2.28358380138014  0.39490139413941
 6  9.57196202220222  0.22138317521752  0.12913959395940
 6 -10.12719408640864 -1.10201428642864 -0.53883256425643
 6  11.24665743074307  0.62960742564256 -2.32028623562356
 6 -10.57926036503650  1.58090847484748 -1.81744105110511
 6  9.24858482548255  1.63917735563556 -0.07855322932293
 6 -8.87059754475448 -0.62854641164116 -0.37223826982698
 6  7.90423640964096  2.13597333723372  0.19644531353135
 6 -7.65366050805081 -1.49653398649865 -0.57987331933193
 6  8.06679716071607  3.60882908780878  0.58727009300930
 6 -7.69040014601460 -2.90675042314231 -0.91683185818582
 6  6.78568397539754  1.59294928882888 -0.04967497349735
 6 -6.42145394839484 -0.80269574467447 -0.45193819981998
 6  5.41303185518552  2.02127983488349  0.06487140314031
 6 -5.09928105010501 -1.34018389448945 -0.60004217821782
 6  4.33947787878788  1.25225063896390 -0.08003363236324
 6 -3.90141556155616 -0.58812501860186 -0.14725205520552
 6  2.93583618861886  1.82131272917292  0.04361602660266
 6 -2.62161592559256 -0.98037236733673 -0.41597925792579
 6  2.71688196919692  3.25215466436644  0.31842455145515
 6 -2.20445593959396 -2.37183448554855 -0.89927096709671
 6  1.96669624462446  0.75925308920892 -0.22466159115912
 6 -1.68867019001900  0.05226493239324 -0.24918674567457
 6  0.56948411741174  0.99748451635164 -0.06373049304930
 6 -0.28504737373737 -0.01819392449245 -0.34301194119412
 1  13.34496376837684 -0.42763619871987  1.31586642464246
 1  13.34400963696370 -1.94405498659866  1.96447657965797
 1 -14.20547332433243 -0.25371552855285  1.72525973197320
 1 -14.16318768576858 -0.39423634663466 -0.07804942494249
 1  12.81331653365337 -2.90209495259526 -0.36473453845385
 1 -12.93988944994499  1.72725724372437  2.01956142914291
 1  13.83793472547255 -0.17885060516052 -1.39464534853485
 1  12.79839133213321 -1.48737096419642 -2.15461613761376
 1 -13.37542308630863  1.95003632463246 -1.19139707270727
 1 -12.25921452845285  2.93892595659566 -0.22132901590159
 1  11.57473609360936 -0.60410113621362  3.34376903790379
 1  10.24299016401640  0.20840133003300  2.58806768776878
 1  11.80991026102610  0.91124085698570  2.45582471747175
 1  10.75850485348535 -3.01555213531353  0.38562394839484
 1  10.98145906290629 -2.94637955505551  2.17545746974697
 1  9.55133113411341 -2.27959895299530  1.45740068306831
 1 -11.03698059805981  0.11953752475248  2.63029692269227
 1 -10.83560806980698 -1.72537969296930  2.14426043004300
 1 -12.25329648864886 -1.03123402840284  3.02956555255526
 1 -13.36681646264626 -2.74357560956096  1.11238574757476
 1 -11.72459550755075 -2.99203123112311  0.33953900990099
 1 -13.14341469946995 -2.26292660066007 -0.65368384238424
 1  8.76309813381338 -0.49858817891789  0.40697488148815
 1 -10.26781651365137 -2.21981570557056 -0.60779041204120
 1  10.20951337033703  1.16355645354535 -2.25899060206021
 1  11.91720015501550  1.35671996289629 -2.79575928992899
 1  11.10897513251325  0.00431994489449 -3.44883201320132
 1 -11.14651565856586  2.13313654265427 -2.56331782478248
 1 -10.02173771277128  0.85960659765977 -2.29299390539054
 1 -10.03749550455045  2.42008062106211 -1.39643323932393
 1  15.36019257225722 -3.04108301340134  0.07684957795780
 1 -15.12532196719672  2.00208512251225  1.63655186018602
 1  9.89317479947995  2.28898220212021 -0.45430474547455
 1 -8.77830452745274  0.35228732673267 -0.13893870687069
 1  8.51666452845284  4.24772462536254 -0.33199950295030
 1  7.02746613561356  3.89352476137614  0.76046187918792
 1  8.71620633063306  3.44583747064706  1.54393741174117
 1 -8.34831186118612 -3.40478740784078 -0.18544438343834
 1 -8.20455621162116 -2.90721973607361 -1.84803113311331
 1 -6.64595344434443 -3.47868152025203 -0.87967475947595
 1  6.96089775277528  0.53900764366437 -0.59194258625863
 1 -6.39663992599260 -0.02814297439744 -0.08948132513251
 1  5.12506189018902  3.13325847374738  0.25248750375037
 1 -5.03953777377738 -2.27400870797080 -1.40215761576158
 1  4.52328542754275  0.02688093399340 -0.06547495849585
 1 -4.19473497749775  0.44313943084308  0.00171296729673
 1  3.12787057205721  3.63399744164416  1.27570377137714
 1  1.69633628662866  3.68773744464446  0.29832224022402
 1  2.95765978797880  3.94122195609561 -0.47905840184018
 1 -2.51377351435144 -3.17189433653365 -0.18524156815682
 1 -2.68750825882588 -2.46316743684368 -1.86388035503550
 1 -1.12655945494549 -2.36466664176418 -0.91906494249425
 1  2.44182134013401 -0.19483813491349 -0.60344824882488
 1 -2.20958035903590  0.95980589848985  0.00621400840084
 1  0.23017876487649  1.99948265416542  0.45891168616862
 1  0.07784055405541 -0.90551050115012 -0.76746433043304

