%nproc=4
%Mem=2GB
# td=(NStates=1) CAM-B3LYP/6-31G(d,p) 

TD

0 1
 8  14.65001322032203 -2.37254472557256 -0.20064891789179
 8 -14.71150774777478  1.94466632263226  0.99288838283828
 6  11.49172246624662 -1.04523515761576  1.34449781078108
 6 -12.27155478747875 -0.96919947994799  0.96932245424542
 6  12.96458519051905 -1.40490352845285  1.19245681768177
 6 -13.62931554055405 -0.25151131113111  0.83339223522352
 6  13.30313230723072 -1.97588311541154 -0.09554444344434
 6 -13.41568390839084  1.28103090109011  0.93001478547855
 6  11.00415894189419 -0.29514373047305  0.05460121412141
 6 -11.31617871887189 -0.39094012301230 -0.07325807980798
 6  12.99743396239624 -1.10521127822782 -1.19664053705371
 6 -12.76475723572357  1.68977695469547 -0.34592163416342
 6  11.75537028402840 -0.23890426352635 -1.01147966396640
 6 -11.54022761276128  0.83764008700870 -0.58577811681168
 6  11.22751347834784 -0.23781293939394  2.58342878387839
 6  10.54096353735374 -2.35056553765377  1.57821594159416
 6 -11.71137333133313 -1.07339916791679  2.34372295229523
 6 -12.76001670367037 -2.39667511051105  0.46905880988099
 6  9.67969279527953  0.46097713461346  0.17909458945895
 6 -10.06327769476948 -1.12129621462146 -0.22057073807381
 6  11.18200096509651  0.31526599149915 -2.36056026302630
 6 -10.71289372837284  1.62629301330133 -1.69191849884988
 6  9.32985295229523  1.65018845674567 -0.02854822882288
 6 -8.80673115811581 -0.67692124912491 -0.16694774077408
 6  7.98963494949495  2.33590333023302  0.10224589358936
 6 -7.53609875187519 -1.37644197729773 -0.50298563056306
 6  8.06996747774778  3.78027623252325  0.35571693769377
 6 -7.72415352135214 -2.74601434953495 -1.19110928592859
 6  6.89179458645865  1.54644463836384 -0.07697770377038
 6 -6.36702850585058 -0.66573204830483 -0.50762376837684
 6  5.51714226622662  2.05371307820782 -0.04219930393039
 6 -5.02449357135714 -1.03407328342834 -0.76862903690369
 6  4.45836976797680  1.28318373227323 -0.21863749274928
 6 -4.00464588458846 -0.29889609570957 -0.58031536153615
 6  3.10872347734773  1.74831542944294 -0.05965430043004
 6 -2.65967973197320 -0.62528685878588 -0.77488514851485
 6  2.74532481348135  3.08117756665667  0.45673838283828
 6 -2.24887038103810 -2.09190649274927 -1.24038507850785
 6  2.05353492849285  0.86329349324933 -0.33842296729673
 6 -1.63680500350035  0.22940264616462 -0.35970779777978
 6  0.57874504350435  1.03043781168117 -0.14815893589359
 6 -0.23549241824182  0.09433732863286 -0.44577221722172
 1  13.49331860386039 -0.55824926002600  1.29403424142414
 1  13.18057329332933 -2.13617419851985  2.07624775677568
 1 -14.29598237523753 -0.25282543954395  1.67211441744174
 1 -14.12210357735774 -0.37641456445645  0.11177955795580
 1  12.66068127012701 -2.99509425252525 -0.22052011701170
 1 -12.78768422942294  1.51670618861886  1.76582605560556
 1  14.00398133013301 -0.44952767286729 -1.07790367436744
 1  12.95715720872087 -1.67080930803080 -2.18346902290229
 1 -13.27408295229523  1.62556387738774 -1.32676060906091
 1 -12.43859246624663  2.68779084308431 -0.18421530453045
 1  11.66489510951095 -0.68124885098510  3.51826648764876
 1  10.12002786778678 -0.07610712081208  2.86540542154215
 1  11.85828509850985  0.78758849174918  2.57802693769377
 1  10.51657066006601 -2.98501908200820  0.71276666266627
 1  10.86626754375438 -3.05154007110711  2.25714563856386
 1  9.68216421742174 -2.03423441654165  1.79433437643764
 1 -11.40542744274427 -0.17535196419642  2.92237613061306
 1 -10.75546005500550 -1.57816497149715  2.11439744374437
 1 -12.36290744974497 -1.78996990199020  2.94680727672767
 1 -13.57162694369437 -2.79461071307131  1.20028453745375
 1 -12.07732078007801 -3.13333536153615  0.52589764576458
 1 -12.97943830183018 -2.41824213221322 -0.48991746574658
 1  9.04888671267127  0.00151183108311  0.73613779777978
 1 -10.09481921392139 -2.27008073207321 -0.65393502650265
 1  10.19659207820782  0.63412351025103 -2.38536323932393
 1  11.90671910691069  1.14949924082408 -2.46665637963796
 1  11.19151338633863 -0.39563005010501 -3.06005313531353
 1 -11.62817382438244  2.03657688668867 -2.28744023702370
 1 -10.23051859085909  0.73381401840184 -2.23700830683068
 1 -10.00147190219022  2.44925353835384 -1.31078467446745
 1  14.88380493349335 -3.36454535963596  0.32195408840884
 1 -14.97161659665966  1.83019793379338  1.91694989999000
 1  9.99599508150815  2.23340664456446 -0.45725504050405
 1 -8.64089078607861  0.46889898789879  0.26246143314331
 1  8.56430929292929  4.07070692359236 -0.44896119911991
 1  7.17861125012501  4.39685509440944  0.41377721072107
 1  8.80576528652865  3.96223911081108  1.12319533753375
 1 -8.35157218721872 -3.37297422652265 -0.63830966996700
 1 -8.03067882388239 -2.77689670377038 -2.33020935093509
 1 -6.73701255025502 -3.23824747684768 -1.48487527952795
 1  7.01361302430243  0.50579432233223 -0.44900829282928
 1 -6.43364362636264  0.31584142404240 -0.07285966296630
 1  5.25509489348935  3.00733588148815  0.19855211021102
 1 -4.82673649364937 -1.95666697379738 -1.36496389638964
 1  4.49248234723472  0.15022326822682 -0.60878928992899
 1 -4.16176168016802  0.55842095899590 -0.20106731073107
 1  3.27163494849485  3.27682172407241  1.33846004700470
 1  1.59564621762176  2.97463613451345  0.48028043604360
 1  3.22051607360736  3.77021485538554 -0.41718221422142
 1 -2.66651878887889 -3.06911405850585 -0.60543358735874
 1 -2.76011551955196 -2.25484660476048 -2.23303727072707
 1 -0.98530532953295 -2.30882105720572 -1.54274731073107
 1  2.55543270127013  0.02039338823882 -0.64820272427243
 1 -1.81682108310831  1.16602652055206 -0.17588420142014
 1  0.17077282428243  1.97236994289429  0.14374016901690
 1  0.15007777777778 -0.73078302840284 -1.05388297229723

