%nproc=4
%Mem=2GB
# td=(NStates=1) CAM-B3LYP/6-31G(d,p) 

TD

0 1
 8  14.74841306030603 -2.08019549064906 -0.19274812781278
 8 -14.85666226322632  1.89752160816082  0.71051014501450
 6  11.27355064906491 -1.19466010011001  1.22078543954395
 6 -12.25656328832883 -0.93380594059406  0.86051157315732
 6  12.85334406640664 -1.50074311241124  1.21689926192619
 6 -13.62056466546655 -0.16518267826783  0.81966086208621
 6  13.32538453245324 -1.89486501360136 -0.25482037103710
 6 -13.57647998799880  1.35952875087509  0.69771155515552
 6  10.94526305230523 -0.36976119221922 -0.09769401540154
 6 -11.32588968996900 -0.45358638763876 -0.16995774977498
 6  13.04016823582358 -0.83587434453445 -1.26582745574557
 6 -12.84782554255426  1.62992096909691 -0.67474451645165
 6  11.52447719471947 -0.26906727982798 -1.20984950095010
 6 -11.53169675967597  0.83907023002300 -0.74547408640864
 6  10.97883861086109 -0.52520167826783  2.54686512751275
 6  10.53702314331433 -2.66175665676568  1.25700382038204
 6 -11.64619681368137 -0.80625245324532  2.22365094509451
 6 -12.47822852485249 -2.43376881988199  0.51795369936994
 6  9.59814464046405  0.30199123602360  0.08353503350335
 6 -10.10142150915092 -1.24249833483348 -0.26383506450645
 6  11.19986275127513  0.53734819971997 -2.39783399039904
 6 -10.68518095709571  1.35620600460046 -1.87842714971497
 6  9.37346731373137  1.68648208610861 -0.13394876887689
 6 -8.88974945994600 -0.66558011501150 -0.21638268426843
 6  8.04449043504350  2.25465520542054  0.07246291529153
 6 -7.58661380338034 -1.19115344844484 -0.40240557255726
 6  8.13209369036904  3.77529573447345  0.49283064906491
 6 -7.62872397839784 -2.68098784688469 -0.66126630163016
 6  6.83880928792879  1.64196419031903 -0.19291929792979
 6 -6.41461326432643 -0.47653312841284 -0.33743674967497
 6  5.56065661766177  2.06350405730573  0.19191410741074
 6 -5.07158828082808 -1.04452432853285 -0.49582175617562
 6  4.44805873687369  1.25312072597260 -0.00942657165717
 6 -3.89613503350335 -0.24661086718672 -0.40058738873887
 6  3.12319492449245  1.68343894179418  0.12541420642064
 6 -2.55160892489249 -0.60791512161216 -0.54211187118712
 6  2.86820710171017  3.04780422932293  0.64083679267927
 6 -2.25964145814581 -2.05411271337134 -0.97486852685269
 6  2.11180075507551  0.77007417131713 -0.21598072307231
 6 -1.57273859685969  0.26616632253225 -0.33932575957596
 6  0.71282845184518  0.93579834773477 -0.06981110111011
 6 -0.11895076407641  0.04183207810781 -0.45218285828583
 1  13.36946621862186 -0.75513894899490  1.48506334433443
 1  13.15449068506851 -2.31178175927593  1.80926105810581
 1 -14.31252402940294 -0.49706986398640  1.73723092909291
 1 -13.94884625162516 -0.44916183918392 -0.04328594859486
 1  12.76412161416142 -2.89951469456946 -0.51352941794179
 1 -13.01597705870587  1.79335385338534  1.50092956595660
 1  13.85457638963896 -0.07391011111111 -1.07446333033303
 1  12.93908540154015 -1.10923315041504 -2.32015269126913
 1 -13.31405694969497  1.13264458545855 -1.62132006500650
 1 -12.56872547954796  2.75270733473347 -0.60304718771877
 1  11.36671529152915 -1.17369809590959  3.41146580758076
 1  9.97051291629163 -0.50152966306631  2.65723460446045
 1  11.39622889288929  0.71057078997900  2.49318845384538
 1  10.96870587358736 -3.18872945304530  0.24267965396540
 1  10.77338825582558 -3.35369028612861  2.15561548554856
 1  9.46837283828383 -2.43498449154915  1.23948889188919
 1 -11.66275317531753  0.23422899389939  2.49538343134313
 1 -10.56666117511751 -0.94369152415242  2.27033303730373
 1 -12.13101426042604 -1.41374227922792  3.01567416341634
 1 -13.12255203620362 -2.89589084108411  1.35151966096610
 1 -11.51822487048705 -2.93244527252725  0.65078013401340
 1 -12.78834919291929 -2.87549785778578 -0.50021849584958
 1  8.75991781578158 -0.15872419251925  0.54610879487949
 1 -10.30221995399540 -2.16955067906791 -0.48238787178718
 1  10.08329074807481  0.73699379727973 -2.46856155915592
 1  11.93428186318632  1.43820811171117 -2.45720543454346
 1  11.32273650865087  0.10175968886889 -3.38826595659566
 1 -11.26968797579758  1.31933516251625 -2.96455794879488
 1 -9.79354489348935  0.89031966896690 -2.04211881788179
 1 -10.34769652465246  2.34450306330633 -1.48870246624662
 1  14.98889544254425 -2.83639254435444  0.39420131313131
 1 -15.16093552855286  1.58188310231023  1.58305651065106
 1  10.20903638563856  2.26854015791579 -0.55486480148015
 1 -9.03418011501150  0.43826592459246  0.01589677667767
 1  8.56071893389339  4.33315316821682 -0.20282658565857
 1  7.26665005400540  4.24203961286129  0.37675350835084
 1  8.68829353935393  3.87148003490349  1.40146316431643
 1 -8.27263429342934 -3.37240416951695 -0.06652249124912
 1 -8.01925768176818 -3.00245926002600 -1.63313964396440
 1 -6.83886273527353 -3.21639529162916 -0.74109090109011
 1  6.73986564956496  0.60720446334633 -0.80267365936594
 1 -6.29789005100510  0.47955779567957  0.07603522652265
 1  5.49061844584458  3.19636478437844  0.71991424642464
 1 -5.11849566956696 -1.96839814691469 -0.95982338233823
 1  4.73463656265627  0.13238148404841 -0.38093650465047
 1 -4.13231873587359  0.71263638053805 -0.14432163616362
 1  3.22883066806681  3.17101114301430  1.80950715171517
 1  1.88399505250525  3.12169083998400  0.76748915691569
 1  3.26203022502250  3.71533936783678 -0.02678317431743
 1 -2.79992212921292 -2.68602574967497 -0.24867791179118
 1 -2.71469097709771 -2.37927904800480 -2.08190215721572
 1 -1.18752555155516 -2.31063123822382 -0.80736377237724
 1  2.42770992899290 -0.21180983208321 -0.56142404640464
 1 -1.75874527552755  1.13705362326233  0.08568195519552
 1  0.30811655865587  1.67880058595860  0.19619541454145
 1  0.04068683868387 -0.87942789288929 -0.81853943794379

