%nproc=4
%Mem=2GB
# td=(NStates=1) CAM-B3LYP/6-31G(d,p) 

TD

0 1
 8  14.84289250825083 -2.00440791189119 -0.42395124812481
 8 -14.82093869086909  1.99836169216922  0.66661575557556
 6  11.50642393639364 -1.05988662276228  1.18597195819582
 6 -12.44001163316332 -0.87429998999900  0.73959948194819
 6  13.07433616561656 -1.21382442054205  1.12053962596260
 6 -13.80881349034903 -0.15744190419042  0.76248514451445
 6  13.47941993599360 -1.83848937603760 -0.26211110011001
 6 -13.58307064706471  1.33575637363736  0.72036382038204
 6  11.02200072607261 -0.31293550965097 -0.06540078607861
 6 -11.40990809180918 -0.33205423442344 -0.15191594559456
 6  13.06362058105810 -0.93622437953795 -1.42720359335934
 6 -12.83949470947095  1.68750672767277 -0.50611765376538
 6  11.68881362836284 -0.30001037413741 -1.26710522652265
 6 -11.59201279127913  0.82579890289029 -0.81612115111511
 6  11.21282200920092 -0.23248240634063  2.51104154515452
 6  10.85641508250825 -2.43412389348935  1.36017413741374
 6 -11.77890008400840 -0.84554638263826  2.18347692769277
 6 -12.59331003300330 -2.36270171317132  0.38076998099810
 6  9.66509133513351  0.37505854275428  0.14920160016002
 6 -10.17168853585359 -0.99110319531953 -0.39606828782878
 6  11.22045481048105  0.44279874477448 -2.43363757075708
 6 -10.75393783278328  1.54725510951095 -1.88079738673867
 6  9.44181414841484  1.57385082298230 -0.19167454145415
 6 -8.90529101410141 -0.47891144814481 -0.27600864686469
 6  8.08395438143814  2.21029076897690  0.12274794379438
 6 -7.65473061506151 -1.26558089118912 -0.50540587258726
 6  8.17662814381438  3.73977218211821  0.37132849884988
 6 -7.80656176217622 -2.72091183928393 -0.90880105510551
 6  6.90508591559156  1.53535352925293  0.12317231123112
 6 -6.47530933393339 -0.61616709180918 -0.37656066206621
 6  5.64387493949395  2.01197890479048  0.30325524152415
 6 -5.14133525552555 -1.07959783588359 -0.45224739873987
 6  4.55404933593359  1.27515292919292  0.11857622862286
 6 -3.94592001200120 -0.38945515161516 -0.19044637463746
 6  3.04246685168517  1.49127972587259  0.20210187518752
 6 -2.65188895289529 -0.81962629272927 -0.37697535753575
 6  2.78943922492249  2.84398384728473  0.51323403240324
 6 -2.37386288028803 -2.17529483158316 -0.85752679267927
 6  2.03755333033303  0.65055221912191 -0.04853397839784
 6 -1.63694501750175  0.03077278317832 -0.17496932393239
 6  0.64735190419042  0.87240200810081 -0.00031415141514
 6 -0.19090795979598 -0.20699280438044 -0.24160180018002
 1  13.44213348534853  0.00853741864186  1.15805064306431
 1  13.50857609360936 -1.88009859095910  1.90633076507651
 1 -14.57922069906991 -0.56178633563356  1.47182438843884
 1 -14.28163953095310 -0.48103502650265 -0.04291591159116
 1  12.94245944794479 -2.87486222932293 -0.41772983798380
 1 -13.27767322832283  1.69159367736774  1.57075654865486
 1  13.67726865886589 -0.10112283238324 -1.49935581958196
 1  13.25958745174517 -1.37856008310831 -2.35295597159716
 1 -13.56068161216122  1.78306962796280 -1.36844477747775
 1 -12.48985759275928  2.82508457245725 -0.53710059305931
 1  11.77570619061906 -0.84701542764276  3.26243090409041
 1  10.13102896789679 -0.33141265136514  2.90932981398140
 1  11.71892116211621  0.81006073897390  2.57655679067907
 1  10.94118312131213 -3.00459103920392  0.38212359835984
 1  11.23571448844885 -3.20611552865286  2.08187811181118
 1  9.69849585058506 -2.23700469356936  1.47185212821282
 1 -11.82697959795980  0.11122669366937  2.54853874687469
 1 -10.89132364136414 -1.32069922492249  1.98030403440344
 1 -12.37169832883288 -1.49257016201620  2.81709430543054
 1 -13.23482326332633 -2.82554380638064  0.98148265726573
 1 -11.82829587758776 -3.02500452845285  0.46495155115512
 1 -12.93032339033904 -2.56342665066507 -0.61543001700170
 1  8.82336416041604 -0.17295561566157  0.74519870387039
 1 -10.17733746574658 -1.98152187618762 -0.55095472847285
 1  10.15018743774377  0.62648274617462 -2.46754145714572
 1  11.83761219621962  1.16451074197420 -2.75271498549855
 1  11.36165040004001 -0.38399888698870 -3.20572770277028
 1 -11.29282028902890  1.99058228722872 -2.67694918791879
 1 -9.86943248224823  0.72362299929993 -2.30023462946295
 1 -10.23157491249125  2.30386899989999 -1.52867646364636
 1  15.18309486248625 -2.68306721182118  0.14013590659066
 1 -14.99469890489049  2.32449736373637  1.74892309730973
 1  10.20047552955296  2.31444474837484 -0.56810612561256
 1 -8.78974567156716  0.56530862886289  0.00687587458746
 1  8.42560542254225  4.31951180408041 -0.67627393039304
 1  7.08584197319732  4.04787019591959  0.52468830183018
 1  8.72366707670767  3.88863175007501  1.36605962396240
 1 -8.23800083008301 -3.16634356345635  0.18238239923992
 1 -8.67122287828783 -2.86927594169417 -1.71626795679568
 1 -6.91621047004700 -3.30105375747575 -1.16004279627963
 1  6.94112577557756  0.49333307620762 -0.12671606360636
 1 -6.61899216121612  0.39946978687869 -0.03701607860786
 1  5.45775515951595  3.02580772867287  0.64331658665867
 1 -4.81712553255326 -2.05507681478148 -0.75021242124212
 1  4.86765986498650  0.22301054695470  0.06007759675968
 1 -3.96529203320332  0.61754687158716 -0.01041824582458
 1  3.23478126312631  3.33085712761276  1.47579378037804
 1  1.84756140914091  3.24665333623362  0.58076048404840
 1  3.20930495249525  3.67614544844484 -0.44421491749175
 1 -2.82935507250725 -3.20647779487949 -0.31318436243624
 1 -2.82690219821982 -2.09004012411241 -1.92303627062706
 1 -1.38990578957896 -2.40990116521652 -0.95535857185719
 1  2.41561871987199 -0.30758941004100 -0.52565046904691
 1 -1.93237263826383  0.95137505540554  0.10585397239724
 1  0.12431817881788  1.97253995989599  0.44333012801280
 1  0.10784355435544 -1.08160811091109 -0.36811439543954

