%nproc=4
%Mem=2GB
# td=(NStates=1) CAM-B3LYP/6-31G(d,p) 

TD

0 1
 8  14.67677589658966 -2.33338080918092 -0.39460831383138
 8 -14.84716131313131  1.86623847984798  0.73236233023302
 6  11.45894918891889 -1.14480511461146  1.14577793879388
 6 -12.29847747974797 -0.83365592559256  0.93475899789979
 6  12.91835056705671 -1.46366940504050  1.04928250025002
 6 -13.63334594359436 -0.20116627662766  0.98732762876288
 6  13.31512350635063 -1.94319984708471 -0.35562045104510
 6 -13.52503484348435  1.30965376337634  0.67591937593759
 6  11.07553607960796 -0.33464768086809 -0.02594684068407
 6 -11.37343444444444 -0.32500352935294 -0.15004575857586
 6  13.01967618661866 -0.94167492459246 -1.37139801280128
 6 -12.89506026602660  1.51189916691669 -0.67928497049705
 6  11.72697744474448 -0.23664403750375 -1.17448596459646
 6 -11.71396498649865  0.76381270427043 -0.89967950695070
 6  11.26211693869387 -0.36222538063806  2.46702714371437
 6  10.64981442244224 -2.45430591169117  1.26260438043804
 6 -11.50294248824882 -0.67618944694469  2.33230181018102
 6 -12.57390809280928 -2.34351979497950  0.80514241824182
 6  9.67249207520752  0.33253429032903  0.17602428242824
 6 -10.12166353335334 -1.00118420342034 -0.46135481648165
 6  11.27967073207321  0.57465193009301 -2.36874108110811
 6 -10.92816525552555  1.31654203820382 -2.16918622562256
 6  9.42600256725673  1.67007044494449  0.07190181618162
 6 -8.86625711071107 -0.53257681468147 -0.39196024202420
 6  8.12523850985098  2.29557929782978  0.35845151415141
 6 -7.55983112511251 -1.32819715281528 -0.56582191419142
 6  8.24169465046505  3.73748195309531  0.78293965996600
 6 -7.66559766576658 -2.84067381548155 -0.71693186818682
 6  6.91947735473547  1.62473246714671  0.00716071007101
 6 -6.45723752675268 -0.54588006310631 -0.61276428242824
 6  5.61808236023602  2.12588029492949  0.26587150315031
 6 -5.17302842484248 -1.11370124622462 -0.62302447644764
 6  4.51910584158416  1.39519493339334 -0.09452508150815
 6 -4.12299771977198 -0.37537374347435 -0.48118544854485
 6  3.09139174417442  1.78874947284728  0.06069773477348
 6 -2.64760852485248 -0.76838116821682 -0.47306496649665
 6  2.77395767676768  3.09488893779378  0.61429413841384
 6 -2.32035752975298 -2.17051435353535 -0.86736777677768
 6  2.07211678667867  0.83090025392539 -0.13807293229323
 6 -1.63129445244524  0.21163086898690 -0.28825065206521
 6  0.62276944594459  0.91002577047705 -0.03882800280028
 6 -0.24660352935294 -0.09977208230823 -0.36433407340734
 1  13.39937920992099 -0.42006544164416  1.32429726772677
 1  13.41922715871587 -2.20467104820482  1.59518965096510
 1 -13.93109588658866 -0.51560171717172  1.99766697269727
 1 -14.30710207720772 -0.57281420442044  0.26739511951195
 1  12.80997619961996 -2.80480522362236 -0.59248731373137
 1 -12.91651711271127  1.77269178717872  1.38639811281128
 1  13.86932786478648 -0.21018373847385 -1.39075495949595
 1  12.84167566056606 -1.40388261536154 -2.31582225822582
 1 -13.63120866486649  1.29144046504650 -1.66884481748175
 1 -12.76822542954296  2.52804486848685 -0.76054293729373
 1  11.41579019901990 -0.89957068316832  3.43368802980298
 1  10.33320918591859  0.14651514141414  2.50237911891189
 1  11.96625589558956  0.52946267916792  2.56925606060606
 1  10.94142314531453 -3.10921150125013  0.34412979897990
 1  10.76143706070607 -2.86998191529153  2.25802572657266
 1  9.70254625562556 -2.34537553065306  1.41888683168317
 1 -11.14335123512351  0.43322889388939  2.35797969096910
 1 -10.73402791179118 -1.33513066806681  2.21139714371437
 1 -12.07959911891189 -0.98609951495150  3.07003959996000
 1 -13.17777755875587 -2.69245049704970  1.60619512851285
 1 -11.66892994099410 -2.87784981298130  0.99395445144514
 1 -12.92521287928793 -2.71727203520352 -0.16112458645865
 1  9.03865568956896 -0.32839115921592  0.55894007800780
 1 -10.34854458645865 -2.09236296029603 -0.44904453745374
 1  10.30307272627263  0.79504960286029 -2.27456215921592
 1  11.96505494049405  1.32759705060506 -2.63351306530653
 1  11.23348758375838 -0.20053054015402 -3.28684581458146
 1 -11.65856686368637  1.60332356135614 -2.82809430243024
 1 -10.28480401940194  0.59648028502850 -2.69529413541354
 1 -10.39357111211121  2.35024363736374 -1.83421701770177
 1  14.68461501450145 -3.42430133523352 -0.05046315331533
 1 -15.29517895289529  1.45648056205621  1.57209541454145
 1  10.07202268426843  2.24235753965397 -0.37670698569857
 1 -8.72426912391239  0.61273337133713 -0.41976678967897
 1  8.47388025002500  4.30128998189819 -0.21125742874287
 1  7.35852924192419  4.26213162206221  0.92542837583758
 1  8.57931264126413  3.85487837473747  1.71758477647765
 1 -8.05677270727073 -3.24545147424742  0.43294745574557
 1 -8.42400815681568 -3.10992000610061 -1.45522185218522
 1 -6.67055590459046 -3.24182783488349 -0.82387917991799
 1  7.02189385238524  0.69478322122212 -0.53036642864286
 1 -6.34912517451745  0.47758759865987 -0.40617299429943
 1  5.69354873887389  3.07739288718872  0.46728898389839
 1 -4.91005482548255 -2.21151245834583 -0.80155755575558
 1  4.45183828282828  0.34161240714071 -0.42538094909491
 1 -4.35400090409041  0.79152426932693 -0.42348955295529
 1  3.30680846584658  3.18611265316532  1.53849005000500
 1  1.64216086908691  3.26208487938794  0.81007341534153
 1  3.32394641664166  3.86145397929793  0.10775027902790
 1 -2.84292642964296 -2.66317346444644 -0.13563660766077
 1 -2.88318782678268 -2.32370349044905 -1.84002796979698
 1 -1.17425422442244 -2.33374354945495 -0.90597363336334
 1  2.60425758375838 -0.08603725482548 -0.56571447544754
 1 -1.81904130513051  1.28814873277328 -0.09724633763376
 1  0.37802354935494  1.95746845274527  0.33748954395440
 1  0.14204697469747 -1.00732068216822 -0.55636322032203

