%nproc=4
%Mem=2GB
# td=(NStates=1) CAM-B3LYP/6-31G(d,p) 

TD

0 1
 8  14.79674789378938 -1.97656512761276 -0.12528138113811
 8 -14.70121671867187  2.04910676667667  0.68922801680168
 6  11.46042933693369 -1.11606224032403  1.14712807380738
 6 -12.39825745774577 -0.92562512251225  0.75456097809781
 6  12.91896062806281 -1.37389042714271  1.13518109010901
 6 -13.68836144514451 -0.07941410141014  0.61916081208121
 6  13.46783877787779 -1.83489901700170 -0.26235112411241
 6 -13.49152149214921  1.39001179917992  0.74016580058006
 6  11.00438896489649 -0.30352456855686 -0.08923316931693
 6 -11.35966306730673 -0.30392142114211 -0.17516827082708
 6  13.16995121412141 -0.75026578367837 -1.27937881088109
 6 -12.69765052505251  1.82768074507451 -0.49135617761776
 6  11.78081282828283 -0.20545091819182 -1.14439295529553
 6 -11.45219880988099  0.93687001000100 -0.69772931193119
 6  11.05760648764877 -0.37242640074007  2.46027646864686
 6  10.58519796079608 -2.43959444054405  1.19622774277428
 6 -11.86246844084408 -0.94500632863286  2.19517809780978
 6 -12.69678038003801 -2.40306574957496  0.27448935293529
 6  9.61839666566657  0.21690272717272 -0.00268358835884
 6 -10.11092245924593 -0.99571365636564 -0.34387306830683
 6  11.33365613061306  0.57107157205721 -2.40197440444044
 6 -10.48622106110611  1.58952933693369 -1.64705401240124
 6  9.35514548154815  1.52996643454345 -0.04570994499450
 6 -8.78331881688169 -0.63077663466347 -0.18738978497850
 6  7.95933191919192  2.21400114001400  0.05338100710071
 6 -7.60079522152215 -1.38019235233523 -0.47656298829883
 6  8.05368584958496  3.65626383128313  0.21016238223822
 6 -7.75749685568557 -2.81550129822982 -1.01163133813381
 6  6.86527193419342  1.45096509040904 -0.08885889188919
 6 -6.45845764876488 -0.72375785088509 -0.30983398939894
 6  5.51821237323732  1.95938364526453  0.04376929292929
 6 -5.13833495549555 -1.20578045414541 -0.35804797879788
 6  4.47364129512951  1.23085849974997 -0.08485411441144
 6 -3.97564298429843 -0.52475868196820 -0.06166349634964
 6  3.08115072007201  1.70285088298830  0.03787545254525
 6 -2.62907667166717 -0.85845017511751 -0.28240590059006
 6  2.80419070007001  3.10418986788679  0.43719642864286
 6 -2.38292378637864 -2.18525582768277 -0.94603564356436
 6  2.02684225922592  0.82535969986999 -0.04356348134813
 6 -1.67496881988199  0.02524223012301  0.01134930793079
 6  0.69017618661866  0.96895166306631  0.03623950395039
 6 -0.24726359535954 -0.10400250535054 -0.11173881388139
 1  13.38026729872987 -0.50671410651065  1.66206104410441
 1  13.00494573057306 -2.38219880098010  1.87522765476548
 1 -14.34248702570257 -0.49192934993499  1.47879508550855
 1 -14.09620098709871 -0.40956787978798 -0.44530615061506
 1  13.03673887588759 -2.67157190029003 -0.62439050405040
 1 -12.71209667066707  1.60395491349135  1.49675914891489
 1  13.84036496849685  0.10385766566657 -1.23894977897790
 1  13.31608310131013 -1.21348357545755 -2.25426610261026
 1 -13.65194073807381  2.10754207520752 -1.34084201720172
 1 -12.50282888988899  3.09655171917192 -0.21316819981998
 1  11.41316993699370 -0.86055678177818  3.33467812881288
 1  10.07141300630063 -0.39331884198420  2.58863774477448
 1  11.36724599459946  0.87516724962496  2.23382251725173
 1  11.07912691569157 -2.98310889098910  0.43101848784878
 1  11.08844976197620 -3.04754967206721  2.00794071807181
 1  9.57556355735574 -2.41730272337234  1.29831477447745
 1 -11.53467036703670  0.09680525152515  2.48566245924592
 1 -10.86250075907591 -1.61278843384338  2.16552255625563
 1 -12.68839999899990 -1.26469737473747  2.82410500650065
 1 -13.61265104610461 -2.68231948394840  0.79221373037304
 1 -11.81617466546655 -3.00879290729073  0.79812486848685
 1 -12.81089144714472 -2.73003331133113 -0.97368584258426
 1  8.70483230723072 -0.30654897499750  0.17996218021802
 1 -10.16376610861086 -2.15877960196020 -0.44889452245225
 1  10.27889030803080  1.08497859575958 -2.41582628562856
 1  12.12334076907691  1.31935622652265 -2.30571028502850
 1  11.48366260126013 -0.08276876397640 -3.46324345434543
 1 -11.15241624862486  1.82762599159916 -2.56382787578758
 1 -9.77909344834484  0.95471610861086 -2.10464507050705
 1 -9.91089284428443  2.45391400440044 -1.23148674467447
 1  14.87117367036704 -2.54458336343634  0.59211110411041
 1 -15.16223565856586  1.64087900190019  1.51634983998400
 1  10.07815329732973  2.32066537043704 -0.36176549154915
 1 -8.71171786878688  0.36885898389839  0.03107829482948
 1  8.71003386538654  4.00156000890089 -0.38000430343034
 1  7.09588297729773  4.18596400530053 -0.14094826182618
 1  8.23889859985998  3.84969785668567  1.11284430243024
 1 -8.47853488348835 -3.38658558765877 -0.39156499549955
 1 -8.32627838383838 -2.85120413451345 -2.01295762576258
 1 -6.82195104410441 -3.31081473357336 -1.10367715971597
 1  6.84118578157816  0.33160690359036 -0.41814520652065
 1 -6.69536979897990  0.24461430133013 -0.15376775377538
 1  5.58237762176218  3.06652180008001  0.18710096509651
 1 -5.02678649864986 -2.29776108320832 -0.64781218121812
 1  4.64462756175618  0.25263350925092 -0.43565197619762
 1 -4.28456396039604  0.67761287818782 -0.02911011501150
 1  3.06761454645465  3.32919696159616  1.52797899889989
 1  1.66271292429243  3.40683935483548  0.30078248624863
 1  3.46882090409041  3.80247808170817 -0.27611810781078
 1 -2.88376051305131 -3.08977612471247 -0.37489053305331
 1 -2.76811631963196 -2.33065418551855 -1.98455242224222
 1 -1.30646744574457 -2.56531670677068 -1.02743577957796
 1  2.48051520952095 -0.21585023612361 -0.34458236223622
 1 -1.73526292729273  1.20107002490249  0.26125951295130
 1  0.27648339533953  1.98113081898190  0.17171296629663
 1  0.06209897989799 -1.09000895099510 -0.37353493749375

