%nproc=4
%Mem=2GB
# td=(NStates=1) CAM-B3LYP/6-31G(d,p) 

TD

0 1
 8  14.67356557555756 -2.23105057615762 -0.38522737573757
 8 -14.76577317431743  1.87053890989099  0.76296539053905
 6  11.51574486848685 -1.06704733883388  1.29890325132513
 6 -12.29005663766377 -1.01307386738674  0.74136965896590
 6  13.04570330233023 -1.41364440254025  1.03466103810381
 6 -13.68150075907591 -0.28251441144114  0.64875377137714
 6  13.26335832983298 -1.93049857695770 -0.31655654465447
 6 -13.48091043104310  1.20889368736874  0.83820560456046
 6  11.04790331633163 -0.31494571067107  0.05540129412941
 6 -11.35457255825582 -0.29508053705371 -0.18736949094909
 6  12.91968618761876 -0.75967672477248 -1.30759163216322
 6 -12.83497425742574  1.73514149114911 -0.42397943994399
 6  11.64583933093309 -0.19459983308331 -1.09228774477448
 6 -11.45417900790079  1.04262058505851 -0.62776231523152
 6  11.26506723372337 -0.24737389548955  2.51873231423142
 6  10.66497593859386 -2.37868834993499  1.51948006800680
 6 -11.71811400540054 -0.92892472047205  2.19032761276128
 6 -12.47325802780278 -2.46081152415242  0.33509541354135
 6  9.69829465546555  0.23894493139314  0.27967464746475
 6 -10.01651301830183 -1.00752483748375 -0.40917959895990
 6  11.08601136613661  0.46539100400040 -2.40368457545755
 6 -10.61662410141014  1.72240262426243 -1.75244455145515
 6  9.24889485648565  1.53048648654865 -0.08015338933893
 6 -8.79210969596960 -0.55113867086709 -0.28968001400140
 6  7.99874586058606  2.17867760766077  0.02077774677468
 6 -7.61442658465847 -1.22888722182218 -0.38095342734273
 6  8.05209569056906  3.71577978287829  0.43573493949395
 6 -7.72069317531753 -2.67292704080408 -0.69264943994399
 6  6.82706811381138  1.52991298519852 -0.08854886088609
 6 -6.39911171417142 -0.54724019911991 -0.43188619461946
 6  5.48997954995500  2.03748145504550 -0.00175525952595
 6 -5.12165328732873 -1.00532040814081 -0.63535570957096
 6  4.41491542254225  1.23554896879688 -0.08999462846285
 6 -3.96298171817182 -0.35637184328433 -0.44547187718772
 6  3.03417602260226  1.60905150305030  0.08277994299430
 6 -2.58614237823782 -0.79962429252925 -0.43900156015602
 6  2.73771405240524  3.08155760466047  0.36400910991099
 6 -2.36637213121312 -2.23834113621362 -0.78626966696670
 6  2.13542311731173  0.73254041794179 -0.13591271627163
 6 -1.62337366036604  0.17560726662666 -0.25441726872687
 6  0.71875904490449  0.88953372127213 -0.10217433743374
 6 -0.17666653565357 -0.13354545964596 -0.30615825582558
 1  13.53806307830783 -0.59038247334733  1.47191202920292
 1  13.13898913491349 -2.39748032913291  1.68333846584658
 1 -14.40986376337634 -0.80748090509051  1.25348255425543
 1 -13.99227059405941 -0.52372929592959 -0.35872749274927
 1  12.58726392839284 -2.83021776487649 -0.69884794979498
 1 -12.71096655765577  1.60818533653365  1.58659813281328
 1  13.72379331133113 -0.02283500360036 -0.98807469146915
 1  13.10437193019302 -1.01293352045205 -2.20798147414742
 1 -13.47704324832483  1.64281560256026 -1.24626255925593
 1 -12.67199580658066  2.89713177717772 -0.24239112211221
 1  11.70640926092609 -0.58025875197520  3.51180584158416
 1  10.17241310631063 -0.13129263936394  2.72035091609161
 1  11.72320159015901  0.70303003590359  2.50269940494049
 1  10.62291129412941 -3.02825340544054  0.54435982198220
 1  11.12006292329233 -2.95842075917592  2.19897982198220
 1  9.59808580958096 -2.14339533263326  1.81029597259726
 1 -11.52869976997700 -0.08690311931193  2.70570446344634
 1 -10.92339684868487 -1.49241639663966  2.20731673567357
 1 -12.39829098809881 -1.50043094809481  2.97389998599860
 1 -13.41111089208921 -2.76603785578558  0.82839734873487
 1 -11.65912896089609 -3.16460848884888  0.83435849184919
 1 -12.58759911791179 -2.69245955395540 -0.76690516451645
 1  8.94718654265426 -0.33551187128713  0.78752293629363
 1 -10.34620435243524 -2.19725344934493 -0.66168580158016
 1  10.17441986098610  0.67382748064807 -2.27599230223022
 1  11.55241367636764  1.36331062196220 -2.81647136113611
 1  11.14954918991899 -0.27656814391439 -3.27712484248425
 1 -11.26828783578358  1.92822605160516 -2.59094058705871
 1 -9.62228776777678  1.07596823382338 -1.94503910991099
 1 -10.23606536153615  2.80534914791479 -1.37141073707371
 1  14.80896744974497 -2.80334924002400  0.57236912991299
 1 -15.49380881588159  1.47516243024302  1.53085129012901
 1  10.25708119011901  2.15598890279028 -0.47015633063306
 1 -8.50857755475548  0.50762286028603 -0.02281709470947
 1  8.67514037603760  4.19539939283928 -0.25645194819482
 1  7.09612300130013  4.38222363126313  0.58364419741974
 1  8.63534824482448  3.84510739763976  1.34081709970997
 1 -8.14104113411341 -3.13779070817082  0.14763892489249
 1 -8.26085184118412 -3.00141915601560 -1.71034736473647
 1 -6.64440328932893 -3.06705035713571 -0.71388818081808
 1  6.85464712771277  0.54532827572757 -0.36700009200920
 1 -6.48806906890689  0.51366120602060 -0.18658103510351
 1  5.24878426242624  3.05951109900990  0.39799205420542
 1 -5.03684750475048 -2.00653196029603 -1.15304270427043
 1  4.57527062606261  0.12328057395740 -0.43739215021502
 1 -4.19703520752075  0.59233435033503 -0.04480168416842
 1  3.29065685068507  3.49760380228023  1.36125232623262
 1  1.65915256825683  3.39388805970597  0.57407981598160
 1  3.01153517551755  3.69013684758476 -0.42938343434343
 1 -2.71478361536154 -2.72924007110711  0.16682363836384
 1 -2.79566907490749 -2.47018813891389 -1.72655662266227
 1 -1.21173797279728 -2.45602577767777 -0.83760679667967
 1  2.40345750375038 -0.35921457255726 -0.33752165616562
 1 -1.89923932493249  1.01254117201720  0.00303369036904
 1  0.25238098509851  1.95932863876388  0.14738053305331
 1  0.30932370237024 -1.05151510161016 -0.39156674067407

