%nproc=4
%Mem=2GB
# td=(NStates=1) CAM-B3LYP/6-31G(d,p) 

TD

0 1
 8  14.73591181018102 -2.25448291939194 -0.29619847284728
 8 -14.86606320332033  1.97978983498350  0.64415350935094
 6  11.34145743974397 -1.15864649874988  1.18257161816182
 6 -12.37527515951595 -1.05410797079708  0.74586010801080
 6  12.93211194319432 -1.39294233233323  1.02772034403440
 6 -13.78921153015301 -0.20471663166317  0.66422531853185
 6  13.30073206720672 -1.96268179527953 -0.36903179217922
 6 -13.60840318031803  1.26263906190619  0.61303308730873
 6  10.88315684168417 -0.36065028112811 -0.10019426542654
 6 -11.34557165816582 -0.33459448844884 -0.15698645264526
 6  13.02644686368637 -0.85260601770177 -1.36237711071107
 6 -12.78619937993799  1.73337131413141 -0.61974901690169
 6  11.59452419941994 -0.22230260336034 -1.21865038103810
 6 -11.53564715471547  0.81843816681668 -0.75072461146115
 6  10.98453918091809 -0.41041019911991  2.43076351735174
 6  10.59439888088809 -2.46284676577658  1.21107922792279
 6 -11.87710990499050 -0.96776860486049  2.19916849684968
 6 -12.64704540654066 -2.40317576057606  0.31975387938794
 6  9.56266109210921  0.30751178807881  0.12700938093809
 6 -10.09372073907391 -1.06599068406841 -0.35666434743474
 6  11.16793955895590  0.44642910781078 -2.41001520852085
 6 -10.64855729472947  1.46170655465547 -1.92683199019902
 6  9.42211217821782  1.62595603350335 -0.03023839783978
 6 -8.78684916991699 -0.63003656065607 -0.27556860286029
 6  8.15797178317832  2.32025176507651  0.04542021102110
 6 -7.49549469146915 -1.29765409850985 -0.44441977397740
 6  8.26414689568957  3.77727593249325  0.51358272427243
 6 -7.66677778377838 -2.76192594069407 -0.77466764176418
 6  7.01772717971797  1.65486548044804 -0.13017302330233
 6 -6.47597940094009 -0.59651512661266 -0.25039804580458
 6  5.52898345034504  2.08581628852885  0.09871478747875
 6 -5.03160428242824 -1.06623649974997 -0.31325349934993
 6  4.46018994999500  1.25386079998000  0.03104747574757
 6 -3.96435185518552 -0.25544175027503 -0.15144247424742
 6  3.15662826782678  1.75872647054705  0.14661632663266
 6 -2.51674543854385 -0.69138346844684 -0.32467012701270
 6  2.83829411041104  3.21253070197020  0.51317402640264
 6 -2.44289978397840 -2.12363966606661 -0.64147518751875
 6  2.19353892889289  0.70250741464146 -0.04153327832783
 6 -1.50262158515852  0.25336504240424 -0.16026785378538
 6  0.86413358235824  0.87624239213921  0.01538741874187
 6 -0.14086295529553  0.03716161106111 -0.28440608060806
 1  13.37456672867287 -0.46258969406941  1.11014585258526
 1  13.31204644064407 -2.15337591869187  1.85967609960996
 1 -14.43223600060006 -0.65990614761476  1.65729293529353
 1 -14.21209257625763 -0.61476839983998 -0.34734635463546
 1  12.58984418641864 -2.78520326342634 -0.40551861686169
 1 -13.15515097609761  1.85163968196820  1.29645911891189
 1  13.80836176817682 -0.19601232133213 -1.19581546554655
 1  13.20987248024803 -1.12154438153815 -2.61098177417742
 1 -13.42371791579158  1.77818913991399 -1.54712264526453
 1 -12.51073968096810  2.75441750575058 -0.32603948694870
 1  11.65814443444344 -0.97703842994299  3.27786244724473
 1  9.85730159515952 -0.37414692479248  2.75000388138814
 1  11.54398366836684  0.72595232813281  2.46167530253025
 1  10.60145914891489 -3.14143472357236  0.28733411941194
 1  11.05282619961996 -3.15318023512351  1.90191011501150
 1  9.58157415841584 -2.19786077917792  1.39295423842384
 1 -11.60437733773377  0.01788735973597  2.46639053205321
 1 -10.88184269326933 -1.65010216521652  2.22906891089109
 1 -12.47896905590559 -1.53524442944294  2.91249384538454
 1 -13.38275805680568 -2.86756800880088  1.00893540254025
 1 -11.67487053505350 -3.12241426942694  0.65319037503750
 1 -12.88126848484849 -2.42660296829683 -0.72175064906491
 1  8.64826665066507 -0.33420174027403  0.59554373837384
 1 -10.10509024102410 -2.20726445044505 -0.30549018201820
 1  10.05783820282028  0.61794189208921 -2.49421412441244
 1  11.83064149914992  1.27151144204420 -2.59367908190819
 1  11.17997223222322 -0.08157864496450 -3.35024215421542
 1 -11.43702470947095  1.55687891689169 -2.81067256025603
 1 -9.86185172417242  0.79243988098810 -2.07127173317332
 1 -10.16299805480548  2.26518513151315 -1.58765236123612
 1  14.89982653565357 -2.96069497459746  0.29063095609561
 1 -15.19199863486349  1.66861177517752  1.42764096909691
 1  10.32259774177418  2.22619592349235 -0.03732304730473
 1 -8.64147084408441  0.49665176317632 -0.04099891289129
 1  8.75208807080708  4.43010286318632 -0.08230453345335
 1  7.19690307930793  4.13214862376238  0.48420425342534
 1  8.69726443644364  3.82140502740274  1.43583660166017
 1 -8.53915094509451 -3.27421435053505 -0.19198503750375
 1 -8.04612036803680 -2.91115012911291 -1.73273960396040
 1 -6.78865771477148 -3.31666531863186 -0.67995478747875
 1  7.08505016801680  0.61480522342234 -0.53394678667867
 1 -6.57375763776378  0.37775761566157  0.03356097909791
 1  5.46323570757076  3.11916706460646  0.34599685468547
 1 -5.02220604060406 -2.17983929102910 -0.40137753775377
 1  4.82974607360736  0.26095434133413 -0.15595400640064
 1 -4.14909041304130  0.71654677157716  0.22059485548555
 1  3.36047383238324  3.35384942684268  1.37204340534053
 1  1.70184683768377  3.20817948884889  0.79296170417042
 1  3.29851387338734  3.83387122102210 -0.28140863686369
 1 -2.86573871087109 -2.87596474357436  0.04944190019002
 1 -2.70980048804881 -2.32553367346735 -1.76407037403740
 1 -1.47819461846185 -2.58893906900690 -0.59150218621862
 1  2.48113527152715 -0.24539319041904 -0.35520342434243
 1 -1.92984238523852  1.15597551545155 -0.03474008700870
 1  0.56193194019402  1.91945465136514  0.42830862586259
 1  0.07788055805581 -0.99178912901290 -0.71863944794479

