%nproc=4
%Mem=2GB
# td=(NStates=1) CAM-B3LYP/6-31G(d,p) 

TD

0 1
 8  14.70364858385839 -2.35396286738674 -0.31863071607161
 8 -15.09068566556656  1.76830868686869  0.48523761776178
 6  11.51215450945094 -1.07739837393739  1.20591395239524
 6 -12.31104873687369 -0.97157971797180  0.74995051705171
 6  13.00191892389239 -1.40557359545955  1.08741631363136
 6 -13.70157276627663 -0.27643380338034  0.71045994199420
 6  13.31749374337434 -1.93568909600960 -0.28524341334133
 6 -13.77685002500250  1.27495029302930  0.64535631963196
 6  11.04945347134714 -0.30602481858186 -0.04232847884788
 6 -11.36412351335133 -0.34738576757676 -0.19634038803880
 6  13.08212243124312 -0.86424718181818 -1.31849272227223
 6 -12.92546330633063  1.63561153815382 -0.49587662966297
 6  11.77716246324633 -0.16474684778478 -1.18581709770977
 6 -11.66271986198620  0.87902422542254 -0.69657919691969
 6  11.27060778777878 -0.33119227732773  2.48875931693169
 6  10.70747018801880 -2.43979446054605  1.29207732773277
 6 -11.73973616761676 -0.86772860086009  2.15324390439044
 6 -12.48452915491549 -2.53528897189719  0.39873177717772
 6  9.70604543054306  0.34792582948295  0.11383806380638
 6 -10.10227159415942 -1.03874795979598 -0.41976065706571
 6  11.23983674867487  0.47854231913191 -2.46572077907791
 6 -10.76534897389739  1.54355473947395 -1.76869617661766
 6  9.47024699169917  1.63835727362736 -0.09369474347435
 6 -8.85207569256926 -0.51115467246725 -0.18730977697770
 6  8.04070005600560  2.28909864976498 -0.00410474147415
 6 -7.60241538353835 -1.15074940804080 -0.49397472947295
 6  8.06579706070607  3.81172937783778  0.40610197619762
 6 -7.55385649164916 -2.54826457455746 -0.90092026702670
 6  7.01471687868787  1.53860385428543 -0.05354536053605
 6 -6.51681348434844 -0.49747522262226 -0.31850485648565
 6  5.59643019501950  1.92715042194219  0.11820673667367
 6 -5.09537065906591 -0.92276215231523 -0.43832600660066
 6  4.52870680168017  1.12486790069007 -0.13080870987099
 6 -4.01779719971997 -0.22536874297430 -0.13284061406141
 6  3.14755736073607  1.58695929382938  0.10126179117912
 6 -2.67667143114311 -0.69618394849485 -0.30133779377938
 6  2.92386266726673  2.96192564146415  0.53920662966297
 6 -2.48918441244124 -2.09793709580958 -0.64534557455746
 6  2.09750932593259  0.69906707060706 -0.10684980998100
 6 -1.60085140814081  0.16719642554255 -0.07938976597660
 6  0.71810897989799  0.90851561946195  0.02543842384238
 6 -0.17914678367837 -0.09307141224122 -0.09007664766477
 1  13.59328860086009 -0.49410284538454  1.07028186618662
 1  13.45615085108511 -2.06515709680968  1.93629376137614
 1 -14.41837461446145 -0.80054021102110  1.51722892889289
 1 -14.09932129912991 -0.63157008000800 -0.15643726372637
 1  12.55444064606461 -2.76731147424743 -0.72702076707671
 1 -13.49689515051505  1.71572609060906  1.60340981398140
 1  13.90294122612261 -0.12359507960796 -1.43831971597160
 1  13.23970546354635 -1.33547577467747 -2.23194387038704
 1 -13.60833637763776  1.37709903090309 -1.38324625762576
 1 -12.68215682268227  2.72167423142314 -0.45398228122812
 1  11.16170479047905 -0.95180590669067  3.35571023202320
 1  10.26908277327733  0.02570306020602  2.47566644764476
 1  11.75644491449145  0.57705743864386  2.40054918991899
 1  11.13021202420242 -2.99685026512651  0.29120450645065
 1  10.85306622362236 -3.10184510161016  2.21405132913291
 1  9.46257225822582 -2.33015400850085  1.27839278227823
 1 -11.52191909190919  0.21223679467947  2.48899279227923
 1 -10.70139464846485 -1.27006416141614  1.94322032603260
 1 -12.23890504950495 -1.51873277827783  2.85983857985799
 1 -13.08765854685468 -2.87326857885789  1.16596110511051
 1 -11.58961200920092 -3.16510853885389  0.56311136713671
 1 -13.02383274127413 -2.49801010901090 -0.47953642764276
 1  8.82505432943294 -0.30009832993299  0.42556674067407
 1 -10.29878961096110 -2.15580930493049 -0.85139477247725
 1  10.19907232623262  0.80541063896390 -2.65097980098010
 1  11.76875531053105  1.27821211211121 -2.81822153615362
 1  11.37951218621862 -0.23427391449145 -3.27142427242724
 1 -11.30389139613961  2.29757298629863 -2.54802629562956
 1 -10.22490802980298  0.85750638763876 -2.19096370237024
 1 -9.69758151315132  2.07388600160016 -1.12769636563656
 1  14.82623917691769 -3.03228213331333  0.29535142814281
 1 -15.65743517851785  1.66456137013701  1.19868807380738
 1  10.37623310531053  2.32850615451545 -0.32481179617962
 1 -9.02674937193719  0.53232533053305  0.00087527452745
 1  8.72699556155615  4.43749360226023 -0.30277658065807
 1  6.91396478547855  4.19366477537754  0.49164499749975
 1  8.58661337133713  3.77607049394939  1.40576359435944
 1 -8.28118514851485 -3.08495542464246 -0.20611645064506
 1 -8.06687244324432 -2.53180219431943 -2.18420475047505
 1 -6.48203705270527 -2.90279393149315 -0.95791258325833
 1  7.00850251325133  0.49045278817882 -0.51341473347335
 1 -6.51848211021102  0.55328516841684  0.08755637863786
 1  5.41723110711071  2.84376952485249  0.47322957795780
 1 -4.75648946894689 -1.89521082818282 -0.80346774677468
 1  4.57342044104411  0.21510975687569 -0.77024543554355
 1 -3.91616712071207  0.85005012191219  0.33006580258026
 1  3.39709749474948  3.14787882978298  1.67231343234323
 1  1.91679833283328  3.38948761966197  0.37969037703770
 1  3.59419344134413  3.57755558945895 -0.13964446044604
 1 -2.87306944394440 -2.72411955905591  0.18773572957296
 1 -2.84086359435944 -2.30477159725973 -1.64500846784679
 1 -1.51344814381438 -2.38494866996700 -0.61571460746075
 1  2.37696485448545 -0.16818546964697 -0.47678558255826
 1 -1.78134753575358  1.25061497939794  0.19700308730873
 1  0.36039178617862  1.91353405930593  0.22403819881988
 1  0.16298906890689 -1.04646459655966 -0.39504708870887

