%nproc=4
%Mem=2GB
# td=(NStates=1) CAM-B3LYP/6-31G(d,p) 

TD

0 1
 8  14.45304352335233 -2.41824929602960 -0.56915576857686
 8 -14.58538513551355  2.11771362736274  0.71002009600960
 6  11.43070636463646 -1.07170780488049  1.15227858885889
 6 -12.34363199519952 -0.86237879787979  0.81020654265427
 6  12.82871160316032 -1.49658269636964  1.04284185618562
 6 -13.64787739673967 -0.20538669866987  0.68159705570557
 6  13.20460245424542 -2.03429895699570 -0.33400828982898
 6 -13.42762510251025  1.33563636163616  0.72117390139014
 6  10.85036356235624 -0.22982719881988 -0.05973021902190
 6 -11.30408750975097 -0.31303233223322 -0.25596635063506
 6  12.95688990799080 -0.78591934903490 -1.32733360636064
 6 -12.62748350835083  1.77873585058506 -0.57799484148415
 6  11.56032077907791 -0.12922329542954 -1.11602011801180
 6 -11.39582317231723  0.87340366336634 -0.86831637063706
 6  11.12931365836584 -0.30775993409341  2.53300374137414
 6  10.53949339033903 -2.38271875297530  1.18814693469347
 6 -11.74191638563856 -0.76795862386239  2.17098567856786
 6 -12.50204090609061 -2.40364580758076  0.46043794779478
 6  9.57121194719472  0.35781681858186  0.19918659865987
 6 -10.04717608460846 -1.18500258525853 -0.29932861386139
 6  11.12447521252125  0.57983244814481 -2.31640584758476
 6 -10.54812725172517  1.46308669266927 -1.91877118411841
 6  9.38401836883688  1.64067750565057 -0.06042141614161
 6 -8.78090857585759 -0.70529408640864 -0.20924197019702
 6  8.09882586858686  2.39952969286929  0.13806947594759
 6 -7.62506764876488 -1.41185551865187 -0.43356868886889
 6  8.15695617661766  3.74385259015902  0.61153251925192
 6 -7.65486659265927 -2.91440118821882 -0.72037221222122
 6  6.92572797979798  1.67111710561056 -0.04041404740474
 6 -6.41539334233423 -0.72169764486449 -0.26477948394839
 6  5.55208576057606  2.07013472037204  0.21190610661066
 6 -5.09493061506151 -1.18587846394639 -0.61929410341034
 6  4.42746667766777  1.37710312421242 -0.02013764276428
 6 -3.99313473347335 -0.48528473457346 -0.28172550255025
 6  3.08182078707871  1.76849744764476  0.07782944794479
 6 -2.62596636063606 -0.81439576967697 -0.34012167216722
 6  2.79253953495350  3.20592004090409  0.39456216521652
 6 -2.31019651365137 -2.29814711681168 -0.83771481148115
 6  2.16874644964496  0.83167033093309 -0.09479860486049
 6 -1.69475079807981  0.15599530543054 -0.19891171817182
 6  0.70500766976698  0.84254902280228  0.10004588458846
 6 -0.20894976397640 -0.07572967806781 -0.24801244124412
 1  13.36274554655466 -0.47511094619462  1.14354919291929
 1  13.23042827882788 -2.06710729182918  1.94094422642264
 1 -14.17225000200020 -0.39696985398540  1.65871307730773
 1 -14.37728909590959 -0.38590551355136 -0.38092971297130
 1  12.45231043304330 -2.77958270137014 -0.74802286728673
 1 -12.78248370937094  1.67788230623062  1.51406087908791
 1  13.84978591059106 -0.18290101020102 -1.19425530953095
 1  13.05663715671567 -1.35231745884588 -2.24129480548055
 1 -13.45605114911491  1.55696701770177 -1.39897783078308
 1 -12.24602320932093  2.86262832683268 -0.54123100610061
 1  11.59214783478348 -0.82043276937694  3.43400806180618
 1  10.08115398039804 -0.15503501360136  2.79853873487349
 1  11.71431070107011  0.62149188208821  2.71909104410441
 1  10.04334333733373 -2.98495907600760  0.08185357135714
 1  10.92004292129213 -3.25370028712871  1.99327925192519
 1  9.56169217021702 -2.02202319541954  1.63233817681768
 1 -11.26893379337934  0.20502607360736  2.31379527252725
 1 -10.87043155215522 -1.63359051405141  2.07257326132613
 1 -12.62646380538054 -0.87280818581858  3.01236383238324
 1 -13.48001778277828 -2.74018527052705  0.99455396439644
 1 -11.64319736773677 -3.10658268626863  0.77255231123112
 1 -12.70432079007901 -2.49596990499050 -0.54535300930093
 1  8.75062688668867 -0.21802012211221  0.76255043904390
 1 -10.19118885088509 -2.20249397339734 -0.67060669366937
 1  10.04647706670667  0.73186328422842 -2.17420212321232
 1  11.55405384038404  1.56241053195320 -2.39893960796080
 1  11.60882511751175 -0.00819130623062 -3.25992312231223
 1 -11.17880888788879  1.84183741274127 -2.62892438543854
 1 -9.98939447844785  0.68155879287929 -2.60649525552555
 1 -9.79875163016302  2.16884549754976 -1.59325292129213
 1  14.62665921892189 -2.99063796889689  0.34937683068307
 1 -15.28501793679368  1.51975688968897  1.46935514051405
 1  10.18408389038904  2.26425972987299 -0.38357767276728
 1 -8.79123582058206  0.39459155715572 -0.17299211221122
 1  8.73939680168017  4.28389824272427 -0.14355065806581
 1  7.15411880088009  4.20756616551655  0.57039287228723
 1  8.60011472147215  3.93593648054805  1.49781279927993
 1 -8.14159118911891 -3.34695162426243  0.07441160216022
 1 -8.42423817981798 -3.11359037313731 -1.61387771777178
 1 -6.77924677367737 -3.43451710381038 -1.00864765676568
 1  6.92594425742574  0.74199794269427 -0.32170556255626
 1 -6.48585884788479  0.53955379527953  0.00413803680368
 1  5.33764314831483  3.06550169806981  0.39647190219022
 1 -4.84496831683168 -2.23279458655866 -0.97900530053005
 1  4.61078417741774  0.25023326922692 -0.07243565456546
 1 -4.15964146814681  0.49210432733273 -0.03035023902390
 1  3.25728351335133  3.38404244614461  1.45004120512051
 1  1.77202385538554  3.48392706360636  0.10799320732073
 1  3.19097311931193  3.88266610051005 -0.25451594759476
 1 -2.84825696269627 -3.13871101820182 -0.17882092609261
 1 -2.57980748874888 -2.55997711781178 -1.74410837783778
 1 -1.30453725272527 -2.30983115821582 -0.83403643964396
 1  2.57718487648765 -0.16085473657366 -0.36240414441444
 1 -2.05897529852985  1.03667358525853  0.17871125812581
 1  0.07665341234123  1.74020672657266  0.37306310131013
 1  0.08795156515652 -1.09788973907391 -0.50234781878188

