%nproc=4
%Mem=2GB
# td=(NStates=1) CAM-B3LYP/6-31G(d,p) 

TD

0 1
 8  14.60148836783678 -2.39893736483648 -0.50960981398140
 8 -14.68021461846185  1.92854471047105  0.67673676767677
 6  11.57832112611261 -0.99230986508651  1.24780814181418
 6 -12.18390602260226 -0.86800936093609  0.86634215621562
 6  13.02540127212721 -1.40231326942694  1.04856242824282
 6 -13.52647525652565 -0.20680684068407  0.92570146614661
 6  13.22880487448745 -1.99465499259926 -0.35936082508251
 6 -13.46359869986999  1.25471826982698  0.75329711371137
 6  10.88133665966597 -0.28789300540054 -0.01276552255226
 6 -11.23090019101910 -0.28932996199620 -0.12727348134813
 6  12.80146436543654 -1.04408516561656 -1.51945281828183
 6 -12.85503626362636  1.51108908590859 -0.52647968996900
 6  11.42647739473948 -0.34769514261426 -1.24538305430543
 6 -11.50018360836084  0.86772309530953 -0.78312785178518
 6  11.38864959195920  0.00460130203020  2.45288572957296
 6  10.67718715971597 -2.22630311141114  1.71421954195420
 6 -11.48779097309731 -0.84391621962196  2.19248782878288
 6 -12.34299500150015 -2.46355179817982  0.62138404240424
 6  9.62486731273127  0.35246628352835  0.28761544154415
 6 -10.00837220422042 -1.06912099709971 -0.45774445544554
 6  10.94793755875587  0.19046351125113 -2.50448465546555
 6 -10.82344478347835  1.40090047404740 -1.97551685868587
 6  9.33992395939594  1.60829426732673 -0.07250262426243
 6 -8.77689817481748 -0.59969352635264 -0.33994504050405
 6  8.02681866786679  2.27233697359736  0.14840050905091
 6 -7.69843498549855 -1.25652998609861 -0.53155848784879
 6  8.10533101410141  3.72751095599560  0.67547891389139
 6 -7.59186029202920 -2.66816656475648 -1.18602877787779
 6  6.88064347134713  1.56156615051505  0.05933592759276
 6 -6.42975477847785 -0.59254472957296 -0.39222222822282
 6  5.54844539653965  2.09262696959696  0.22507742374237
 6 -5.03774489648965 -1.08566844294429 -0.61318349234923
 6  4.46949088008801  1.30969638353835 -0.03886951595160
 6 -3.98673409340934 -0.30263646974697 -0.37126445644564
 6  2.96819942494249  1.72415301320132  0.14323598859886
 6 -2.63111687568757 -0.74854918501850 -0.51363902390239
 6  2.67803808480848  3.07381683058306  0.74841755075508
 6 -2.34608010201020 -2.15803310541054 -0.95858689868987
 6  2.06740631563156  0.84258142204220 -0.09110823582358
 6 -1.71396271927193  0.16228593449345 -0.13690551755176
 6  0.65896306530653  0.96160092799280 -0.02488660866087
 6 -0.26730559955996  0.02116001090109 -0.28169580958096
 1  13.87279655165517 -0.66900033513351  1.13114795279528
 1  13.25990122612261 -2.10145072617262  1.72223235523552
 1 -14.21285406240624 -0.38750890789079  1.80346755275528
 1 -13.97652901990199 -0.55808273127313  0.01330971097110
 1  12.65018022002200 -2.88558330143014 -0.44968303330333
 1 -12.77555301630163  1.75196971497150  1.40662013501350
 1  13.77075800780078 -0.50246296639664 -1.49437532153215
 1  12.94683617661766 -1.65799802690269 -2.36681735773577
 1 -13.58315385938594  1.32802412341234 -1.37738567156716
 1 -12.55633424042404  2.59326139013901 -0.49870675367537
 1  11.70833945394540 -0.46843756985699  3.31630629162916
 1  10.27318318331833  0.23374386428643  2.67699658065807
 1  12.16072534253425  0.81997173007301  2.39006814181418
 1  10.68594759775977 -3.08791937203720  0.80869625562556
 1  10.88854977197720 -2.55196011311131  2.65454537853785
 1  9.67353335433543 -1.79646063916392  1.63602854585459
 1 -11.28891579157916  0.27865343634363  2.48868276127613
 1 -10.63377788678868 -1.31774892989299  2.32201820582058
 1 -12.26854801380138 -1.27001790679068  2.98249084508451
 1 -13.22827260826083 -2.93859511151115  1.34308881788179
 1 -11.32239528752875 -2.82876490449045  0.98856391239124
 1 -12.60857121512151 -2.65395570357036 -0.41524999899990
 1  8.79570139413941 -0.01758007810781  0.80084426842684
 1 -10.11790152215222 -1.94465818981898 -0.82269190219022
 1  9.90781320032003  0.64833493139314 -2.32761746474647
 1  11.58925736073607  0.99968425932593 -2.81133084708471
 1  10.71299553455346 -0.56068655575558 -3.27992512251225
 1 -11.41832283928393  1.40140336933693 -2.88442993599360
 1 -9.89654519351935  0.73260389738974 -2.34795940194019
 1 -10.30835259025903  2.31655026802680 -1.79527312331233
 1  14.68500505350535 -3.49778868396840 -0.04161226822682
 1 -15.26598603360336  1.62625753975398  1.39248745374538
 1  10.14307978997900  2.18564186808681 -0.64775409040904
 1 -8.70411710871087  0.42878497649765 -0.37735254825483
 1  8.97524038603860  4.53486333923392  0.20451414841484
 1  7.22512590159016  4.31202661156116  0.65608144114411
 1  8.44556926692669  3.62140502740274  1.71895491349135
 1 -8.25960299029903 -3.40181711081108 -0.66823266226623
 1 -8.03667942394239 -2.38034704880488 -2.33053938393839
 1 -6.60662951195120 -3.04523817591759 -1.48921571357136
 1  6.85439710271027  0.54952869576958 -0.22941633363336
 1 -6.68602886488649  0.53335317521752  0.20024764776478
 1  5.57956734073407  3.16422157005701  0.62625488048805
 1 -5.17970179017902 -2.09814112121212 -0.97198459845985
 1  4.71465456445645  0.26277452335234 -0.43284169516952
 1 -4.15374087808781  0.71118623552355 -0.09110631463146
 1  2.93973175817582  3.13714775667567  1.78144434543454
 1  1.54290094309431  3.31943061396140  0.70626303430343
 1  3.27002102410241  3.81409924382438  0.07098660266027
 1 -2.97802993999400 -2.76892403950395 -0.34662770677068
 1 -2.59799930793079 -2.41068218831883 -1.92134610161016
 1 -1.33669046804681 -2.53887406250625 -0.90364340034003
 1  2.33153031103110 -0.16071472257226 -0.28800670467047
 1 -1.89220862186219  1.05225514341434  0.15785917291729
 1  0.32532827982798  1.82550525642564  0.33425922092209
 1 -0.02174940494049 -1.05981593169317 -0.35652323632363

