%nproc=4
%Mem=2GB
# td=(NStates=1) CAM-B3LYP/6-31G(d,p) 

TD

0 1
 8  14.65966418541854 -2.31346881798180 -0.21526037903790
 8 -14.73850044704470  2.10133198919892  0.65182427642764
 6  11.35478877287729 -1.18632926702670  1.18157151815182
 6 -12.38724635663566 -0.99825238523852  0.78738426042604
 6  12.86401513351335 -1.45846888498850  1.10416798879888
 6 -13.59899250825083 -0.17657381738174  0.74949384538454
 6  13.35036703070307 -1.88139366646665 -0.24638952795280
 6 -13.49683202320232  1.34629742774277  0.73064484848485
 6  10.95712423842384 -0.18048226432643 -0.04292853885389
 6 -11.36718381938194 -0.39887091609161 -0.21397215121512
 6  13.13646786578658 -0.71523228032803 -1.23303417641764
 6 -12.71096185618562  1.71610958795880 -0.47303434543454
 6  11.73081782878288 -0.17716808990899 -1.17165568156816
 6 -11.55047863786379  0.78820514351435 -0.74853439243924
 6  11.19728045504550 -0.32617177527753  2.48463890489049
 6  10.49834927592759 -2.51463194429443  1.22053017301730
 6 -11.80410260426043 -0.95514734273427  2.23527210721072
 6 -12.66410711271127 -2.44189963296330  0.49721162516252
 6  9.67088191419142  0.37195823272327  0.12575925592559
 6 -10.03670503750375 -1.06023010801080 -0.43358203920392
 6  11.29056182118212  0.67469193409341 -2.42626683368337
 6 -10.67482992199220  1.26577696169617 -1.75093440044004
 6  9.40919088608861  1.69378281618162 -0.19121449544954
 6 -8.85182566756676 -0.48002155915592 -0.20900194619462
 6  8.14870085608561  2.26680642054205 -0.05989032003200
 6 -7.55465060706071 -1.21588592169217 -0.51971730373037
 6  8.17807828882888  3.78478668356836  0.34546591259126
 6 -7.64597570357036 -2.66034578267827 -0.76878705370537
 6  6.98421382838284  1.57877787168717 -0.08750875687569
 6 -6.40073187618762 -0.57817329242924 -0.36690969696970
 6  5.59945049704971  1.93159086598660  0.09543445944594
 6 -5.09080020202020 -1.04526440254025 -0.59483165716572
 6  4.49117304830483  1.10985639953995 -0.00536616561656
 6 -4.04109952995300 -0.26767297339734 -0.40933826382638
 6  3.10708331333133  1.57924852275228  0.15540720572057
 6 -2.71744550855085 -0.71266559665967 -0.51947960796080
 6  2.78145842684268  2.90800024892489  0.71808451745175
 6 -2.43158865286529 -2.14390169226923 -0.76594763476348
 6  2.00669024402440  0.71049821372137 -0.07912703770377
 6 -1.65654697769777  0.14983468936894 -0.22449427642764
 6  0.62637980698070  0.90970573847385 -0.06361048104810
 6 -0.27869673867387 -0.07686979207921 -0.21908954895490
 1  13.51702097409741 -0.66187962306231  1.29567440544054
 1  13.40408564456446 -2.05846642774277  1.87321745374537
 1 -14.34910768776878 -0.45971612861286  1.46716392239224
 1 -14.23735510251025 -0.34787171017102 -0.06987860786079
 1  12.77812301430143 -2.75255999909991 -0.72527059205921
 1 -13.02379784078408  1.63208772677268  1.74444391739174
 1  14.10356128812881 -0.09596231633163 -0.96200208420842
 1  13.21402289528953 -1.09805203230323 -2.26048672467247
 1 -13.33556910091009  1.83713503450345 -1.46203413641364
 1 -12.22481108810881  2.78243030703070 -0.48832571557156
 1  11.71820044004401 -0.90005073117312  3.26735139613961
 1  10.34684054905491 -0.20218972907291  2.64532341334133
 1  11.72124139413941  0.63982371527153  2.48480761576158
 1  10.59341834483448 -3.02749332943294  0.24235962196220
 1  10.78556947394740 -3.00440535763576  2.13600352435244
 1  9.49432543354335 -2.20775176827683  1.33146808980898
 1 -11.61840874087409  0.11595716671667  2.47540143314331
 1 -10.68570307930793 -1.48596575157516  2.14044004800480
 1 -12.40912207120712 -1.57391829682968  2.83529612561256
 1 -13.38413819481948 -2.90205145714571  1.29283379237924
 1 -11.73173622162216 -3.08750077807781  0.48875393139314
 1 -13.14573493149315 -2.92547285528553 -0.46142461646165
 1  8.85511733573357 -0.31134945504550  0.62844702870287
 1 -10.18042777477748 -2.25995971997200 -0.37858749174917
 1  10.19036145514551  0.82107220512051 -2.37426212921292
 1  11.86292472747275  1.59844413531353 -2.34773448744874
 1  11.57232146714671  0.02211172407241 -3.29709683968397
 1 -11.30699170617062  1.92157538653865 -2.59344083708371
 1 -10.19749528852885  0.36301693869387 -2.27222182818282
 1 -9.95712746774678  2.17145575857586 -1.48278187418742
 1  14.87290384338434 -2.87546645174517  0.56598849184918
 1 -15.34102353735373  1.75574048804880  1.29496770177018
 1  10.37684316631663  2.35889919381938 -0.43942325732573
 1 -8.73917061406141  0.46063816181618 -0.05870068306831
 1  8.54107696969697  4.25199505240524 -0.75355165816582
 1  7.25141853085309  4.12174758365837  1.07638347134713
 1  9.24383909390939  3.89182206910691  0.95770878887889
 1 -8.22203923392339 -3.06631356045605  0.03046720772077
 1 -8.26940269626963 -2.94656367046705 -1.76743307330733
 1 -6.67392624162416 -3.17623127522752 -0.74416120812081
 1  7.04013567656766  0.51078482138214 -0.37351074307431
 1 -6.47622788478848  0.60622046194619 -0.03208558555856
 1  5.45234461846185  3.02304745264526  0.43100535553555
 1 -4.89215303530353 -2.18638994609461 -0.84500190019002
 1  4.47532063106311  0.09446769266927 -0.47016542754275
 1 -4.06830233423342  0.76150126702670 -0.24922212621262
 1  2.98268605360536  3.15001904380438  1.72156835783578
 1  1.66563321632163  2.91779044994499  0.80746315431543
 1  3.27242126412641  3.59380721462146  0.07017652165217
 1 -2.63664580158016 -2.99397654475448  0.00075703170317
 1 -3.24320382838284 -2.52243336343634 -1.58425239223922
 1 -1.37495429442944 -2.31334150925093 -1.17167020302030
 1  2.38715587358736 -0.35100375147515 -0.34890279427943
 1 -1.98785818681868  1.30589050695070 -0.06127274027403
 1  0.23618936593659  2.06550925682568 -0.04528873387339
 1  0.14060683068307 -1.09280923102310 -0.48830641464146

