%nproc=4
%Mem=2GB
# td=(NStates=1) CAM-B3LYP/6-31G(d,p) 

TD

0 1
 8  14.52809102810281 -2.45022249334933 -0.42652150515052
 8 -14.86539313631363  1.92867472347235  0.59756885088509
 6  11.42315560956096 -1.13456409050905  1.19750311131113
 6 -12.31529916191619 -0.95752831283128  0.65387090909091
 6  12.88932766476648 -1.49379241734173  1.05567313931393
 6 -13.62937554655466 -0.25413157315732  0.64261315731573
 6  13.20017201120112 -1.96538206530653 -0.40661555055506
 6 -13.57291963196320  1.20166296429643  0.71072285628563
 6  10.88897742374238 -0.28989320542054 -0.01127537353735
 6 -11.26726382738274 -0.31346237523752 -0.32638339233923
 6  12.96910112911291 -0.95925668276828 -1.39255012801280
 6 -12.90917167716772  1.62226020302030 -0.56013305530553
 6  11.64563931093109 -0.24619499259926 -1.23481199719972
 6 -11.60923451345134  0.84992131513151 -0.87395693469347
 6  11.33108383538354 -0.35639479757976  2.54552499349935
 6  10.60033947494749 -2.41742222332233  1.29100722072207
 6 -11.79606180018002 -0.94999682768277  2.10763934393439
 6 -12.59797049904991 -2.45329077207721  0.32378428242824
 6  9.60088491449145  0.35616665356536  0.11746842684268
 6 -10.00604197119712 -1.11792587758776 -0.47870655165517
 6  11.10513327832783  0.45615007990799 -2.45375958295830
 6 -10.81460389938994  1.47392777677768 -1.88306761376138
 6  9.41155112211221  1.61845528342834 -0.13659903390339
 6 -8.79739022402240 -0.60683424042404 -0.31789283528353
 6  8.08009399539954  2.29789952985299 -0.01792612361236
 6 -7.48149329132913 -1.31946627972797 -0.43067839983998
 6  8.19969045004500  3.75834403930393  0.21968333433343
 6 -7.59962106810681 -2.72726247434743 -0.83365354035404
 6  6.96405181218122  1.61841183508351 -0.12901290729073
 6 -6.35021682468247 -0.57755323042304 -0.15432843884388
 6  5.59715026702670  2.17939564646465  0.01491640764076
 6 -5.05504662666267 -1.12126200230023 -0.26455862986299
 6  4.49770370137014  1.37879329322932 -0.02277790679068
 6 -3.97947336733673 -0.28916512261226 -0.26774410441044
 6  3.11577418241824  1.75613621152115  0.31519318431843
 6 -2.53379714371437 -0.68650298039804 -0.30908856885689
 6  2.83841412241224  3.08455790469047  0.83926663566357
 6 -2.27827332133213 -2.09203650575057 -0.58068910891089
 6  2.18462803780378  0.82218938283828  0.15852672767277
 6 -1.59537086008601  0.27166687258726 -0.13268509550955
 6  0.73198036703670  0.96825159305931  0.21435731573157
 6 -0.17213608260826  0.04572246714671 -0.08626626662666
 1  13.52340161216122 -0.63904733983398  1.30052489048905
 1  12.97330256625663 -2.29797037813781  1.75037516951695
 1 -14.40188296529653 -0.56622677967797  1.37201440744074
 1 -14.12147351435144 -0.35572249524952 -0.31633325332533
 1  12.60157535953595 -2.88687343044304 -0.53068113311331
 1 -13.07957341834183  1.40864538253825  1.50996046904690
 1  13.78019895189519 -0.06461918201820 -1.34756064006401
 1  13.08552004500450 -1.41172339943994 -2.33544422042204
 1 -13.92711825582558  1.44937625862586 -1.31682961596160
 1 -12.53410201720172  2.76720878487849 -0.50605748874888
 1  12.02456107610761 -0.82534326042604  3.30307496849685
 1  10.33460932593259 -0.14286379647965  2.80987986898690
 1  11.79327859785979  0.68324805770577  2.39383851885189
 1  10.79412841584158 -3.06712729282928  0.40496588258826
 1  10.67158807580758 -2.81970688778878  2.25349527352735
 1  9.48045404640464 -2.29607060016002  1.32543748674868
 1 -11.70105700570057  0.05602117311731  2.64293818681868
 1 -10.70749525852585 -1.33100025502550  2.29986599059906
 1 -12.58124928392839 -1.66882778777878  2.84533712971297
 1 -13.32141192219222 -2.79656090809081  0.94725923492349
 1 -11.63423647164716 -3.12944497249725  0.22971802780278
 1 -13.21011136913691 -2.48124843284328 -0.65369384338434
 1  8.79785160916092 -0.26818513861386  0.42987717171717
 1 -9.97736746874688 -2.25665938993899 -0.49340897389739
 1  10.06467888688869  0.64325442334233 -2.26283098609861
 1  11.53212164716472  1.29391368226823 -2.48591830583058
 1  11.23026726172617 -0.19306979407941 -3.27267439743974
 1 -11.45090609760976  1.81577480648065 -2.80127162016202
 1 -10.09337487648765  0.96390702770277 -2.29628423442344
 1 -10.41372312731273  2.42511112411241 -1.56336993299330
 1  14.60390694369437 -3.09436834193419  0.18424031703170
 1 -15.23578301330133  1.83218813281328  1.53358156315632
 1  10.07405288728873  2.28453175707571 -0.62930224522452
 1 -8.66450314731473  0.50327242524252 -0.07986279927993
 1  8.67147000900090  4.35938579147915 -0.62285858885889
 1  7.13680706970697  4.27910331923192  0.30150598359836
 1  8.77100181018102  3.94446733363336  1.08815183318332
 1 -8.42348937893789 -3.36341327042704 -0.20907674667467
 1 -8.00352610861086 -2.86835584968497 -1.83467979797980
 1 -6.71077992699270 -3.20418407050705 -0.71555834783478
 1  7.12135379837984  0.58450219311931 -0.74259765176518
 1 -6.54012427442744  0.28651849174917  0.24475209820982
 1  5.40996038003800  3.31563671157116  0.31593384838484
 1 -4.80829464946495 -2.16521782888289 -0.69544694469447
 1  4.38815191419142  0.21782002790279 -0.24676308730873
 1 -4.14059956395640  0.84184930183018  0.05903869986999
 1  3.62341012601260  3.24563860576058  1.59490569156916
 1  1.89254590759076  3.44277294819482  1.12432484048405
 1  3.16647066906691  3.73606144004400 -0.13599409540954
 1 -2.60576271327133 -2.90479762686269  0.04001095709571
 1 -2.61364087208721 -2.20350147024703 -1.56383035003500
 1 -1.13617041604160 -2.37418759385939 -0.67425046104610
 1  2.47550470847085 -0.14084273537354 -0.16332423642364
 1 -1.86891629262926  1.28431834973497  0.09048243524352
 1  0.51436718371837  2.17450015591559  0.31547734273427
 1  0.25969873987399 -0.94064401450145 -0.33912149614962

