%nproc=4
%Mem=2GB
# td=(NStates=1) CAM-B3LYP/6-31G(d,p) 

TD

0 1
 8  14.73864208320832 -2.12679015011501 -0.23162201520152
 8 -14.66274287128713  2.09530138613861  0.91890098409841
 6  11.45256855085509 -0.96996763086309  1.33860722172217
 6 -12.26341397339734 -0.76223878387839  1.00276579857986
 6  12.94536326832683 -1.44672771087109  1.18220579257926
 6 -13.58048065706571 -0.10317647764776  1.03947284328433
 6  13.37041903590359 -1.81363689078908 -0.24501939093909
 6 -13.37134947494750  1.39212201020102  1.02293407740774
 6  10.95329385538554 -0.22408662476248  0.06582233623362
 6 -11.39351645264526 -0.19257028602860 -0.09067982198220
 6  13.07952217121712 -0.74236499359936 -1.21543241624162
 6 -12.77112787278728  1.81768974597460 -0.35720276227623
 6  11.65059980698070 -0.18354872797280 -1.10579909590959
 6 -11.62467605760576  0.93838016101610 -0.71155069406941
 6  11.38754948194820 -0.05276443454345  2.58886932793279
 6  10.63471291229123 -2.21902238333833  1.43748186818682
 6 -11.69219141314131 -0.82527435543554  2.29636821682168
 6 -12.44444514651465 -2.33950939393939  0.56174807880788
 6  9.55072989898990  0.25330636753675  0.17445412541254
 6 -10.08629999699970 -0.96040012501250 -0.38859754075408
 6  11.21975474047405  0.52519698459846 -2.34622882988299
 6 -10.74013645264526  1.46891727572757 -1.90495980298030
 6  9.32428239523952  1.58436187408741 -0.22785815981598
 6 -8.87881836683668 -0.56892044904490 -0.48473951995200
 6  7.97638362436243  2.22404214411441  0.01808747774777
 6 -7.65037017901790 -1.32290662376238 -0.63230856285629
 6  7.94312479347935  3.60380858575858  0.36595796179618
 6 -7.77849895589559 -2.85841558965897 -1.00644081908191
 6  6.81736714371437  1.48314830873087 -0.12158216421642
 6 -6.38726052905290 -0.73119859495950 -0.72946595259526
 6  5.49202975497550  1.85195290219022  0.14481939793979
 6 -5.07927904990499 -1.33252312841284 -0.94138631263126
 6  4.41173510451045  1.04138955285529  0.13852822382238
 6 -3.94482990299030 -0.51342754885489 -0.66831416141614
 6  3.10352295729573  1.57379797769777  0.23124478947895
 6 -2.58069183318332 -0.86918124822482 -0.74732239223922
 6  2.82351263226323  2.93782323122312  0.72565527452745
 6 -2.24834032803280 -2.36424372647265 -1.08280932093209
 6  2.04224379937994  0.68993615751575 -0.17086621162116
 6 -1.68330965396540  0.15267497339734 -0.40006183318332
 6  0.54842201120112  0.84903967186719 -0.06167028702870
 6 -0.29227809680968 -0.14511661676168 -0.36551419141914
 1  13.53623289528953 -0.61173460856086  1.57642248024802
 1  13.20803603960396 -2.22264284538454  1.82713284528453
 1 -14.09337211421142 -0.58070822782278  2.00533773977398
 1 -14.02968433543354 -0.36789371237124  0.15684406440644
 1  12.67420262226223 -2.79205394849485 -0.59865793079308
 1 -13.03812927392739  1.68982350035004  1.85902537553755
 1  13.73130406240624  0.16303358325833 -1.08968485248525
 1  13.36100759375938 -1.08137036413641 -2.30473114911491
 1 -13.56519206320632  1.55887720872087 -1.19090702370237
 1 -12.47224583158316  2.83410547454745 -0.51132801580158
 1  11.78041666166617 -0.66793751985198  3.63781844284429
 1  10.47816368136814  0.42660315021502  2.77814669566957
 1  12.28334760476048  0.56118585148515  2.08234736973697
 1  10.86704570757076 -3.05742632273227  0.66322170817082
 1  11.02836375337534 -2.57952286938694  2.52256218021802
 1  9.67935393639364 -2.03004399749975  1.34565950895090
 1 -11.49802670267027  0.27181275227523  2.82681657465747
 1 -10.72742725172517 -1.44539169416942  2.32280828482848
 1 -12.38746990599060 -1.54628553355336  2.93660625662566
 1 -13.53887366836684 -2.57526877887789  1.06726123512351
 1 -11.63273632163216 -2.74029605760576  0.85497055305531
 1 -12.44465482348235 -2.46813712171217 -0.47597607160716
 1  8.55377720172017 -0.24709302940294  0.25841002500250
 1 -10.18287801980198 -2.12040576457646 -0.55684531753175
 1  10.05250766976698  0.80093019091909 -2.36550125312531
 1  12.01978041304131  1.24608889978998 -2.40542025602560
 1  11.29786402140214 -0.06996748384838 -3.25361249124913
 1 -11.51598260526053  1.94785801480148 -2.57845933893389
 1 -10.20832637163717  0.73048368536854 -2.61039564556456
 1 -10.00487224222422  2.20980959395940 -1.50132372837284
 1  14.67428398139814 -2.81299020412041  0.63546543954395
 1 -14.98886832183218  2.02837775177518  1.90720892589259
 1  9.88819430143014  2.15475877977798 -0.68897821282128
 1 -8.62152884988499  0.54907700570057 -0.21019583258326
 1  8.52702556455645  4.17362721562156 -0.52311861486149
 1  7.07097048604860  4.16731214011401  0.56980281328133
 1  8.58514322432243  3.79299218611861  1.20302332033203
 1 -8.26833386338634 -3.20895782488249 -0.05636147514751
 1 -8.42329808580858 -2.87870688478848 -1.81036736673667
 1 -6.79887873687369 -3.20444409650965 -0.94011080308031
 1  6.80270193319332  0.37011075397540 -0.40347373937394
 1 -6.41725198719872  0.30489032893289 -0.57175955295530
 1  5.36076546054605  3.00328547644764  0.11129338433843
 1 -4.76053987398740 -2.29207051415142 -1.20688808880888
 1  4.39576267526753 -0.05922767686769 -0.34628303930393
 1 -3.97162266626663  0.40938605550555 -0.34426163016302
 1  3.28575636063606  3.23204724662466  1.63079928092809
 1  1.80376702970297  3.25743441434143  0.78326073407341
 1  3.52053607560756  3.71502933683368  0.18795829982998
 1 -2.65321745874587 -3.16186333343334 -0.32493553755376
 1 -2.79256876487649 -2.64064518461846 -1.85135910291029
 1 -1.19896669566957 -2.53979415451545 -1.17207024302430
 1  2.31211836983698 -0.35473412451245 -0.30644854885489
 1 -2.17042644364436  1.05478539643964 -0.10749736273627
 1  0.10497624462446  1.80642334823482  0.15949174417442
 1 -0.03900113011301 -1.08696864696470 -0.69781736573657

