%nproc=4
%Mem=2GB
# td=(NStates=1) CAM-B3LYP/6-31G(d,p) 

TD

0 1
 8  14.80132835183518 -2.21600907200720 -0.15880473347335
 8 -14.90368696569657  1.82450430643064  0.86268536253625
 6  11.38155144914492 -1.03011364546455  1.35877923892389
 6 -12.29262689468947 -0.94757731773177  0.87003252525253
 6  12.87786651865187 -1.35323836193619  1.16997456945695
 6 -13.64543715271527 -0.37417357735774  0.77998689468947
 6  13.27084907890789 -1.97096262336234 -0.11756664566457
 6 -13.62346468646865  1.18084088208821  0.91808359235924
 6  10.94227275327533 -0.36294051015101 -0.01625587158716
 6 -11.26510361136114 -0.22291332033203 -0.13630438443844
 6  13.06683090209021 -0.90745150225023 -1.24118499149915
 6 -12.89630039003900  1.74521249824982 -0.31773881588159
 6  11.67798254525453 -0.32663303640364 -1.18152666866687
 6 -11.51748533853385  0.97089341234123 -0.66574611361136
 6  11.30135086208621 -0.13805296339634  2.56341678267827
 6  10.65592503350335 -2.30891137223722  1.59293741374137
 6 -11.74108630263026 -0.82915474347435  2.21857043704370
 6 -12.43661436343634 -2.40748619161916  0.45529743374337
 6  9.66097092309231  0.31095213211321  0.20608728872887
 6 -10.12572393939394 -1.01683576857686 -0.49783846484648
 6  11.14158692369237  0.42831729662966 -2.40881508850885
 6 -10.74417685668567  1.70709109310931 -1.67643695069507
 6  9.39921988898890  1.69406284418442 -0.26157153115312
 6 -8.89438992399240 -0.51195475247525 -0.34743578957896
 6  8.08933491949195  2.21348108800880 -0.15024935593559
 6 -7.60149529152915 -1.28550288338834 -0.51566689868987
 6  8.08409889088909  3.72989119401940  0.43151451745175
 6 -7.76903800980098 -2.61381112921292 -1.13986416141614
 6  6.99780518751875  1.49338933283328 -0.27617762376238
 6 -6.41065286828683 -0.69678515361536 -0.37081008700870
 6  5.58117866986699  1.95722342924292  0.08590350635064
 6 -5.16185730773077 -1.08445832193219 -0.54134630863086
 6  4.54052798379838  1.28777419131913 -0.21641727072707
 6 -3.93994941494149 -0.38863506960696 -0.37120445044504
 6  3.12852545754575  1.60331092899290 -0.01358969396940
 6 -2.63494725872587 -0.73662799289929 -0.51336899689969
 6  2.85954623562356  2.94762421132113  0.60689339833983
 6 -2.32377787178718 -2.16793409550955 -1.05816685668567
 6  2.17483705870587  0.75372253615362 -0.20881000600060
 6 -1.62742406540654  0.15028473437344 -0.25400722772277
 6  0.72979014801480  0.89569433733373 -0.09093321332133
 6 -0.22421129012901 -0.04273637873787 -0.42061970197020
 1  13.60184945694570 -0.40025346044604  1.25927076507651
 1  12.96852208820882 -2.13291387248725  1.97856798879888
 1 -14.40025280228023 -0.73736389338934  1.53618082408241
 1 -14.27357872487249 -0.57932485548555 -0.05361698169817
 1  12.95657085908591 -2.99297404050405 -0.50550861586159
 1 -13.07729319031903  1.53769828782878  1.74785425842584
 1  13.69445037703770 -0.05742846294630 -1.43975985998600
 1  12.86730822382238 -1.36280850795080 -2.22418309430943
 1 -13.50475601960196  1.55199652065207 -1.08475640864086
 1 -12.74864347134714  2.77680974497450 -0.06900378337834
 1  11.59804842484249 -0.84882560866087  3.57716237723772
 1  10.24089995499550  0.16399688958896  2.72870175117512
 1  11.68389765976598  0.80967069997000  2.48110724572457
 1  10.90432943594359 -3.06293687378738  0.98066345234524
 1  10.89523044004401 -2.84903982108211  2.63877380138014
 1  9.60309631063106 -2.09734072717272  1.76851179417942
 1 -11.90119701970197  0.16706227722772  2.61461535453545
 1 -10.79209371837184 -1.34941209620962  2.13685968996900
 1 -12.26629778877888 -1.68280918591859  2.97436003200320
 1 -13.27073685468547 -2.81700295229523  0.82412692169217
 1 -11.51700474847485 -3.01191321932193  0.68379343534353
 1 -12.69302966096610 -2.49420972897290 -0.66653512751275
 1  8.91996382038204 -0.26422474257426  0.84775895989599
 1 -10.21245097709771 -2.15434915891589 -0.70479011201120
 1  9.99471189018902  0.46965706360636 -2.37587229022902
 1  11.49593802880288  1.45717000790079 -2.61801151515152
 1  11.30768500350035 -0.37785827292729 -3.18035516551655
 1 -11.44193520052005  1.98010123912391 -2.52552404540454
 1 -9.91939747874788  1.08053869086909 -1.99390399639964
 1 -10.06262801780178  2.58050666366637 -1.16702029802980
 1  14.88014456745674 -2.93299220432043  0.26827872087209
 1 -15.26333576857686  1.82952786678668  1.82045025002500
 1  10.13793927592759  2.27268057195720 -0.45960527552755
 1 -8.73491018801880  0.48878097609761 -0.09577439043904
 1  9.01505436743674  4.37339719261926  0.03187688468847
 1  7.11885527452745  4.27886329522952  0.18108394139414
 1  8.29493420342034  3.80182306920692  1.66628964696470
 1 -8.43822085208521 -3.23236016511651 -0.53060889988999
 1 -8.35360111611161 -2.68470748484849 -2.04849117911791
 1 -6.77161601060106 -3.19220287238724 -1.48745553755376
 1  7.00702236523652  0.49089283218322 -0.88220161216122
 1 -6.57792805480548  0.32620246014601  0.06937456045605
 1  5.55205458945895  2.96451159905991  0.45569782478248
 1 -5.05891971197120 -2.10714202130213 -0.73544094409441
 1  4.63226632563256  0.21296954285429 -0.61207961896190
 1 -4.14934043804380  0.57530264716472  0.01809460546055
 1  3.42169995499550  3.23191723362336  1.42152835383538
 1  1.82772942594259  3.13844251515152  1.05606801480148
 1  2.68848287028703  3.80884871877188 -0.06393688968897
 1 -2.42066420342034 -3.06990413751375 -0.22611565556556
 1 -3.17771727972797 -2.36849796989699 -1.79378334533453
 1 -1.20686748574858 -2.26781695679568 -1.30727376337634
 1  2.64878203620362 -0.23062171327133 -0.75978388238824
 1 -1.94201360236024  1.07450736863686  0.19112249924992
 1  0.04403015001500  1.66413911981198  0.60511630663066
 1  0.21914468446845 -1.05484543464346 -0.88583616761676

