%nproc=4
%Mem=2GB
# td=(NStates=1) CAM-B3LYP/6-31G(d,p) 

TD

0 1
 8  14.81920013901390 -2.31315878697870 -0.43690254325433
 8 -14.95188178517852  1.83246510251025  0.72764185818582
 6  11.55954924892489 -1.08535917001700  1.25013837483748
 6 -12.39451708370837 -0.96458901890189  0.59237475947595
 6  13.09680841284128 -1.35391842994299  1.03162073407341
 6 -13.74258686768677 -0.30582674267427  0.62439133513351
 6  13.33899589358936 -1.93045857295730 -0.37348223722372
 6 -13.72040438043804  1.29176197419742  0.77344912891289
 6  11.04647317331733 -0.23716793289329 -0.03614786078608
 6 -11.30680778177818 -0.26172720172017 -0.19560031403140
 6  12.97898211721172 -0.98213897099710 -1.40163103610361
 6 -13.02992375237524  1.67867584458446 -0.52972001400140
 6  11.72521726872687 -0.26099647274727 -1.16604512051205
 6 -11.67983157315732  0.93584990799080 -0.71792133113311
 6  11.32352307930793 -0.16078523662366  2.49323976497650
 6  10.76728616961696 -2.36587706880688  1.50711883188319
 6 -11.78290048404840 -0.92951477947795  2.07282586258626
 6 -12.60970167216722 -2.51128657165717  0.29876178017802
 6  9.79868469446945  0.26978801570157  0.20927760776078
 6 -10.06983835083508 -0.94142822782278 -0.52079076007601
 6  11.21551431643164  0.40808527342734 -2.40842504950495
 6 -10.78974141314131  1.81684206820682 -1.70710001700170
 6  9.37052701970197  1.59275271317132 -0.15240061406141
 6 -8.91752223722372 -0.45497905490549 -0.17225827182718
 6  8.07900388638864  2.26617635753575  0.02278794779478
 6 -7.61811695369537 -1.30623495659566 -0.35739107110711
 6  8.17585806680668  3.73851205610561  0.28504987098710
 6 -7.74069517551755 -2.85667541564156 -0.58846902190219
 6  6.86195160216022  1.51283127702770  0.03732372637264
 6 -6.42249405240524 -0.64290976607661 -0.26067907390739
 6  5.59282983498350  1.99687739463946  0.23676859285929
 6 -5.07892901490149 -1.01474135023502 -0.54598677267727
 6  4.52810674167417  1.22765817971797  0.08004237523752
 6 -3.98795421542154 -0.30670687678768 -0.40023735373537
 6  3.08551115611561  1.66143674157416  0.10870253525353
 6 -2.53180694469447 -0.74436876697670 -0.52414007400740
 6  2.82940322132213  3.09571902080208  0.51431414041404
 6 -2.42856835083508 -2.12075937803780 -0.85114615461546
 6  2.11895147014701  0.64510167406741 -0.03294241924192
 6 -1.59872119511951  0.16752645854585 -0.16378820582058
 6  0.71311848084809  0.98854362226223  0.03035891589159
 6 -0.20405927492749 -0.05514761986199 -0.15761340134013
 1  13.76407567956796 -0.42427586268627  1.07880271827183
 1  13.45581081708171 -2.00307088818882  1.90617074907491
 1 -14.36859963696370 -0.74751490849085  1.25310251625163
 1 -14.22950431743174 -0.56432335533553 -0.41687330733073
 1  12.89764496649665 -2.90636537963796 -0.54102216721672
 1 -13.08321378237824  1.47981249924993  1.46726619961996
 1  13.90815174717472 -0.21388410851085 -1.56953283728373
 1  12.81757325032503 -1.53459568666867 -2.26155683168317
 1 -13.65867141114111  1.52514383538354 -1.40684861786179
 1 -12.92929153615361  2.74511657565757 -0.60572745574558
 1  11.72452107210721 -0.57665839193919  3.22639730073007
 1  10.36728259325933  0.17354784468447  2.67892677367737
 1  11.98926819681968  0.70674040694069  2.23578271327133
 1  10.95191419441944 -3.03496407650765  0.70849623562356
 1  11.18135905290529 -2.83128804590459  2.34023394739474
 1  9.53862986398640 -2.29869086218622  1.61289623262326
 1 -11.80927782778278  0.04194976597660  2.33894778777878
 1 -10.78318282728273 -1.27872502750275  2.03519952395239
 1 -12.49199035803580 -1.52411331633163  2.69877247324733
 1 -13.56095587658766 -2.93844509650965  0.83713822282228
 1 -11.73958700670067 -3.11833386138614  0.72564762076208
 1 -13.11066142414242 -2.68974928292829 -0.72977145114511
 1  8.93016484048405 -0.22825114521452  0.79335351935193
 1 -10.27210694269427 -2.00030375437544 -0.61663129612961
 1  10.02596501550155  0.67446754465447 -2.49782448544854
 1  11.49456789178918  1.66275056595660 -2.51035074907491
 1  11.64145838083808 -0.29158964606461 -3.33452058205821
 1 -11.15871687868787  2.37947117611761 -2.48374986798680
 1 -10.06520205920592  1.29397003400340 -2.13651825782578
 1 -10.22651440644064  2.58703731673167 -0.94885848184818
 1  15.29714626762676 -2.84629353445345  0.38173006600660
 1 -15.49226866186619  1.48236315031503  1.47127533253325
 1  10.09043452545255  2.46534983888389 -0.54786410141014
 1 -8.69833653065307  0.63360545854585  0.12952813981398
 1  8.66440930293029  4.19572942584258 -0.62922922592259
 1  7.15566895589559  4.25290069896990  0.39432526552655
 1  8.84172888288829  3.85852873977398  1.10543356135614
 1 -7.99222625262526 -3.38373530263026  0.47209137013701
 1 -8.50732648864886 -3.17249626372637 -1.43789011901190
 1 -6.71637048604860 -3.12703635573557 -1.13052984498450
 1  6.94555621862186  0.30370411331133 -0.03839723172317
 1 -6.67775803780378  0.47682752265227  0.07314493749375
 1  5.31749113311331  2.92696784468447  0.68740099509951
 1 -5.00012383238324 -2.04471577867787 -1.11919931993199
 1  4.58720181918192  0.23365161106111 -0.29541795279528
 1 -3.98874437843784  0.78708382528253  0.10344314031403
 1  3.30732851785179  3.39645368726873  1.44987118811881
 1  1.81145779877988  3.31264993589359  0.73677608560856
 1  3.12634665666567  3.76860469436944 -0.38088858485849
 1 -2.74784692169217 -3.05564271137114 -0.09415245924592
 1 -3.03544305230523 -2.38120924102410 -1.69952391939194
 1 -1.27356415541554 -2.33241341644164 -0.90064310031003
 1  2.59596675467547 -0.34145279637964 -0.14987289128913
 1 -1.99822922392239  1.09736965486549  0.02813620062006
 1  0.49800554755476  1.97022972887289  0.42153794879488
 1  0.29784255425543 -0.89968991909191 -0.47580516451645

