%nproc=4
%Mem=2GB
# td=(NStates=1) CAM-B3LYP/6-31G(d,p) 

TD

0 1
 8  14.74689290829083 -2.42415988708871 -0.34093294629463
 8 -14.73265986298630  2.03585544154415  0.71275036903690
 6  11.41476477047705 -1.15193582768277  1.17690105110511
 6 -12.26359399139914 -0.87740030003000  0.89666518851885
 6  13.00871960396040 -1.45584862296230  1.05978355035504
 6 -13.63104571357136 -0.18082424242424  0.85095399139914
 6  13.34757675167517 -1.98315384248425 -0.36257114611461
 6 -13.47454979497950  1.32286508450845  0.73168495249525
 6  10.93477200320032 -0.31679589568957 -0.00776502250225
 6 -11.25970307130713 -0.33511454045405 -0.23567432143214
 6  12.99125334433443 -0.87072782988299 -1.26470734373437
 6 -12.78228898889889  1.66267424442444 -0.57498454045405
 6  11.56989173617362 -0.28552892599260 -1.14827334333433
 6 -11.57991158115811  0.77353367636764 -0.80746028502850
 6  11.20371109810981 -0.33115227332733  2.49108954995500
 6  10.59560900190019 -2.43455393649365  1.32546066606661
 6 -11.62639483348335 -0.76072790079008  2.32656123612361
 6 -12.55848655065507 -2.35739118211821  0.70056196019602
 6  9.59943476947695  0.36852788968897  0.24737141714171
 6 -10.10910227722772 -1.15598968396840 -0.45650433143314
 6  11.17098986398640  0.47814227912791 -2.42046625362536
 6 -10.71582402140214  1.27661804580458 -2.03137244424442
 6  9.35428539553955  1.65493893179318 -0.05854122812281
 6 -8.82053253825383 -0.69098265526553 -0.29320036603660
 6  8.06670265626563  2.33742348224823  0.19942561156116
 6 -7.54248939093909 -1.42087642074207 -0.49290462246225
 6  8.02314279527953  3.81948015291529  0.44884625062506
 6 -7.70271137713771 -2.85999574767477 -0.85039521452145
 6  6.87652305930593  1.61955194909491 -0.02462246824682
 6 -6.40080188318832 -0.63929940504050 -0.37865087108711
 6  5.56492704470447  2.06830453735374  0.22055697169717
 6 -5.08912003400340 -1.16753662976298 -0.47868004200420
 6  4.46326025702570  1.38897431133113 -0.15508113711371
 6 -4.04865028502850 -0.27505371147115 -0.41399872987299
 6  3.12304490949095  1.82941353925393  0.09153081808181
 6 -2.67853161716172 -0.74371870197020 -0.56235389538954
 6  2.78677895889589  3.08888833773377  0.85176788578858
 6 -2.34452994699470 -2.15574287638764 -0.97976901690169
 6  2.09714928992899  0.90986815071507 -0.22613173817382
 6 -1.68458978197820  0.12401210711071 -0.40395222222222
 6  0.69181635063506  0.98570333823382  0.00570645064506
 6 -0.22457132613261  0.02299019391939 -0.43068070807081
 1  13.49734900690069 -0.50801423652365  1.19180401840184
 1  13.19154439043905 -2.05904648574858  1.77673780578058
 1 -14.22311508850885 -0.40987114411441  1.74466167216722
 1 -14.13709507650765 -0.50472739573957  0.05894427442744
 1  12.59665486748675 -2.91026576967697 -0.65261332633263
 1 -13.00803626462646  1.83437795579558  1.50723019601960
 1  13.67549848184818 -0.10419313941394 -0.95290117411741
 1  13.21021251425143 -1.10280250735073 -2.35075575157516
 1 -13.54360990499050  1.64855617661766 -1.44000193319332
 1 -12.47436604360436  2.57662972697270 -0.40974785778578
 1  11.55378399839984 -0.83892461856186  3.43485814681468
 1  10.25157102210221 -0.21596110621062  2.64051293229323
 1  11.61238050805080  0.46049578247825  2.55203433843384
 1  10.48572757575758 -3.12480306040604  0.44306969296930
 1  11.04957587458746 -2.99127404450445  2.04913483748375
 1  9.38271427242724 -2.32744373747375  1.67584252725273
 1 -11.49876677667767  0.49522509350935  2.41184507750775
 1 -10.68945345434544 -1.48764591959196  2.40536654065407
 1 -12.17706886588659 -1.24480538553855  3.25873846984698
 1 -13.49724950595060 -2.78776002800280  1.19417392639264
 1 -11.59335238323832 -2.89704173217322  0.82541759775978
 1 -12.93638399639964 -2.34715502350235 -0.36557503150315
 1  8.75958778277828 -0.03726204630463  0.82209639363936
 1 -10.12934266626663 -2.25508923292329 -0.60646027902790
 1  10.08028044704470  0.69112921082108 -2.36829153215322
 1  11.58274670967097  1.63420771167117 -2.40027974197420
 1  11.27804203920392  0.02158167106711 -3.44769189918992
 1 -11.28839984698470  1.70906413541354 -2.79593108610861
 1 -9.95992153115312  0.55579621662166 -2.38059266526653
 1 -10.13086484148415  2.17866647964796 -1.66844044004400
 1  14.80649720272027 -3.56735564066407 -0.09169727672767
 1 -15.11283071807181  1.60414532853285  1.54133233823382
 1  10.14182966496650  2.44481778567857 -0.39370868586859
 1 -8.53685038203820  0.48233033103310 -0.07597241024102
 1  8.54057691969197  4.44582443534353 -0.32896919991999
 1  6.96832022102210  4.25421082998300  0.38334416741674
 1  8.51797650765076  3.97802068896890  1.34179719771977
 1 -8.49566659665967 -3.20630755985599 -0.19328516751675
 1 -8.01501725772577 -2.79852886698670 -1.88167449744975
 1 -6.77369621862186 -3.45910956305631 -0.85389218121812
 1  7.06457812081208  0.57856159905991 -0.11202459445945
 1 -6.51651191319132  0.34407424732473 -0.15382775977598
 1  5.41867125112511  2.88585373327333  0.99740199519952
 1 -4.75819963996400 -2.17013832093209 -0.84341174117412
 1  4.46688978797880  0.38742698859886 -0.52428083908391
 1 -4.23226873087309  0.68216333323332  0.08664146014601
 1  3.08446623162316  3.01778582048205  1.93779998099810
 1  1.76694334733473  3.16632530343034  0.68858126612661
 1  3.41843586558656  3.92858069196920  0.26056556055606
 1 -2.52329446644664 -2.88931607870787 -0.05101814581458
 1 -2.86793630163016 -2.55087620772077 -1.81744571157116
 1 -1.24460125912591 -2.29326950205020 -1.39906294229423
 1  2.48688584658466 -0.01898054915492 -0.82744064806481
 1 -1.95309471047105  1.08747866576658 -0.06705331833183
 1  0.34723047004700  1.82016472237224  0.66475227022702
 1  0.15253802380238 -0.81655160526053 -1.02754033803380

