%nproc=4
%Mem=2GB
# td=(NStates=1) CAM-B3LYP/6-31G(d,p) 

TD

0 1
 8  14.62609082808281 -2.25711318241824 -0.45290414341434
 8 -14.64926152315232  2.00612246824682  0.71115020902090
 6  11.53079637363736 -0.93143377747775  1.09128248924892
 6 -12.30127775977598 -0.95362792279228  0.69930545254525
 6  12.94339307130713 -1.26553959205921  0.87857542954295
 6 -13.67577018601860 -0.21240740074007  0.69119801580158
 6  13.32282427642764 -2.03186871397140 -0.31563645264526
 6 -13.41908424842484  1.26230902890289  0.67889967396740
 6  10.92364089008901 -0.29478369446945 -0.08408265426543
 6 -11.35213231423142 -0.30492152115211 -0.35771652565257
 6  12.93318753775377 -1.01405216231623 -1.43001387438744
 6 -12.65883664366437  1.75110308730873 -0.57455449744975
 6  11.57550229722972 -0.27333770687069 -1.25624414041404
 6 -11.46622021202120  0.91159748274827 -0.92507204620462
 6  11.37320804780478 -0.18680783888389  2.41561200220022
 6  10.67442688368837 -2.30044052515252  1.36865498549855
 6 -11.62418461246125 -0.79863169116912  2.07464604460446
 6 -12.57916861886189 -2.38713415641564  0.38800070407041
 6  9.58192301830183  0.37982901980198  0.09432611261126
 6 -10.13224459145915 -1.13196728172817 -0.44779346034603
 6  11.05449821482148  0.28401286618662 -2.52397660466047
 6 -10.69712215121512  1.51526191019102 -1.98420772777278
 6  9.40553052005200  1.70603404130413 -0.20183555755576
 6 -8.90788127312731 -0.62164572157216 -0.34670571657166
 6  8.07986397239724  2.22590233013301  0.07274294329433
 6 -7.61265640764076 -1.34348868196820 -0.53775910791079
 6  8.16816729772977  3.74911311621162  0.30366173217322
 6 -7.63122422842284 -2.81409115721572 -0.99472964796480
 6  6.92723813081308  1.57462745664566  0.03218321232123
 6 -6.40938274127413 -0.68482395749575 -0.39960296629663
 6  5.50851140314031  2.02373007990799  0.17381229722972
 6 -5.11347246924692 -1.16837671377138 -0.49097127112711
 6  4.41325525652565  1.29640505440544  0.14463883488349
 6 -4.02310773077308 -0.32476868296830 -0.12822015201520
 6  3.11056366136614  1.67860845874587  0.25426709170917
 6 -2.67108087208721 -0.82940727082708 -0.27842550255025
 6  2.82965324632463  3.12121157005701  0.82665537453745
 6 -2.36828232223222 -2.20839814191419 -0.73033407340734
 6  2.06698627362736  0.83571073497350  0.16214708970897
 6 -1.70418174117412  0.15762546844684  0.13048122112211
 6  0.60997816681668  0.92997776567657  0.30707658765877
 6 -0.21732060106011 -0.11427353245325  0.09940230023002
 1  13.60528980098010 -0.54501793689369  1.15970080808081
 1  13.21483671967197 -2.04125470657066  1.61143127512751
 1 -14.33072584958496 -0.72785294229423  1.53518072407241
 1 -13.99995136213621 -0.58419534253425 -0.32364398439844
 1  12.77635283728373 -2.81869661276128 -0.46328439343934
 1 -12.76276173717372  1.61194571257126  1.64105357835784
 1  13.67762869486949 -0.19518223832383 -1.48482436643664
 1  12.97794928792879 -1.34288651575158 -2.44686536253625
 1 -13.36630217421742  1.73899522052205 -1.45256318931893
 1 -12.28092669966997  2.79985204920492 -0.39253613661366
 1  11.52436105610561 -0.81712243834383  3.23665832683268
 1  10.24125999099910 -0.03381289138914  2.56212509350935
 1  11.81101037103710  0.71808154105411  2.37397653265327
 1  10.78197720072007 -3.20765134523452  0.77972335833583
 1  11.00380129712971 -2.74055897299730  2.40811073507351
 1  9.53367936893689 -2.16955794889489  1.44056899989999
 1 -11.33744064406441  0.28845441644164  2.25176906990699
 1 -10.66007051605161 -1.33713086808681  2.14641064506451
 1 -12.35638679767977 -1.10903180818082  2.77578017401740
 1 -13.29905968696870 -2.84828608060806  1.07462197119712
 1 -11.62816586458646 -2.95793782178218  0.39221427742774
 1 -12.92700305830583 -2.75153546154616 -0.72238071207121
 1  8.74626645064506 -0.09099741984198  0.51124530853085
 1 -10.37797752975298 -2.23507723172317 -0.50925055805581
 1  9.94700711971197  0.39987008490849 -2.46478118111811
 1  11.51727016201620  1.30425471637164 -2.69267898189819
 1  11.27211144614462 -0.35938642574257 -3.10903803380338
 1 -11.56200720772077  1.91866509550955 -2.68803029602960
 1 -10.03010854985499  0.85321595859586 -2.47059166516652
 1 -10.23026478147815  2.42403101610161 -1.73277687368737
 1  14.92335888888889 -2.80675958105811  0.12316420942094
 1 -14.95034446944694  1.94394930893089  1.63079128412841
 1  10.28965444744474  2.42463576747675 -0.45415473047305
 1 -8.79739643664366  0.48335043304330 -0.13564837783778
 1  8.92834569656966  4.02167202010201 -0.41419772277228
 1  7.27318070707071  4.36587199609961  0.27946377937794
 1  8.80289499949995  3.87973085998600  1.15286830483048
 1 -8.23180021002100 -3.65201213031303 -0.31605744474447
 1 -8.26725248124812 -2.84219323342334 -1.85754208420842
 1 -6.65813466246625 -3.32485613771377 -1.14323111511151
 1  6.95086674967497  0.40442418531853 -0.03307669966997
 1 -6.60720098209821  0.46064590449045 -0.09272164916492
 1  5.42100148414841  2.96530167806781  0.59216147114711
 1 -4.94409822982298 -2.12328363546355 -0.86717411741174
 1  4.53923702270227  0.17760600650065 -0.31082949394939
 1 -4.07894339833983  0.62335745264526  0.21971476747675
 1  3.29569735473547  3.31995603750375  1.72225842684268
 1  1.71486813981398  3.28361703260326  1.09899230723072
 1  2.95822984498450  3.93564139803980  0.11351085508551
 1 -2.89721185818582 -3.06366351345135 -0.07182022602260
 1 -3.06515602360236 -2.60403152325233 -1.67160112711271
 1 -1.42873967296730 -2.42504267936794 -0.71074411041104
 1  2.24463162116212 -0.14658330943094 -0.08319622362236
 1 -2.15493489448945  1.13177309520952  0.36230961796180
 1  0.09576532353235  1.91775448134814  0.41791758675868
 1  0.11403417341734 -1.06685663576358 -0.10701828582858

