%nproc=4
%Mem=2GB
# td=(NStates=1) CAM-B3LYP/6-31G(d,p) 

TD

0 1
 8  14.62937115611561 -2.39746721782178 -0.28455730873087
 8 -14.93765036203620  1.65581743774377  0.76880597459746
 6  11.35294858885889 -1.10843147724772  1.22246560756076
 6 -12.32894052605261 -1.00057261726173  0.72799832183218
 6  12.91380011201120 -1.59146218431843  1.08835640764076
 6 -13.68408101710171 -0.32917907790779  0.69409830583058
 6  13.23953594759476 -2.02660818791879 -0.29209409840984
 6 -13.64183652365237  1.13072587058706  0.79192097609761
 6  10.94190271627163 -0.32527674377438  0.03230898489849
 6 -11.23452055305530 -0.24987601660166 -0.16607736173617
 6  12.91150536953695 -0.91875263236324 -1.30548142114211
 6 -12.92848360836084  1.74035201220122 -0.39173621562156
 6  11.66159090609061 -0.14862523562356 -1.08674719071907
 6 -11.60098368836884  0.93554987798780 -0.72846238523852
 6  11.17833856085609 -0.33256241434143  2.59348978997900
 6  10.54598403940394 -2.37707818891889  1.35101322132213
 6 -11.65398759275928 -0.97309913791379  2.11123970397040
 6 -12.43725442744275 -2.46611205420542  0.22671457545755
 6  9.61525635163516  0.40166120302030  0.22322900290029
 6 -10.02980434743474 -0.95307939293929 -0.51385006600660
 6  11.25070783578358  0.50332479737974 -2.32934714171417
 6 -10.72454489348935  1.69131951595160 -1.85984529152915
 6  9.36434640164016  1.59461289918992 -0.16671204520452
 6 -8.80715120012001 -0.45061861886189 -0.29669071507151
 6  8.05379136513651  2.31755149504950 -0.14010834183418
 6 -7.54151929392939 -1.19543387648765 -0.33912924492449
 6  8.04406488748875  3.85588379327933  0.09258062406241
 6 -7.64599570557056 -2.64627437553755 -0.72997317231723
 6  6.86062146914691  1.58518851275127 -0.20090009600960
 6 -6.35996779977998 -0.53574905000500 -0.24155716171617
 6  5.63102365436544  2.06090379727973 -0.04889997399740
 6 -4.96350747274727 -1.06751662776278 -0.45600777477748
 6  4.51684561556156  1.27978339223922 -0.03688931793179
 6 -3.92845826582658 -0.26464267036704 -0.26329365936594
 6  3.13955656065607  1.70017061496150  0.19611127612761
 6 -2.58170193419342 -0.72225655575558 -0.45734339433943
 6  2.85407568856886  3.03325277417742  0.58942165116512
 6 -2.41956745074507 -2.16120342244224 -0.77186822682268
 6  2.16616619161916  0.82186935083508 -0.09565869086909
 6 -1.56012733573357  0.08968867476748 -0.16319814681468
 6  0.77000416941694  0.90061482938294  0.16924280428043
 6 -0.06755562456246 -0.09459156425643 -0.20496813681368
 1  13.40927019901990 -0.52641607670767  1.32159699769977
 1  13.10224546054605 -2.11505208630863  2.03604373637364
 1 -14.25549832683268 -0.66342649964996  1.58517572357236
 1 -14.25884725172517 -0.75783270627063 -0.20365198519852
 1  12.68592379437944 -2.97067181028103 -0.58681674667467
 1 -13.31366682768277  1.35384990299030  1.68526799979998
 1  13.76578751075107 -0.23610633073307 -1.35830171417142
 1  13.03161465446545 -1.32510473757376 -2.37211788778878
 1 -13.38621416541654  1.76729805080508 -1.20340827382738
 1 -12.82638124512451  2.84984704870487 -0.06363324632463
 1  11.25118373837384 -0.98817954405441  3.29429409040904
 1  10.10422628762876  0.04637512741274  2.63161204220422
 1  11.77641691169117  0.60203993689369  2.80758989398940
 1  10.89096809980998 -3.03443402350235  0.53778916491649
 1  10.65181609860986 -2.90723564066407  2.24254417841784
 1  9.42148814981498 -2.12413340644064  1.30493543654366
 1 -11.34818171817182  0.10044561556156  2.19351324432443
 1 -10.84268877787779 -1.56894404940494  1.89547555155516
 1 -12.49256041504150 -1.37729863486349  2.88438103410341
 1 -13.09484926592659 -2.99008026002600  0.71109561856186
 1 -11.50934398239824 -2.87751977997800  0.32016707270727
 1 -12.83237359535954 -2.32988329632963 -0.86972544654465
 1  8.80536236023602 -0.02244056415642  0.93724790879088
 1 -10.10117984998500 -1.90252397639764 -0.82942257525753
 1  10.15412783178318  0.82434253215322 -2.39668437143714
 1  11.64358279327933  1.44585887678768 -2.65094480848085
 1  11.36130036503650 -0.25515600270027 -3.15024215421542
 1 -11.14798580558056  2.15925915491549 -2.68290978397840
 1 -10.10939647864787  0.85648628562856 -2.36579118511851
 1 -9.92656441144114  2.31359997299730 -1.56789038503850
 1  14.60959751275128 -3.18290719581958  0.29403129612961
 1 -15.34442387738774  1.47256217021702  1.56324452945295
 1  10.22417789978998  2.23263656755676 -0.70601991699170
 1 -8.78441513851385  0.53878597659766  0.07964315131513
 1  8.76040890289029  4.32739259215922 -0.61173747674767
 1  7.15460884988499  4.36755216411641  0.03992982598260
 1  8.41235594559456  4.21484437133713  1.04623764176418
 1 -8.23784081408141 -3.13600052915292  0.13222738373837
 1 -8.17810356635664 -2.74531354545455 -1.61567789778978
 1 -6.57965681468147 -2.92497614971497 -0.92701949394939
 1  7.08320998399840  0.48463220612061 -0.42944633663366
 1 -6.40825108710871  0.45503534343434 -0.33180555755576
 1  5.47817720172017  3.05891103900390  0.27661991699170
 1 -4.71230505050505 -2.10188149524953 -0.56124352435244
 1  4.76509960896090  0.19957820372037 -0.44968337933793
 1 -3.91634713871387  0.87502261916192  0.05411820782078
 1  2.91480926592659  2.98450249214922  1.77346354735474
 1  1.83175982898290  3.51189986088609  0.35278768676868
 1  3.56519054105411  3.69934776867687  0.10016952095210
 1 -3.08023016001600 -3.13348049514952 -0.16229927392739
 1 -2.68985849384939 -2.33119423952395 -2.04386835383538
 1 -1.23548034703470 -2.49236941204120 -0.69126216221622
 1  2.43274043204320  0.00301165006501 -0.64517242124212
 1 -1.99602900390039  1.07958787668767 -0.01003761676168
 1 -0.04091834483448  1.78910161606161  0.50636643164316
 1  0.18582135213521 -1.02493244334433 -0.58067565156516

