%nproc=4
%Mem=2GB
# td=(NStates=1) CAM-B3LYP/6-31G(d,p) 

TD

0 1
 8  14.87398561756176 -1.97890536163616 -0.25159401240124
 8 -14.90967756475647  1.68690054605461  0.80596969096910
 6  11.39394268826883 -1.22350298439844  1.19034239523952
 6 -12.28238587058706 -0.88356091609161  0.73517903990399
 6  12.95744447644765 -1.40666370447045  1.08761633363336
 6 -13.68199080808081 -0.29904606460646  0.67325622162216
 6  13.38060005400540 -1.87333286038604 -0.24935982498250
 6 -13.58498083808381  1.17291008900890  0.76096788078808
 6  10.89959848584859 -0.38422263836384 -0.03345759175918
 6 -11.35670277127713 -0.16501753075308 -0.23460421442144
 6  13.01019523852385 -0.83862461956196 -1.17742861586159
 6 -12.89044980498050  1.68630660766077 -0.52702974497450
 6  11.55457020402040 -0.26415678877888 -1.19498801480148
 6 -11.56120971097110  0.91363768676868 -0.76699623862386
 6  11.15636636363636 -0.49869902800280  2.50140058105811
 6  10.64878431943194 -2.53333381448145  1.26329444944494
 6 -11.70501269526953 -0.85776760476048  2.19516809680968
 6 -12.51042174417442 -2.36636207920792  0.42479438343834
 6  9.64110893689369  0.27950898779878  0.11235791579158
 6 -10.07477884488449 -0.98183226822682 -0.39790847184718
 6  11.05074783978398  0.39936440134013 -2.44008821582158
 6 -10.66488892789279  1.57195757975798 -1.86032533953395
 6  9.35925589258926  1.54049748764876 -0.04536991099110
 6 -8.81800228522852 -0.46817037403740 -0.41491253725373
 6  8.06159214521452  2.26780652055206  0.01657732673267
 6 -7.53990913291329 -1.22743707680768 -0.49347467946795
 6  8.12086256725673  3.74212241714171  0.31067243324332
 6 -7.72393349934993 -2.67779752785279 -0.84943511851185
 6  6.89903531053105  1.56745673957396 -0.06692669866987
 6 -6.45273707670767 -0.52679815491549 -0.25085809180918
 6  5.58613916591659  2.04907261416142  0.08748366436644
 6 -5.12059318131813 -0.98310818691869 -0.39981215521552
 6  4.42898682968297  1.30838625252525 -0.11340696969697
 6 -3.96844226422642 -0.20136634273427 -0.27857518751875
 6  3.10373297829783  1.62230282818282  0.01155282028203
 6 -2.53235699969997 -0.78468279837984 -0.38206586658666
 6  2.85180546154615  3.08667811671167  0.33415612461246
 6 -2.35147064106411 -2.18462576467647 -0.74210525052505
 6  2.15893546854685  0.70199736363636 -0.08633775877588
 6 -1.56291761476148  0.13936364226423 -0.11502332933293
 6  0.73736090509051  0.93514828272827  0.04679055905591
 6 -0.14581345034503 -0.12617472257226  0.00597295729573
 1  13.36490576257626 -0.39358279337934  1.20356519451945
 1  13.16187142314232 -2.05173575467547  1.92907303930393
 1 -14.42810558755876 -0.51249140614061  1.41383858985899
 1 -14.23041440844085 -0.48910583358336 -0.16871849184918
 1  12.96353155515552 -2.83228797189719 -0.61687975297530
 1 -13.15221068206821  1.48141265926593  1.70796026902690
 1  13.80650158215822  0.11444872477248 -0.79347523152315
 1  13.28231972497250 -1.15024725182518 -2.12148282428243
 1 -13.56433197719772  1.53222454345435 -1.32336026902690
 1 -12.82920152715272  2.72811487548755 -0.55204208720872
 1  11.68446706670667 -1.12856358245825  3.31260592159216
 1  10.25143100810081 -0.25145465556556  2.65209409040904
 1  11.55554482448245  0.43724345724572  2.42577171217122
 1  10.73431243424342 -3.10495107520752  0.40974636063606
 1  10.93504442144214 -2.80552546964696  2.19426935093509
 1  9.58250425142514 -2.11274226732673  1.25304024702470
 1 -11.89501640164016  0.19831540254025  2.81630552355236
 1 -10.51427593659366 -1.02991014601460  2.24043004700470
 1 -12.23734489348935 -1.81920282528253  2.78753134913491
 1 -13.39821960296029 -2.93117436943694  0.90568507750775
 1 -11.50184323232323 -2.99172120012001  0.65980103610361
 1 -12.72072243024303 -2.38256856485649 -0.67660613461346
 1  8.87654947894790 -0.22307062716272  0.72553673767377
 1 -10.26990672267227 -2.13509723372337 -0.64069370237024
 1  10.05589800880088  0.89553965186519 -2.27463216621662
 1  11.47380581558156  1.48955324622462 -2.69301901590159
 1  11.19731396639664 -0.00225071217122 -3.51872900290029
 1 -11.21360236723672  1.90878410741074 -2.72415390839084
 1 -9.88970450945095  0.87106774377438 -2.07130173617362
 1 -10.11789354435444  2.51758037103710 -1.52205580158016
 1  15.22567912091209 -2.28000690579058  0.51384327732773
 1 -15.30454988998900  1.31813672767277  1.49023722872287
 1  10.20946642864286  2.12184548844884 -0.43058237323732
 1 -8.73001969896990  0.49415151315132 -0.28195300830083
 1  8.97361022302230  4.24836468936894 -0.22375867886789
 1  6.92575596459646  4.25798120702070  0.03775960896090
 1  8.30059476947695  3.50890377727773  1.50104312231223
 1 -8.22174920492049 -3.20207713681368 -0.10057589658966
 1 -8.46324208020802 -2.71532054615462 -1.68792512251225
 1 -6.66309515851585 -3.01159481158116 -1.44139093109311
 1  7.04311597459746  0.46827056995700 -0.54321771377138
 1 -6.55287554955496  0.72354219411941 -0.13585596259626
 1  5.43146253025303  2.89223437133713  0.68504075907591
 1 -5.10715453545355 -2.06740804790479 -0.68818621862186
 1  4.72250534953495  0.28154640054005 -0.50510892189219
 1 -4.09759526352635  0.76505162206221 -0.01836904090409
 1  3.14296208120812  3.29110315221522  1.34402060306031
 1  1.77968462146215  3.26821549244924  0.55659806780678
 1  3.42107612961296  3.54256209010901 -0.44879537553755
 1 -2.78053019001900 -2.92975012211221 -0.08758180218022
 1 -2.78899840784079 -2.40931205130513 -1.79205317231723
 1 -1.23574037303730 -2.47524769986999 -0.67385042104210
 1  2.51628878687869 -0.39129778087809 -0.36286419041904
 1 -1.82998239923992  1.23884380228023  0.10035342234223
 1  0.43257900490049  1.96160886678668  0.18079387438744
 1  0.07226999699970 -1.19207915801580 -0.20641822582258

