%nproc=4
%Mem=2GB
# td=(NStates=1) CAM-B3LYP/6-31G(d,p) 

TD

0 1
 8  14.70023824282428 -2.28179565066507 -0.29968882188219
 8 -14.79772636963696  1.99264112011201  0.58895798979898
 6  11.46751004500450 -1.09035967006701  1.25095845684568
 6 -12.32743037503750 -0.95939849984999  0.89538506050605
 6  12.94756348834884 -1.36247928602860  1.10213778577858
 6 -13.68155076407641 -0.20572673267327  0.76107500350035
 6  13.33814580858086 -1.86433196029603 -0.26103099209921
 6 -13.51074341434143  1.30873367136714  0.77905968996900
 6  10.92185071107111 -0.37616183228323 -0.05445969196920
 6 -11.21312841384138 -0.27846887588759 -0.06868762276228
 6  13.09011323032303 -0.85381613871387 -1.30021089408941
 6 -12.73233399339934  1.67395537253725 -0.47135417741774
 6  11.65720046704670 -0.28794916801680 -1.10954947094709
 6 -11.53800739073907  0.84250057305731 -0.72390192919292
 6  11.14507523452345 -0.27991714981498  2.45573601460146
 6  10.55351479247925 -2.38952943404340  1.36185430543054
 6 -11.76120831483148 -1.03034486248625  2.38662724272427
 6 -12.55154585658566 -2.48048349134914  0.44172607660766
 6  9.68389321532153  0.30200123702370  0.21760844084408
 6 -10.10369173617362 -1.05870995599560 -0.35491417241724
 6  11.29303206820682  0.38652311721172 -2.49024323132313
 6 -10.61580401940194  1.50101048504850 -1.68520782778278
 6  9.40525049204921  1.63681711961196 -0.10418579257926
 6 -8.80644112911291 -0.53963752075208 -0.31445249124913
 6  8.13196918291829  2.28868860876088  0.17573324232423
 6 -7.60179532153215 -1.31636596969697 -0.55594092609261
 6  8.21438191919192  3.78013621852185  0.33218458445845
 6 -7.72471357735774 -2.79623937203720 -1.01417159215922
 6  6.94110951795180  1.62995298919892 -0.07137714371437
 6 -6.43482528552855 -0.66547202230223 -0.47953095909591
 6  5.56744729672967  2.01579928682868  0.09186410241024
 6 -5.08179930193019 -1.14212408850885 -0.53692586658666
 6  4.46416034703470  1.15104051795180  0.06933130413041
 6 -4.08181360136014 -0.31971817791779 -0.42865019501950
 6  3.09206181118112  1.62078267616762  0.11684334933493
 6 -2.66927069106911 -0.62271660176018 -0.59632729272927
 6  2.85376565756576  3.06253570247025  0.51163387238724
 6 -2.36628212221222 -2.13271057315732 -0.89327036703670
 6  2.04516409140914  0.73574073797380 -0.06916604160416
 6 -1.74237556055606  0.36058576447645 -0.33292511951195
 6  0.63563073207321  0.95129989788979  0.08261414141414
 6 -0.34794366336634  0.03798169306931 -0.26758439843984
 1  13.37958723072307 -0.48273170827083  1.24580941894189
 1  13.26217145314531 -2.14396497759776  1.82707283928393
 1 -14.34900767776778 -0.55387554455446  1.36677388338834
 1 -14.10953232023202 -0.43367029002900 -0.09306092609261
 1  12.71217641964197 -2.77259200230023 -0.67725579057906
 1 -13.12849831083108  1.88162268026803  1.75763523652365
 1  14.02413334533453  0.07338461836184 -1.28337422142214
 1  13.19872136513651 -1.28261048814881 -2.24487516351635
 1 -13.32467801180118  1.63944526552655 -1.38818675167517
 1 -12.53848245524552  2.63269533353335 -0.47711459445945
 1  11.65166378637864 -0.67036776287629  3.40866552755276
 1  10.04172003700370 -0.46277578767877  2.76999588058806
 1  11.52824209420942  0.76945667856786  2.36544567956796
 1  10.73724272727273 -3.24696527662766  0.59667505350535
 1  10.69188010501050 -2.93847876497650  2.34903482748275
 1  9.49332533353335 -2.18398939203920  1.25800074307431
 1 -11.71635853585359  0.02580815181518  2.80239413241324
 1 -10.83527803680368 -1.45210236523652  2.39914591859186
 1 -12.49717087608761 -1.60029093409341  2.88184078007801
 1 -13.29288906990699 -2.83615486748675  1.10468497749775
 1 -11.70615366336634 -3.31602363036304  0.70601565756576
 1 -12.96131648964897 -2.45924623262326 -0.67074554855486
 1  8.74810663466347 -0.04708302840284  0.65049923392339
 1 -10.27946767876788 -2.21273499749975 -0.54796442944294
 1  10.15617803680368  0.83962406030603 -2.55983068606861
 1  12.02341077607761  1.35481977287729 -2.79575928992899
 1  11.12850708570857 -0.41051153825383 -3.31897902790279
 1 -11.37819882688269  2.07102033103310 -2.33172466546655
 1 -10.02513805280528  0.62253289028903 -2.29089369536954
 1 -9.98728048304831  2.12915152815282 -1.25413900990099
 1  14.76879343234323 -2.89923882898290  0.27832972597260
 1 -15.15895533053305  2.12145705970597  1.57817602260226
 1  10.15136061806181  2.32919622352235 -0.42924223922392
 1 -8.90071676867687  0.27855995399540  0.07230241724172
 1  8.80252311431143  4.14276412931293 -0.62876917991799
 1  7.34342773177318  4.40107551645165  0.47657349034904
 1  8.74506921692169  4.12772565946595  1.15059807780778
 1 -7.62612964296430 -3.39710663976398 -0.07679351835184
 1 -8.48692444844485 -3.00077909200920 -1.80065639563956
 1 -6.67563641264126 -3.06705035713571 -1.59976676867687
 1  7.00224188718872  0.59533327622762 -0.26436982898290
 1 -6.55269553155315  0.32648248814881 -0.00596297329733
 1  5.40918030203020  2.99532468036804  0.11876413141314
 1 -4.93648746874687 -2.13935524262426 -0.65670307030703
 1  4.67857095609561  0.13042128802880 -0.22723113411341
 1 -4.16025152915291  0.75522063896390 -0.30540774477448
 1  3.21787957295730  3.28930297219722  1.59266546754675
 1  1.85535218821882  3.18406707760776  0.72159456745675
 1  3.24213823582358  3.73852168606861 -0.28562905890589
 1 -2.69640177717772 -2.78008515561556  0.11474843084308
 1 -3.07893740174017 -2.47459857995800 -1.70877484448445
 1 -1.39199599859986 -2.28251842694269 -1.25240827682768
 1  2.28672583058306 -0.35713436453645 -0.12100000400040
 1 -1.96522592359236  1.46990690859086 -0.01116772977298
 1  0.38500424742474  1.70902360826083  0.72818861386139
 1  0.02620539053905 -0.87634758485849 -0.57121470547055

