%nproc=4
%Mem=2GB
# td=(NStates=1) CAM-B3LYP/6-31G(d,p) 

TD

0 1
 8  14.55286350535054 -2.35615308640864 -0.53750260326033
 8 -14.74830142714271  2.00658251425143  0.53563265726573
 6  11.49262255625563 -1.06661729582958  1.15241860286029
 6 -12.31147877987799 -0.93796635663566  0.72252777477748
 6  12.89859859185919 -1.56717975607561  1.00947851985199
 6 -13.70158276727673 -0.27425358535854  0.62636153215322
 6  13.13958595259526 -2.07628315541554 -0.38930381938194
 6 -13.51869420942094  1.28571136913691  0.64168595259526
 6  10.93050157615762 -0.25283950005001 -0.01158540454045
 6 -11.23114021502150 -0.36243727272727 -0.21461221522152
 6  12.82715693469347 -1.06277703480348 -1.46648752175218
 6 -12.73334409440944  1.67833581058106 -0.56113315531553
 6  11.51397614461446 -0.29318969206921 -1.19335785178518
 6 -11.44151774177418  0.91266758975898 -0.73537307630763
 6  11.35290601760176 -0.19339849794979  2.44072451345135
 6  10.65447488848885 -2.30070055115512  1.49717783778378
 6 -11.75547774177418 -1.07934976297630  2.11809038903890
 6 -12.54557525952595 -2.43097854085409  0.15485738973897
 6  9.60584541054105  0.42763380028003  0.27878455845585
 6 -10.02241360836084 -1.07568165316532 -0.50672935393539
 6  11.05871863686369  0.29799426432643 -2.40448465546555
 6 -10.51504394339434  1.50671105510551 -1.77396670367037
 6  9.29759972697270  1.73402684058406 -0.12414778877888
 6 -8.80625111011101 -0.55889944694469 -0.21596264226423
 6  8.01668765476548  2.32658239813981  0.07905357435744
 6 -7.58016315831583 -1.27716204930493 -0.43889922192219
 6  8.08666914791479  3.76931513641364  0.39321068706871
 6 -7.68421952795279 -2.59123887198720 -1.00459063406341
 6  6.81912731973197  1.71239123302330 -0.20999100510051
 6 -6.40575237823782 -0.65583105820582 -0.15032803880388
 6  5.52246279827983  2.21715942284228 -0.09405448944894
 6 -5.06574769676968 -1.14494437053705 -0.31716389038904
 6  4.38920285128513  1.42199761366137  0.02199657065707
 6 -3.88289370937094 -0.47466367246725  0.02127479747975
 6  3.10580318531853  1.71977257515752  0.12721438643864
 6 -2.52932669666967 -0.87496182628263 -0.24774243424342
 6  2.79601988298830  3.15500494939494  0.74288699769977
 6 -2.20414590859086 -2.16732403450345 -0.63713475347535
 6  2.12669224422442  0.79175633953395 -0.06310543554355
 6 -1.61894321732173  0.12640234613461 -0.01556338333833
 6  0.66450361936194  1.01365613351335  0.12269814981498
 6 -0.12627149614962  0.00487838273827 -0.11496913691369
 1  13.64921419341934 -0.78777221232123  1.06816165416542
 1  13.06987222322232 -2.36069665076508  1.61018115011501
 1 -14.23334611161116 -0.75696585358536  1.50285749174917
 1 -14.28884025102510 -0.56122304530453 -0.29083070307031
 1  12.88180338233823 -3.02720746384638 -0.65438350335033
 1 -13.09401486248625  1.54951946994699  1.59908938193819
 1  13.66663759575958 -0.51176389648965 -1.38277416141614
 1  13.08160965396540 -1.46752897999800 -2.41838251425143
 1 -13.27886343034303  1.57727904890489 -1.49593752675268
 1 -12.58492709970997  2.81879394339434 -0.49124600760076
 1  11.70208882888289 -0.66727745384538  3.42015667666767
 1  10.38401426642664  0.08999948984898  2.92313119411941
 1  12.16278554855485  0.55658539143914  2.29368850385039
 1  10.98414741774177 -3.40614119421942  1.09955534153415
 1  10.91758267526753 -2.55048996609661  2.75361528552855
 1  9.57348334933493 -2.19320031313131  1.28004294729473
 1 -11.30220712071207 -0.11378580758076  2.60127402040204
 1 -10.84755926492649 -1.76803395839584  2.01135713971397
 1 -12.54978613761376 -1.60693159815982  2.72846544254425
 1 -13.41205098609861 -2.92729398139814  0.69275378437844
 1 -11.68228127612761 -2.96238826682668  0.48160321632163
 1 -12.79254961296130 -2.51609191719172 -0.95892436643664
 1  9.02393421742174 -0.03272159225923  1.13281746574657
 1 -10.35174490649065 -1.97683140714071 -0.72417205020502
 1  9.91456387538754  0.62143224112411 -2.37201190419042
 1  11.63773220822082  1.19291358225823 -2.75940565456546
 1  11.02069630463046 -0.43586407350735 -3.24785191519152
 1 -11.17677868486849  1.96983021202120 -2.47802929592959
 1 -9.74227976697670  0.95498613561356 -2.21904651065107
 1 -10.01373312831283  2.45825443844384 -1.34804840084008
 1  14.75888244124412 -2.97013591869187  0.09211110411041
 1 -15.30852028702870  1.89729464346435  1.36567477247725
 1  10.17727320932093  2.38792209610961 -0.59316863186319
 1 -8.86823352035204  0.43705580358036  0.28109329632963
 1  8.57493035503550  4.17272712561256 -0.41897820082008
 1  7.08675206420642  4.34568997789779  0.37596342934293
 1  8.69503421342134  4.05187807470747  1.25583860186019
 1 -7.88391542154215 -3.24464139323932 -0.09860569956996
 1 -8.52047780378038 -2.55981499559956 -1.76714304430443
 1 -6.78523737273727 -3.09072272437244 -1.61430822282228
 1  6.98668033103310  0.65680942384238 -0.42113550555056
 1 -6.52554281628163  0.18506834673467  0.31799942294229
 1  5.34764414841484  3.33950909880988  0.19185144014401
 1 -4.91065488548855 -2.20081138823882 -0.72017941794179
 1  4.56855995499550  0.36483472937294 -0.30610902190219
 1 -4.17288279227923  0.48580369726973  0.47318011401140
 1  3.24300208520852  3.21372541444144  1.66939314031403
 1  1.72139879287929  3.33858252915291  0.94824723272327
 1  2.97609163116312  3.78757659155916 -0.11873236923692
 1 -2.37874001100110 -3.14999214631463 -0.00486353035304
 1 -2.43536304430443 -2.32798391849185 -1.56981094809481
 1 -1.18511531053105 -2.45995617071707 -0.85724876087609
 1  2.52414957295730 -0.15677432853285 -0.39955785978598
 1 -2.07146654765477  1.07008692659266  0.44466785378538
 1  0.40759650665067  1.87010971687169  0.61625742074207
 1  0.12030480048005 -0.94325427552755 -0.49344692869287

