%nproc=4
%Mem=2GB
# td=(NStates=1) CAM-B3LYP/6-31G(d,p) 

TD

0 1
 8  14.71945016401640 -2.26669414051405 -0.26863571657166
 8 -14.87804440144014  1.93794565056506  0.63383247724772
 6  11.48456175017502 -1.03158379247925  1.17773113411341
 6 -12.25637326932693 -0.86582914291429  0.93014853685369
 6  13.00464919691969 -1.28962200030003  1.14339191119112
 6 -13.67509011801180 -0.22307846784678  0.82565146114611
 6  13.31380337433743 -1.88801432853285 -0.14871976097610
 6 -13.57444978497850  1.33518631663166  0.71064284828483
 6  11.06455498149815 -0.30037425352535 -0.03230747674767
 6 -11.30444754575458 -0.26712774177418 -0.10766152015202
 6  13.18841306030603 -0.85924668176818 -1.35554642764276
 6 -12.82666342634263  1.67679565656566 -0.57894493649365
 6  11.74545929292929 -0.25042541564156 -1.22144066006601
 6 -11.63030662066207  0.87685400840084 -0.79694923392339
 6  11.21608233523352 -0.27546670477048  2.53489393039304
 6  10.80322976397640 -2.39226970807081  1.21618973897390
 6 -11.71311350535053 -0.82718454645465  2.37961654165417
 6 -12.51539224122412 -2.47782322532253  0.67868977297730
 6  9.71472629862986  0.24867590449045  0.06186286628663
 6 -10.04128549554956 -1.03582766776678 -0.43458213921392
 6  11.32001476647665  0.45513997889789 -2.46270047704770
 6 -10.78942138113811  1.25932631663166 -1.99362866986699
 6  9.27651761876188  1.49049248714871 -0.15513088708871
 6 -8.82154263926393 -0.54594815181518 -0.24168521452145
 6  8.05314130013001  2.15669540944094  0.03168883788379
 6 -7.58873401540154 -1.36565089818982 -0.55635096709671
 6  8.08197867886789  3.55866407130713  0.51487285328533
 6 -7.65923702970297 -2.63272302040204 -1.15587576257626
 6  6.89317472447245  1.42676267016702 -0.04887489348935
 6 -6.41824362736274 -0.59379485458546 -0.42638564456446
 6  5.54701525352535  1.97893560046005  0.16425134113411
 6 -5.07561868386839 -1.08207808390839 -0.69502167616762
 6  4.37858178917892  1.23816923082308 -0.10832646164616
 6 -4.00534595459546 -0.34062026812681 -0.34339166916692
 6  3.02319492449245  1.73651424932493  0.18175984098410
 6 -2.64329809380938 -0.78949327942794 -0.40509816981698
 6  2.77802808380838  3.12155160406041  0.63021573057306
 6 -2.27615310931093 -2.05602290439044 -1.02298333833383
 6  1.95687526252625  0.90260742464246 -0.16427555255526
 6 -1.75868719171917  0.11547125302530 -0.05884771177118
 6  0.61456862586259  1.03798856675668  0.22853873387339
 6 -0.27974684368437  0.02436033093309 -0.22604024402440
 1  13.31693096509651 -0.36070950605061  1.17989282728273
 1  13.25257049304930 -1.86086666776678  1.98697882988299
 1 -14.21570434743474 -0.45294545154515  1.86147335333533
 1 -14.22040340734073 -0.59869679267927  0.07614599459946
 1  12.85617081908191 -2.83647839093909 -0.44027209220922
 1 -13.17466292729273  1.80819533753375  1.61687116011601
 1  14.11565249724973  0.00323760366037 -1.30993687768777
 1  13.15309680268027 -1.47103933103310 -2.29009968596860
 1 -13.69150469446945  1.88176949794979 -1.38257619061906
 1 -12.49059766676668  2.72808487248725 -0.42217910091009
 1  11.79386800680068 -1.00163088918892  3.26268092909291
 1  10.09354521952195 -0.22861237133713  2.73808268926893
 1  11.56985625562556  0.60608034093409  2.49712884788479
 1  10.73847285028503 -3.25955653575358  0.49845523152315
 1  10.73135405240524 -2.92858777587759  2.31848177217722
 1  9.74654065506551 -2.03640463356336  1.20562550555055
 1 -11.46107300730073  0.26718228922892  2.71414530753075
 1 -10.69777428642864 -1.39278643364336  2.65619162316232
 1 -12.37708886788679 -1.38415932093209  3.27507010301030
 1 -13.53030281128113 -2.71758301030103  1.12039654865487
 1 -11.59595264326433 -3.04688671667167  1.05771082708271
 1 -12.78152851085109 -2.86514682268227 -0.29507798179818
 1  9.13348517251725 -0.32822114221422  0.71994617861786
 1 -10.25393512551255 -1.99690341434143 -0.67326695969597
 1  10.16146856585659  0.64177427532753 -2.50993569656966
 1  11.82460089508951  1.44601889278928 -2.77621733573357
 1  11.40365460046005 -0.22340282738274 -3.30838796879688
 1 -11.33499450645064  1.50022325132513 -3.00913240624062
 1 -9.84861040004001  0.47657829482948 -2.31809641564156
 1 -10.31518327332733  2.21684029702970 -1.83801739773977
 1  15.06976352935293 -3.13680258535854  0.33206509950995
 1 -15.32737217221722  1.89575448944894  1.61803000800080
 1  9.95768125012501  2.14011731563156 -0.71246056105611
 1 -8.60280697769777  0.40951304930493  0.18143333033303
 1  8.81286414841484  4.17846769966997 -0.01012731573157
 1  7.11965535453545  4.29206461536154  0.51567740074007
 1  8.58868357835784  3.87870075697570  1.49337235523552
 1 -8.17738476847685 -3.26586351545154 -0.44055989498950
 1 -8.26421217721772 -2.68709772387239 -1.99058538853885
 1 -6.74420326932693 -3.19973362546255 -1.29692648464847
 1  6.84251591459146  0.39533327622762 -0.45887927992799
 1 -6.57505776777678  0.33691353125313 -0.03846622362236
 1  5.45037442144214  2.82970811871187  0.66360861586159
 1 -4.73936775677568 -2.15147645474547 -1.05769316931693
 1  4.41215431443144  0.28678692459246 -0.49333774477448
 1 -4.19132463646365  0.55807092399240  0.00963375937594
 1  3.33451123612361  3.16276031793179  1.68530473147315
 1  1.74751140414041  3.40190886178618  0.89671207920792
 1  3.38065208720872  3.77025485938594 -0.00810130613061
 1 -2.62449458645865 -2.78806595369537 -0.29213225722572
 1 -2.63883339133913 -2.23224434453445 -2.09101306830683
 1 -1.27021382038204 -2.35439561466147 -1.18243127912791
 1  2.24095125312531  0.00472182108211 -0.48123602760276
 1 -2.21592099309931  1.11874179207921  0.35755914291429
 1  0.14041978897890  1.83626633253325  0.71251704670467
 1  0.15606837683768 -0.88565851595160 -0.67656524052405

