%nproc=4
%Mem=2GB
# td=(NStates=1) CAM-B3LYP/6-31G(d,p) 

TD

0 1
 8  14.74827304630463 -2.17669514061406 -0.37654650765077
 8 -14.79102569956996  1.97059891589159  0.94687378137814
 6  11.49616291029103 -1.15523615771577  1.32458581958196
 6 -12.36999463146315 -0.99578213821382  0.77331285328533
 6  12.95387411941194 -1.31273431153115  1.13100067206721
 6 -13.72561517051705 -0.25924208420842  0.79648854485449
 6  13.40706270027003 -1.90910643774377 -0.17509239823982
 6 -13.52826516651665  1.27302010001000  0.80823260726073
 6  11.03534206020602 -0.38343255935594  0.00578633263326
 6 -11.42635973697370 -0.38632966196620 -0.19490024402440
 6  13.14854907390739 -0.84905566266627 -1.25855672867287
 6 -12.82530329032903  1.74417239423942 -0.49114615661566
 6  11.68429317631763 -0.28929930303030 -1.18872738873887
 6 -11.63726731673167  0.81007733073307 -0.82612215121512
 6  11.21244197119712 -0.26870602870287  2.60483092409241
 6  10.77165660666067 -2.49365984708471  1.35719383938394
 6 -11.60023221722172 -0.93205503350335  2.16521510151015
 6 -12.66007670967097 -2.44487993099310  0.40032193619362
 6  9.61687651365136  0.19275031193119  0.11732841284128
 6 -10.17294866186619 -1.08128221322132 -0.49162784378438
 6  11.34563732873287  0.44754921982198 -2.46446065306531
 6 -10.77955039403940  1.47129751375138 -1.90460976797680
 6  9.34142410941094  1.52604604250425 -0.00997637163716
 6 -8.99338982398240 -0.56198975597560 -0.22272331833183
 6  8.01791777777778  2.11746148604860  0.12098776777678
 6 -7.58379352135213 -1.30545487858786 -0.46350168216822
 6  8.19563004400440  3.64832303720372  0.31706307230723
 6 -7.55454656065606 -2.65721546964696 -0.95411558655866
 6  6.90012541954195  1.53757375127513 -0.00268027402740
 6 -6.44683648664866 -0.55723119821982 -0.31418442444244
 6  5.53705425742574  2.07080478737874  0.14340925692569
 6 -5.12351347334733 -1.06208608470847 -0.48582075607561
 6  4.41514544554455  1.25103051695170 -0.10869649864986
 6 -3.95544096409641 -0.28477468356836 -0.31982931293129
 6  3.09350195519552  1.72406300420042 -0.00009834483448
 6 -2.62230599459946 -0.71694602470247 -0.48151581158116
 6  2.82406268726873  3.12348179707971  0.43202591159116
 6 -2.37131262526253 -2.14227152925293 -0.91661270127013
 6  2.11829140414041  0.83369053295330 -0.11847097209721
 6 -1.69813113611361  0.19449915581558 -0.28269009600960
 6  0.61068823782378  1.09773454135414 -0.09943406340634
 6 -0.24749361836184  0.05125302020202 -0.16117375737574
 1  13.36618589058906 -0.43647708280828  1.47968280628063
 1  13.31441667766777 -2.00221080218022  1.95547567956796
 1 -14.26672944994499 -0.43791394839484  1.67857506350635
 1 -14.30273164016402 -0.41031795479548 -0.09038065806581
 1  12.81998720072007 -2.67488223132313 -0.50898896389639
 1 -12.99580504150415  1.52509702770277  1.68550802380238
 1  13.83464439643964  0.14930221012101 -1.14365024902490
 1  13.33198469146915 -1.24342656975698 -2.28481915791579
 1 -13.64287983198320  1.82420374137414 -1.24443237623762
 1 -12.69922852985299  2.84223628762876 -0.42046892989299
 1  11.72265088508851 -0.90480120622062  3.25292995399540
 1  10.08850471547155 -0.20023953405340  2.61720060106011
 1  11.75263453345335  0.88524825772577  2.33838297329733
 1  10.96020502350235 -3.03571415151515  0.24959034503450
 1  11.14787570457046 -3.08176309340934  1.99648957295730
 1  9.63321932293229 -2.35743673677368  1.77308225122512
 1 -11.39619651965196  0.15372094309431  2.51384527752775
 1 -10.63287779677968 -1.37127428242824  2.16248225222522
 1 -12.12301346034604 -1.46691759675968  2.99868246424643
 1 -13.24314409540954 -2.95363661566157  1.30023453245325
 1 -11.79047209520952 -2.90318234623462  0.47748280428043
 1 -13.09623998199820 -2.64557486548655 -0.48638711271127
 1  8.97115893989399 -0.61896021612161  0.46008019201920
 1 -10.13225295729573 -2.22912663666367 -0.56704633763376
 1  10.28425084408441  0.89593969186919 -2.67441214421442
 1  11.88243667866787  1.33601789268927 -2.53324303830383
 1  11.59333356835684 -0.09598008510851 -3.35474260426043
 1 -11.57336834383438  1.72623585258526 -2.76189768276828
 1 -10.04724026302630  0.77644828182818 -2.52648725472547
 1 -10.17904965996600  2.35594420742074 -1.58671226722672
 1  14.81498805180518 -2.92262116721672  0.29758165116512
 1 -15.23033246824683  1.40101501550155  1.49985819081908
 1  10.25730121212121  2.13292659655966 -0.41397071207121
 1 -8.92244894189419  0.49123122112211  0.04170935793579
 1  8.40694355635564  4.06882673557356 -0.72000830383038
 1  7.16411980098010  3.99537494639464  0.62909874287429
 1  8.97564227422742  3.92515540244024  1.11595461346135
 1 -8.44801183118312 -3.13138006710671 -0.27461330033003
 1 -7.92748850485049 -2.72320133423342 -1.96846317631763
 1 -6.64739358835884 -3.22076572867287 -0.70970776277628
 1  6.86223788678868  0.49197294019402 -0.18636202820282
 1 -6.52905316731673  0.44183402330233 -0.05576795379538
 1  5.36659604360436  3.04957010491049  0.32773502850285
 1 -4.76030985098510 -2.19261056815682 -0.77719511951195
 1  4.70433353235324  0.29476772267227 -0.48497690869087
 1 -4.24020952495249  0.68070318721872 -0.16649385338534
 1  3.19412719771977  3.25402944484448  1.35929213021302
 1  1.73767042004200  3.44585325622562  0.72178458645865
 1  3.20131415341534  3.76669450335034 -0.31987248324832
 1 -2.78841097809781 -2.83647079417942 -0.36044908890889
 1 -2.82109161716172 -2.49436055615562 -1.76525049204921
 1 -1.35085188418842 -2.27764793989399 -0.86283931993199
 1  2.27370452845284 -0.11673032413241 -0.45324322832283
 1 -1.94396379737974  1.10298021592159  0.16324971197120
 1  0.36090183718372  2.13698640454045  0.16525232023202
 1  0.20410318031803 -0.95666561666167 -0.44315189918992

