%nproc=4
%Mem=2GB
# td=(NStates=1) CAM-B3LYP/6-31G(d,p) 

TD

0 1
 8  14.66981520052005 -2.22473994509451 -0.39832868586859
 8 -14.70194679167917  1.97768962496250  0.51976107010701
 6  11.31542483648365 -1.15681631573157  1.10860422142214
 6 -12.23392102410241 -0.92513507350735  0.85441096309631
 6  12.81165989798980 -1.60689372747275  1.01623919591959
 6 -13.58223083208321 -0.24949110911091  0.80756965296530
 6  13.21618361236123 -2.05898142524252 -0.33628851785179
 6 -13.48578091809181  1.34870766876688  0.59928171217122
 6  10.90554908090809 -0.32091630773077 -0.09941418741874
 6 -11.24883198419842 -0.35725675467547 -0.16542729672967
 6  12.97943216221622 -0.91283204030403 -1.34681555455546
 6 -12.72884364436444  1.59975795279528 -0.74467150915092
 6  11.66204095109511 -0.16531690479048 -1.18521703770377
 6 -11.59785337533753  0.62933925692569 -0.99758929792979
 6  11.15124585158516 -0.50391955005501  2.43795423642364
 6  10.39425886688669 -2.47457793889389  1.09315743574357
 6 -11.52323451745174 -0.65967779577958  2.30891947194719
 6 -12.47942864486449 -2.34978042104210  0.60201210521052
 6  9.53123794979498  0.25819685658566  0.06584326432643
 6 -10.01637300430043 -1.11755584058406 -0.36174485548555
 6  11.30065283028303  0.63299776467647 -2.41587579457946
 6 -10.75393783278328  1.17477786178618 -2.19049835683568
 6  9.23886385338534  1.62667610551055 -0.18518389238924
 6 -8.77651813681368 -0.49245280228023 -0.15357640364036
 6  8.01343732973297  2.24631437133713  0.11101677067707
 6 -7.52757789978998 -1.31599593269327 -0.40615594759476
 6  8.07540802180218  3.76443464836484  0.66588795479548
 6 -7.65287639363936 -2.74705445354535 -0.92454262926293
 6  6.87711311831183  1.61731172507251 -0.05728573457346
 6 -6.35490729372937 -0.66864233933393 -0.28850185618562
 6  5.53795434743474  2.15195290219022  0.22897781378138
 6 -5.04732585458546 -1.10132000810081 -0.36076825082508
 6  4.49598352935293  1.37359277317732 -0.00261589058906
 6 -3.96568198819882 -0.24397060316032 -0.17974530453045
 6  3.09432203720372  1.69351994989499  0.15220688568857
 6 -2.59927369136914 -0.69835416551655 -0.38730639063906
 6  2.64507478847885  3.02343179207921  0.89482219121912
 6 -2.12094758875888 -2.12590989308931 -0.63596463646365
 6  2.03711328632863  0.83638080198020 -0.13634275927593
 6 -1.63982530553055  0.22578228412841 -0.21781360836084
 6  0.66127329632963  0.99621438933893 -0.00595471547155
 6 -0.23894276327633  0.09388728362836 -0.26522416241624
 1  13.49982925492549 -0.50094352945294  1.38458329632963
 1  12.96409164516452 -2.32848342944294  1.71436156815682
 1 -14.08890166716672 -0.58734889188919  1.71609881588159
 1 -13.97013838083809 -0.68996591959196 -0.01197281728173
 1  12.71920712271227 -2.99251399449945 -0.44226229122912
 1 -12.82650811181118  1.79239375737574  1.60509998299830
 1  13.68779971197120 -0.22564528462846 -1.16258214221422
 1  13.12905439843984 -1.20769299639964 -2.35486616261626
 1 -13.57907345134513  1.40336165716572 -1.41590952395240
 1 -12.63257186418642  2.67094915891589 -0.82714959795980
 1  11.37539615961596 -1.16476720282028  3.37548220922092
 1  10.13329919491949 -0.38984849494950  2.82423130413041
 1  11.42257152715272  0.54225395829583  2.20432956795680
 1  10.54980398339834 -2.90073065316532  0.22953833983398
 1  10.40767168416842 -3.12471738883888  2.11343126712671
 1  9.32476847784779 -2.30894188728873  1.15706064906491
 1 -11.62564946494649  0.40891646264626  2.70200409340934
 1 -10.48997350635064 -0.97682483748375  2.41804780878088
 1 -12.11989314831483 -1.33677458245825  3.10542313831383
 1 -13.17102688368837 -2.97460871287129  1.35465997499750
 1 -11.46934998299830 -2.86394842284228  0.87419247524752
 1 -12.86544690269027 -2.48409871787179 -0.40088856285629
 1  8.82288411241124 -0.29069738983898  0.68701288528853
 1 -10.10210994299430 -2.04749847384738 -0.44586421942194
 1  10.25268768776878  0.91418151605161 -2.41328603160316
 1  12.09066750175018  1.57613190409041 -2.51704141814181
 1  11.59378361336134  0.09525903880388 -3.38093522352235
 1 -11.50420142714271  1.59670289928993 -2.99606109910991
 1 -10.06441198019802  0.50277091409141 -2.51428603460346
 1 -10.21208296329633  1.99543815681568 -1.74250784678468
 1  14.91901845484548 -2.84625353045305  0.34106599959996
 1 -15.40919035403540  1.78557347134713  1.15862406740674
 1  10.11320680268027  2.14984828872887 -0.55308462346235
 1 -8.90273697069707  0.57904000200020  0.01685687268727
 1  9.05642850485049  4.18538839173917  0.15154885188519
 1  7.15588897789779  4.36372178107811  0.14102993599360
 1  7.97035174517452  3.99866275317532  1.91105412341234
 1 -7.92603963396340 -3.05998292739274 -0.02049788878888
 1 -8.36867262326233 -2.87304631873187 -1.65055138513851
 1 -6.64470331933193 -3.20778443054306 -1.20968776077608
 1  7.01837350035003  0.53673741664166 -0.63611700370037
 1 -6.33067332933293  0.40582042194219 -0.16542891989199
 1  5.63294267826783  3.20143529142914  0.59194144914492
 1 -4.63011683168317 -2.19421072817282 -0.38501590159016
 1  4.57801090009001  0.44331257715772 -0.40373878487849
 1 -4.24324982898290  0.84029914681468 -0.06181338533853
 1  3.02359014401440  3.10805484738474  1.91882808380838
 1  1.64202085508551  3.01508017891789  0.99664207220722
 1  3.08157217921792  4.10866870077008  0.29719922392239
 1 -2.37369950695070 -3.02550969806981  0.09764672067207
 1 -2.66643615161516 -2.61452257235724 -1.48289225622562
 1 -1.12821962096210 -2.02041221632163 -0.82832586858686
 1  2.28791594959496 -0.01902055315532 -0.67074497849785
 1 -1.96907630863086  1.36328624652465  0.11037442444244
 1  0.38626437343734  2.11722442834283 -0.00743494849485
 1  0.31265403540354 -0.81610156025603 -0.47950553455346

