%nproc=4
%Mem=2GB
# td=(NStates=1) CAM-B3LYP/6-31G(d,p) 

TD

0 1
 8  14.76848506750675 -2.02803027412741 -0.55303415641564
 8 -14.52655925292529  2.29478133413341  0.82383147714771
 6  11.56210950495050 -0.86936757085709  1.22619598059806
 6 -12.43101073307331 -0.84630719071907  0.71151667366737
 6  13.05661439343934 -1.25031806990699  1.08500607260726
 6 -13.69532214121412  0.00568440844084  0.67374627062706
 6  13.37500949494950 -1.78376390349035 -0.38484337333733
 6 -13.44134647464747  1.50875367336734  0.69289107310731
 6  10.99374790079008 -0.19842405850585 -0.02924717071707
 6 -11.34641174217422 -0.23793482248225 -0.22195294929493
 6  13.00585480448045 -0.87838859595960 -1.46575744874487
 6 -12.62597335733573  1.88278625562556 -0.45998304030403
 6  11.60170491749175 -0.22322269536954 -1.33979249524953
 6 -11.49235282528253  1.00868719171917 -0.74639417841784
 6  11.53550427742774 -0.13394255235524  2.48762920392039
 6  10.78108754975498 -2.22889337043704  1.59052717271727
 6 -11.87605979998000 -1.03569539753975  2.12358093809381
 6 -12.79279998199820 -2.24494993799380  0.12710461446145
 6  9.67625245124512  0.38730976787679  0.16683336333633
 6 -10.16038740574057 -1.11050513551355 -0.56746542754275
 6  10.98941170617062  0.37101156605661 -2.47865207220722
 6 -10.49253169216922  1.58304868886889 -1.73386269326933
 6  9.26001596859686  1.61990542844284 -0.15948132213221
 6 -8.84204468946895 -0.64733829082908 -0.25534658065807
 6  7.96332231823182  2.21177091699170  0.02546821582158
 6 -7.68040318231823 -1.41075540864086 -0.48080341234123
 6  7.98367884888489  3.66845505040504  0.47127849384938
 6 -7.74744585058506 -2.79745949404940 -1.06281645664566
 6  6.82623803080308  1.45190518441844 -0.08174818081808
 6 -6.47203900690069 -0.80897637273727 -0.35604861086109
 6  5.55152570457046  1.87320502740274  0.09247416341634
 6 -5.10114123612361 -1.29274915101510 -0.60431260526053
 6  4.42085601660166  1.06851226512651  0.07230160116012
 6 -3.94701012101210 -0.55168137423742 -0.22956028602860
 6  3.01899450445045  1.52536313421342  0.23373503850385
 6 -2.60592435643564 -0.95228955905591 -0.25208286828683
 6  2.75538581958196  3.04177362626263  0.38484119311931
 6 -2.18755424942494 -2.38672597469747 -0.62373341334133
 6  2.02223179817982  0.58329549344935  0.13250412541254
 6 -1.73814513751375 -0.04024431853185  0.01080925392539
 6  0.61056822582258  0.81800656855686  0.25240112011201
 6 -0.28254712371237 -0.17540964606461  0.02671503150315
 1  13.92359163116312 -0.33319675477548  1.25931076907691
 1  13.33193842984299 -1.97678825992599  1.79869000100010
 1 -14.32906568356836 -0.27872802980298  1.50428763476348
 1 -14.23273464046405 -0.20861778477848 -0.37213883388339
 1  12.92321752375238 -2.78931367446745 -0.46013407840784
 1 -12.60410587158716  1.64166868486849  1.61469094209421
 1  13.80037096909691 -0.12203492359236 -1.52063794779478
 1  12.98161965496550 -1.59862208930893 -2.31368204420442
 1 -13.13680922492249  1.78554987598760 -1.54300223322332
 1 -12.37417602460246  2.90625268926893 -0.49965684868487
 1  12.10359897989799 -0.71912263836384  3.33153781478148
 1  10.48302416741674  0.24190468036804  2.90051893289329
 1  12.06438570857086  0.96806653955396  2.34926406140614
 1  10.89313831683168 -3.05146572667267  0.95379076507651
 1  11.38391930893089 -2.44658957605761  2.45949587358736
 1  9.66843284428443 -2.13997499059906  1.87494243724372
 1 -12.06920382038204 -0.29433386238624  3.04302819581958
 1 -10.91389589858986 -1.58096525152515  2.02472847684768
 1 -12.38395955495550 -2.04941584658466  2.61480407640764
 1 -13.83843362436244 -2.52463371537154  0.69319382838284
 1 -11.94066711471147 -2.93582561056106  0.25046010201020
 1 -12.88995935393540 -2.22172248024802 -1.02921139513951
 1  8.99855167916792 -0.12141046114611  0.87980216421642
 1 -10.48161789378938 -2.12435615961596 -1.12518215121512
 1  9.83194561356136  1.00023012091209 -2.32339704270427
 1  11.68006644164416  1.15075936683668 -2.84861457545755
 1  10.94558879387939 -0.42258274537454 -3.38605573557356
 1 -11.20318132513251  1.92394562356236 -2.52720421342134
 1 -9.99806534553455  0.87171780878088 -2.25407001300130
 1 -9.97835959095910  2.40967958095810 -1.40776437243724
 1  15.30799735273527 -2.66820572567257  0.10656254925492
 1 -14.92118155315531  1.98107302130213  1.75544374937494
 1  10.04540002200220  2.30749405330533 -0.81398071307131
 1 -8.80766746374637  0.44252635063506  0.11577676467647
 1  8.97766062806281  4.09176902980298 -0.06798310131013
 1  7.03742713171317  4.24391980088009  0.09665549854986
 1  8.01467617761776  3.87567045394539  1.56019903790379
 1 -8.69641667166717 -3.44456138523852 -0.64636047504751
 1 -8.11911766776678 -2.77600661476148 -2.20262659265927
 1 -6.84489333833383 -3.40870452255226 -1.07548434043404
 1  6.94064572757276  0.37731147404740 -0.31837522952295
 1 -6.55422568456846  0.24408424832483 -0.04857723472347
 1  5.32276166016602  3.00073522142214  0.27810006500650
 1 -4.89642346234623 -2.27783909100910 -0.74793219321932
 1  4.63026612561256 -0.20276203030303  0.04629621862186
 1 -4.01794729872987  0.60209532643264  0.03384618061806
 1  2.91482926792679  3.16375041694169  1.48927512851285
 1  1.81816846984698  3.39975864676468  0.22250465846585
 1  3.61896591859186  3.50784861876188 -0.23299379537954
 1 -2.36170830783078 -3.12799994709471  0.27811476747675
 1 -2.62639214721472 -2.90654177427743 -1.47777174417442
 1 -1.07444424342434 -2.25725590069007 -0.87794083008301
 1  2.26335349334934 -0.38957760886089 -0.04977288128813
 1 -1.94089349034903  0.96809672757276  0.33422680968097
 1  0.10156590359036  1.65430813671367  0.52446824182418
 1  0.09931270127013 -1.09845979607961 -0.21198878287829

