%nproc=4
%Mem=2GB
# td=(NStates=1) CAM-B3LYP/6-31G(d,p) 

TD

0 1
 8  14.75055327432743 -2.37196466756676 -0.23336218921892
 8 -14.86678327532753  1.90141199719972  0.72854194819482
 6  11.53269656365637 -1.11125175927593  1.25708906990699
 6 -12.38835646764676 -0.96449900990099  0.78957447944794
 6  12.98262699469947 -1.45383842194219  1.13040061206121
 6 -13.70722333133313 -0.25540170017002  0.89131802780278
 6  13.33916591059106 -1.94096962406241 -0.27715260426043
 6 -13.66724906490649  1.19977277527753  0.74714649864987
 6  11.05603412941294 -0.29453366946695  0.05299105310531
 6 -11.38012511351135 -0.44789581858186 -0.19535028902890
 6  13.17272149114911 -0.71765252235223 -1.26074694769477
 6 -12.93584434443444  1.57014499149915 -0.51975901790179
 6  11.73594834183418 -0.27366773987399 -1.13601211721172
 6 -11.60558414841484  0.81189751275127 -0.74482402140214
 6  11.26244697169717 -0.24979413751375  2.58754919591959
 6  10.75833527452745 -2.43105358645865  1.23675179517952
 6 -11.72372456645665 -0.97748957695770  2.33974255425543
 6 -12.55865656765677 -2.43804924792479  0.44177608160816
 6  9.70973579957996  0.38923996089609  0.17331401140114
 6 -10.10560192719272 -1.04828891389139 -0.52362104310431
 6  11.23826659165917  0.43516798169817 -2.36895110211021
 6 -10.80009244824483  1.52768315231523 -1.88371767876788
 6  9.41157112411241  1.53987742564256 -0.18712408640864
 6 -8.80316080108011 -0.43787734473447 -0.38823986998700
 6  8.06580256625663  2.20077981788179 -0.04858918991899
 6 -7.59627476947695 -1.16653098619862 -0.52265759775978
 6  8.09511999299930  3.66844504940494  0.29671103710371
 6 -7.61220232623262 -2.64320406850685 -1.03506368136814
 6  6.88950435743574  1.47233722762276 -0.28375838183818
 6 -6.45276707970797 -0.43785926102610 -0.24051705770577
 6  5.59363991599160  1.96505421232123  0.00612552855286
 6 -5.10996211821182 -1.03864374047405 -0.41387356135614
 6  4.43981791279128  1.25606102000200 -0.16681231023102
 6 -4.04601002100210 -0.18432463856386 -0.16377370737074
 6  3.03640624562456  1.69204980288029  0.02447411241124
 6 -2.68176194019402 -0.64280861096110 -0.41324898489849
 6  2.90957123812381  3.05741519041904  0.47458016701670
 6 -2.47125261926193 -2.05720302240224 -0.95995703570357
 6  2.07895747074707  0.70244740864086 -0.08458758375838
 6 -1.65456677967797  0.17173687958796 -0.05635746274627
 6  0.65386255525553  0.92045681358136  0.25733161316132
 6 -0.20581945094509  0.04343223812381 -0.19589722972297
 1  13.78663793579358 -0.72903633873387  1.42219705770577
 1  13.01157639363936 -2.29427000810081  1.84088422042204
 1 -14.26687946494649 -0.82375253225323  1.65944315031503
 1 -14.34060542754276 -0.50211713471347 -0.07164878487849
 1  12.70085528752875 -2.79802454555456 -0.51933999899990
 1 -12.94665012601260  1.35711022902290  1.56034550755075
 1  13.72885381738174  0.11660894079408 -0.66870275427543
 1  13.37751924492449 -1.08334056115612 -2.25373604960496
 1 -13.75567111111111  1.51553287428743 -1.21469940294029
 1 -12.70465907290729  2.53774583858386 -0.56010289328933
 1  11.74239285928593 -0.45772649874987  3.29743440444044
 1  10.28404426942694  0.04306479637964  2.93097197819782
 1  11.99231850185019  0.63060279317932  2.48543767876788
 1  10.93678268126813 -2.90704128422842  0.38773415941594
 1  10.91065198219822 -2.80456537363736  2.20122004600460
 1  9.50707670867087 -2.34664565766577  1.30360530353035
 1 -11.51933883388339 -0.10726515551555  2.53170706370637
 1 -10.73912842184219 -1.27679483448345  2.23218922292229
 1 -12.46968812781278 -1.48128903390339  3.00397299329933
 1 -13.20475025602560 -2.92087333933393  1.22593710271027
 1 -11.36902995099510 -2.69564159215922  0.40508556455646
 1 -12.89965032303230 -2.52680298829883 -0.68830730473047
 1  8.88275009900990 -0.34164248434843  0.71845602960296
 1 -10.08526825882588 -2.11284500850085 -0.96259589258926
 1  10.25682810181018  0.80970106800680 -2.37127183018302
 1  11.90393882888289  1.38749304020402 -2.71398111211121
 1  11.40769500450045 -0.26075656275628 -3.11756888688869
 1 -11.39196020302030  1.90985421442144 -2.74139563256326
 1 -9.91864740374037  0.94357499449945 -2.22597720372037
 1 -10.24536629162916  2.41351996499650 -1.52129572557256
 1  15.00508706170617 -2.79688859395940  0.57570946394639
 1 -15.41126056105611  1.60891580558056  1.43446165116512
 1  10.42565804780478  2.30039334323432 -0.53374268926893
 1 -8.82661935893589  0.62327442544254 -0.18377319031903
 1  8.71466432843284  4.35111496439644 -0.23538984198420
 1  7.07512090109011  4.06836224512451  0.22462829582958
 1  8.21905661566156  3.58656154305431  1.53450646864686
 1 -7.85323235323532 -3.27427435653565 -0.27444328332833
 1 -8.27158291429143 -2.70638965306531 -1.82861919191919
 1 -6.61257010601060 -2.93215686778678 -1.49649644164416
 1  7.11439310231023  0.41310505340534 -0.48433182518252
 1 -6.58238850085008  0.59297913781378  0.27677530053005
 1  5.47096648064807  2.90765591349135  0.47509976497650
 1 -5.13423724372437 -2.14642594969497 -0.57110451045104
 1  4.65664876387639  0.32951119701970 -0.56774518551855
 1 -4.36199170317032  0.81382649954995  0.12103489948995
 1  3.25110289528953  3.15385942784278  1.45780198119812
 1  1.82004865786579  3.36288495939594  0.29943235123512
 1  3.54865888788879  3.95757359125913  0.06460596459646
 1 -3.00631276827683 -2.76506365346535 -0.49928297229723
 1 -2.93734324232423 -2.14589570967097 -2.03737770477048
 1 -1.42305910491049 -2.41454162926293 -1.11495453145315
 1  2.36594375237524 -0.36093474457446 -0.37570547454745
 1 -2.00556995799580  1.08230814871487  0.33399678667867
 1  0.32263801080108  1.92921562746275  0.54761055605561
 1  0.21068383838384 -0.90684063416342 -0.79323690769077

