%nproc=4
%Mem=2GB
# td=(NStates=1) CAM-B3LYP/6-31G(d,p) 

TD

0 1
 8  14.55409362836284 -2.40256772787279 -0.38773762676268
 8 -14.86292288928893  1.82668452445245  0.72064115811581
 6  11.41432472647265 -1.16029666376638  1.22591595259526
 6 -12.16264389638964 -0.96449900990099  0.83809933193319
 6  12.87437616961696 -1.47204024212421  1.04816238823882
 6 -13.63768637763776 -0.41198735873587  0.84335323132313
 6  13.19497149114911 -2.10118564566457 -0.34095898489849
 6 -13.47242958295830  1.22270506850685  0.73838562256226
 6  10.97592611861186 -0.34068828492849 -0.01315556155616
 6 -11.23829093009301 -0.32407343634363 -0.24374512851285
 6  12.87594181318132 -0.95798655575558 -1.29881075407541
 6 -12.88950971097110  1.55053303030303 -0.47943498549855
 6  11.59232397939794 -0.40574094719472 -1.12522103810381
 6 -11.64757834783478  0.78551487448745 -0.85731527052705
 6  11.40918164516452 -0.21215037313731  2.53171361236124
 6  10.62626206720672 -2.39660014111411  1.42062018201820
 6 -11.54350654465446 -0.85039686768677  2.21946052605261
 6 -12.34469517151715 -2.45997144014401  0.46823872787279
 6  9.62472729872987  0.43787482438244  0.26245292529253
 6 -10.06007737473747 -1.10131421642164 -0.37166584758476
 6  11.05870863586359  0.41674613951395 -2.33399760676068
 6 -10.78055049404941  1.48471885588559 -1.88232753975398
 6  9.33124309130913  1.60704414231423 -0.23561893589359
 6 -8.84353483848385 -0.50717427442744 -0.27218826482648
 6  8.11732771877188  2.28163790369037  0.13788945794579
 6 -7.62276741874187 -1.19387372047205 -0.46381171317132
 6  8.28728920992099  3.83710191509151  0.35479684568457
 6 -7.72422352835284 -2.58088783688369 -0.92674284928493
 6  6.88938434543454  1.60059005290529  0.06869686368637
 6 -6.36391819481948 -0.58324379947995 -0.36978998499850
 6  5.56469702170217  2.20848855575558  0.25909082508251
 6 -5.11572269426943 -0.98604848094809 -0.60586276027603
 6  4.57180111111111  1.37850326422642  0.15018938993899
 6 -4.01192661266127 -0.25844205030503 -0.37462479247925
 6  3.02807541254125  1.74081467936794  0.20273193819382
 6 -2.61116488048805 -0.69352368246825 -0.49586724672467
 6  2.89545982698270  3.24624407330733  0.43353606260626
 6 -2.40648614261426 -2.06023332543254 -0.89710075007501
 6  2.05324489948995  0.77642480638064 -0.00363948894889
 6 -1.55736705970597  0.19617932383238 -0.33909573657366
 6  0.60918808780878  0.98539330723072 -0.08490261026103
 6 -0.18361723072307 -0.01785389048905 -0.31541918191819
 1  13.63718299029903 -0.72970640574057  1.11875671367137
 1  13.27747298329833 -2.37613819491949  1.61399153115312
 1 -14.02898567556756 -0.63955411241124  1.94478168416842
 1 -14.30667203420342 -0.71525844884488  0.12299067906791
 1  12.50397559955996 -2.90223496659666 -0.48491655665567
 1 -13.02185764676468  1.61472599059906  1.85546501950195
 1  13.75608654065407 -0.26768948904890 -1.36155203920392
 1  12.89937143014301 -1.40042226932693 -2.44991566756676
 1 -13.56802234623462  1.24695601660166 -1.31441937493749
 1 -12.60978958595860  2.47974003800380 -0.55302218521852
 1  11.98128674867487 -0.79157988408841  3.24187884888489
 1  10.35107097209721 -0.32258176827683  3.01422030303030
 1  11.89623889388939  0.70857058995900  2.28924805980598
 1  10.39066806980698 -3.04770535063506  0.43103848984899
 1  10.93133405040504 -2.99608452555256  2.34964488848885
 1  9.33132913391339 -2.24068506160616  1.47326226922692
 1 -11.38713561356136  0.10067563856386  2.65430932393239
 1 -10.60875538453845 -1.29468662366237  1.98217422142214
 1 -12.00459161816182 -1.70358126312631  2.81099369536954
 1 -13.04759454045404 -3.02536378837884  1.03408791779178
 1 -11.48706175417542 -3.11036306430643  0.54596965296530
 1 -12.53723408140814 -2.70445075307531 -0.65435390939094
 1  8.85027685168517 -0.14544286438644  0.86608079207921
 1 -10.03425315731573 -2.13932765676568 -0.49589922292229
 1  10.09245166416642  0.47770786868687 -2.20876557955796
 1  11.44862329732973  1.46533082398240 -2.23664337833783
 1  11.31505574057406 -0.03087357445745 -3.34863199319932
 1 -11.26483749074908  1.87120034903490 -2.83741523452345
 1 -10.17847338633863  0.60275091209121 -2.23926853285329
 1 -10.13116487148715  2.20225883888389 -1.48534213021302
 1  14.42764931793179 -3.39460836593659 -0.01144925192519
 1 -15.35847528252825  1.62658757275728  1.50503870887089
 1  10.19556503850385  2.09801310521052 -0.65306462146215
 1 -8.84053075007501  0.56334843284328  0.18857404440444
 1  8.71590445244524  4.32241209410941 -0.51903820682068
 1  7.29965335433543  4.33624903380338  0.45297113011301
 1  8.98023273327333  4.11990487738774  1.19953297129713
 1 -8.54981201120112 -3.10068699779978 -0.18459429842984
 1 -8.34008976497650 -2.65874488858886 -1.84315064506451
 1 -6.66848569756976 -3.21340499259926 -0.75166195819582
 1  7.01961362436244  0.43495723862386  0.05401200920092
 1 -6.38227848984898  0.54445428532853 -0.22418479547955
 1  5.52468185218522  3.18232338023802  0.45592784778478
 1 -4.85943976397640 -1.94245555265527 -1.03041044104410
 1  4.75322842184218  0.27993623952395  0.02047363636364
 1 -4.13712921692169  0.63660877777778  0.12241503750375
 1  3.41223900890089  3.69882392429243  1.29560576157616
 1  1.79956660966097  3.57905657655766  0.46908931693169
 1  3.24198822082208  3.89926776067607 -0.37554805080508
 1 -2.63147528452845 -2.85948309540954 -0.09073211721172
 1 -3.02398190619062 -2.31055217531753 -1.83850781778178
 1 -1.29091589058906 -2.26701687678768 -1.24273730973097
 1  2.30255741374137 -0.30923957505751 -0.28976688068807
 1 -1.85430483148315  1.16768668656866  0.04572795979598
 1  0.26204195119512  2.00557326322632  0.02346814181418
 1  0.15611838183818 -0.95013496359636 -0.64229181318132

