%nproc=4
%Mem=2GB
# td=(NStates=1) CAM-B3LYP/6-31G(d,p) 

TD

0 1
 8  14.73155137413741 -2.19083655475548 -0.48634748774877
 8 -14.90712730973097  1.79567142314231  0.80154924892489
 6  11.57857115111511 -1.16157679177918  1.30623398439844
 6 -12.32230986298630 -1.09925248524852  0.68034355635564
 6  13.03378211021102 -1.49767280538054  1.08905647764776
 6 -13.74551716071607 -0.38870503050305  0.78839773577358
 6  13.33656565056506 -2.05933146024602 -0.35352024102410
 6 -13.54893723372337  1.23573637163716  0.77653943794379
 6  10.97994652065207 -0.45347956405641  0.07410316431643
 6 -11.42595969696970 -0.28180920992099 -0.25360611461146
 6  12.95942016101610 -1.10536129322932 -1.31966283928393
 6 -12.94293505350535  1.73178115511551 -0.57392443444344
 6  11.63313806080608 -0.46560693379338 -1.14793330933093
 6 -11.72869645964597  0.94690101310131 -0.91490102910291
 6  11.52781350835084 -0.35316447454745  2.59607004800480
 6  10.77825726672667 -2.41882236333633  1.46251437143714
 6 -11.70831302530253 -1.14191601960196  2.06331491149115
 6 -12.51211191319132 -2.54547999099910  0.20363226722672
 6  9.63943876987699  0.31917295419542  0.27296397639764
 6 -10.10356172317232 -0.98236232123212 -0.45717439843984
 6  11.04434719971997  0.31490595549555 -2.40516472347235
 6 -10.74431687068707  1.57577796179618 -1.82892219921992
 6  9.36991695869587  1.57161059895990 -0.25642101610161
 6 -8.87341782678268 -0.44532808980898 -0.35191623762376
 6  8.08354434043404  2.31113085298530 -0.05286961796180
 6 -7.58831397339734 -1.19344367746775 -0.53628896089609
 6  8.30340082108211  3.82001020592059  0.33361472747275
 6 -7.70599170517052 -2.68724847294729 -0.95702587758776
 6  6.92351775877588  1.62095208910891 -0.18392839883988
 6 -6.38037984098410 -0.54183965906591 -0.26745975197520
 6  5.49242979497950  2.24587229412941  0.00323523952395
 6 -5.00806192819282 -1.04276415251525 -0.33158533253325
 6  4.43908783978398  1.43879929382938 -0.14967059605961
 6 -4.01225664566457 -0.30078628472847 -0.09301663166317
 6  3.08239084408441  1.81850244814481  0.12550421542154
 6 -2.60771453545355 -0.69683401350135 -0.22963062306231
 6  2.73465374637464  3.24021347024702  0.37152986198620
 6 -2.32026752075208 -2.07323462556256 -0.70882192219222
 6  2.13936351135114  0.87038420232023  0.08263913891389
 6 -1.60968229122912  0.23663336923692  0.02325049804981
 6  0.65396256525653  1.00981574947495  0.10112599259926
 6 -0.23174204320432 -0.04220632573257 -0.05259289928993
 1  13.69260853285328 -0.43391682678268  1.18228306630663
 1  13.19766500250025 -2.31932251335134  1.85607573957396
 1 -14.17341011801180 -0.78605876287629  1.78722592859286
 1 -14.38687005400540 -0.60838776177618 -0.04126574657466
 1  12.78785398739874 -3.05037978107811 -0.50914897989799
 1 -12.80043550455045  1.69923444144414  1.40159963296330
 1  13.62808374037404 -0.19696241634163 -1.18914479847985
 1  13.01839333233323 -1.32414464156416 -2.40713138913891
 1 -13.77601314531453  1.52129345034503 -1.20051798479848
 1 -13.11069967696770  2.78573063706371 -0.39322620562056
 1  11.80593921392139 -0.96732745884588  3.49424408540854
 1  10.47718358335834  0.13143363326333  2.85364424542454
 1  12.15382465246525  0.59147888078808  2.56184531953195
 1  10.87345634863486 -2.92745332543254  0.54441982798280
 1  11.23105402240224 -3.08370328742874  2.26504642864286
 1  9.68068406940694 -2.53842483558356  1.86256119911991
 1 -11.62796969696970 -0.17755218421842  2.30691458445845
 1 -10.89628413741374 -1.66947410241024  2.00637664166417
 1 -12.31105226422642 -1.59440034503450  2.91275387138714
 1 -13.35210499149915 -2.99153040504050  0.69641415041504
 1 -11.63965701370137 -3.22769479747975  0.68123317931793
 1 -12.62473283128313 -2.69957026502650 -0.95077355135514
 1  8.87451927592759 -0.38750707080708  0.80452463646365
 1 -10.16951668366837 -1.84112783678368 -0.84464409740974
 1  10.06950936993699  0.56062616051605 -2.42883758675868
 1  11.57695613061306  1.43285757665767 -2.48287800180018
 1  11.24990922592259 -0.12777326442644 -3.42859998999900
 1 -11.54651565856586  1.99740296929693 -2.63151464446445
 1 -9.93095863486349  0.91978261526153 -2.03744835083508
 1 -10.45077683268327  2.42062067506751 -1.40119371537154
 1  15.05921247424742 -2.71621052615262  0.24300619361936
 1 -15.10031946694669  1.78173308730873  1.72764096909691
 1  10.13008849084908  2.05461876577658 -0.97618693369337
 1 -8.97039373637364  0.54160625862586 -0.08057287028703
 1  8.93666652865287  4.10722057495750 -0.55415171817182
 1  7.34014740374037  4.44624003290329  0.20330616361636
 1  8.72609731973197  4.07361024792479  1.28216123412341
 1 -8.25463249324932 -3.27741467056706 -0.34192003100310
 1 -7.89860561656166 -2.58414742884288 -2.19600593059306
 1 -6.64251310031003 -3.12949660176018 -0.87851464346435
 1  6.81788345134513  0.57846158905891 -0.60619401140114
 1 -6.41969223122312  0.43849368926893  0.17747537053705
 1  5.39325870987099  3.20772592049205  0.50619287428743
 1 -4.81834565456546 -2.08755006210621 -0.61211861186119
 1  4.52865596459646  0.27349559545955 -0.59430784178418
 1 -4.25055055905591  0.70184530143014  0.09466226222622
 1  2.94958274327433  3.66964100600060  1.46614281528153
 1  1.65656230923092  3.51093976487649  0.19368177617762
 1  3.40418444044404  3.71937977187719 -0.34497499349935
 1 -2.58761089808981 -2.74750189728973  0.17535449144915
 1 -3.03591309930993 -2.33773489358936 -1.55891985898590
 1 -1.21059785878588 -2.22327250235024 -1.01550458645865
 1  2.30600775877588 -0.07927657875788 -0.35135303930393
 1 -2.01904130513051  1.33442336023602  0.38905229222922
 1  0.41596734373437  1.96633933983398  0.44553034803480
 1  0.37947071707171 -1.02824277437744 -0.51512909690969

