%nproc=4
%Mem=2GB
# td=(NStates=1) CAM-B3LYP/6-31G(d,p) 

TD

0 1
 8  14.66178439743974 -2.25047251835184 -0.38853770677068
 8 -14.72176877387739  2.01725358135814  0.58864795879588
 6  11.34738803280328 -1.23585421952195  1.16727008800880
 6 -12.40444807680768 -0.93545610561056  0.73807932993299
 6  12.80947967996800 -1.58049108720872  1.11533910591059
 6 -13.67903051205120 -0.32422858285829  0.73167206320632
 6  13.19614160816081 -2.05018054515451 -0.36291118011801
 6 -13.50115245524552  1.32482528052805  0.75032681668167
 6  10.83114164016402 -0.37808202430243  0.00910666466647
 6 -11.33150025102510 -0.30835186418642 -0.16350710471047
 6  13.00445466446645 -0.86356711381138 -1.27466833983398
 6 -12.68815957595760  1.67274525152515 -0.54533157515752
 6  11.66036078307831 -0.18736911001100 -1.07235575157516
 6 -11.57437102710271  0.86998332133213 -0.85566510551055
 6  11.15085581258126 -0.46769592769277  2.48283872487249
 6  10.39970941194119 -2.55002548364837  1.23467158715872
 6 -11.78961115511551 -0.89263109110911  2.30126870687069
 6 -12.50208091009101 -2.43791923492349  0.40627253125313
 6  9.58571339733973  0.34725576247625  0.20567724772477
 6 -10.03661502850285 -1.02780686568657 -0.28617729872987
 6  11.27421018601860  0.60270473537354 -2.30722492949295
 6 -10.53261570057006  1.30859124312431 -1.79858916591659
 6  9.41635160216022  1.66208964686469 -0.05632100610061
 6 -8.79508999399940 -0.53794735173517 -0.19413045904590
 6  8.14286027202720  2.35771551145115  0.09754542354235
 6 -7.61700684268427 -1.35309964306431 -0.35196052805281
 6  8.20381086208621  3.79888809370937  0.49866123212321
 6 -7.52746385238524 -2.76009575767577 -0.79409958495850
 6  6.93139854685469  1.72964295819582 -0.08094810081008
 6 -6.46281808480848 -0.66629210431043 -0.34118712471247
 6  5.52084263626363  2.28063577047705  0.02816773277328
 6 -5.10702182418242 -1.16396627272727 -0.45535770977098
 6  4.48560249124913  1.36743215711571 -0.18719434843484
 6 -3.98286370637064 -0.40294650075007 -0.22083941394139
 6  3.02410501550155  1.73226382428243  0.02399406440644
 6 -2.55999976397640 -0.73454778487849 -0.44174183418342
 6  2.71852213321332  3.12166161506151  0.54318702770277
 6 -2.25073056705671 -2.12562986508651 -0.76134717471747
 6  2.09055863086309  0.86058322222222 -0.26984610961096
 6 -1.56454777777778  0.09839954585459 -0.10599242624262
 6  0.70331750075007  1.04088885678568 -0.18387250725073
 6 -0.20462933193319 -0.03453555865587 -0.29348698869887
 1  13.26319559155916 -0.73082651775178  1.44131896989699
 1  13.00979621562156 -2.29787036813681  1.86915704770477
 1 -14.38940171717172 -0.52057221422142  1.59469667566757
 1 -14.25116648364837 -0.67164408740874 -0.06738835883588
 1  12.71994719671967 -3.06472121522152 -0.66529459445945
 1 -12.81538699969997  1.48942346034604  1.52404187718772
 1  13.80587151915192  0.02783006290629 -0.71140702470247
 1  13.29138063106311 -1.01658388548855 -2.31865254125413
 1 -13.44056960096010  1.45891721272127 -1.43147108010801
 1 -12.37789639663966  2.69154121812181 -0.44037092009201
 1  11.65586420642064 -0.87866859295930  3.37498215921592
 1  10.10819668466847 -0.42921243134313  2.76561544254425
 1  11.65850512051205  0.46552628552855  2.30765990099010
 1  10.46286528952895 -3.26757733783378  0.23100848684868
 1  10.64879579657966 -3.24496941404140  2.11761168516852
 1  9.39433543454346 -2.32601359445945  1.57233217621762
 1 -11.38942584258426  0.11469704070407  2.60999489248925
 1 -10.76716122512251 -1.44008116311631  2.20634663866387
 1 -12.60305146414641 -1.35418632363236  3.18692128812881
 1 -13.36915669666967 -3.01280253225323  0.96459096809681
 1 -11.69306235423542 -3.10396242424242  0.46716177217722
 1 -12.74426478447845 -2.69719002700270 -0.71815028902890
 1  8.68430025402540 -0.19389770987099  0.66294047804780
 1 -10.36143587558756 -2.18139186318632 -0.53878351135114
 1  10.41776419541954  1.23947404530453 -2.22138684168417
 1  12.24147258225823  1.17508179907991 -2.67096681068107
 1  10.94255849084909 -0.12415290239024 -3.21828895889589
 1 -10.82901390839084  2.53718694769477 -2.42295378837884
 1 -10.17765330433043  0.37978861586159 -2.42644725072507
 1 -9.71088284328433  1.83510212321232 -1.40536413241324
 1  14.93160971397140 -2.81797070217022  0.06144803780378
 1 -15.37737717271727  2.12357727172717  1.30330853585358
 1  10.31962744474447  2.41140444434443 -0.49663897889789
 1 -8.67791448844885  0.55847794579458  0.03242842984298
 1  8.97331019301930  4.40601045394540 -0.20786708970897
 1  7.15665905490549  4.35374078297830  0.32679851285128
 1  8.49720443044304  4.06053894079408  1.59831284928493
 1 -7.90956798679868 -3.36998392749275 -0.05466130513051
 1 -8.36666242224223 -2.90906992109211 -1.61634796479648
 1 -6.55726457545755 -3.08294194629463 -1.04381117311731
 1  7.09991165416542  0.52750649354936 -0.33585697769777
 1 -6.59541980398040  0.35878571847185  0.05664328732873
 1  5.41909129312931  3.25654080198020  0.16993924892489
 1 -5.02131595159516 -2.15119642674267 -0.71450885088509
 1  4.64797789678968  0.37357560346035 -0.49918832983298
 1 -4.23320882488249  0.48104322122212  0.22622541854185
 1  3.19231701670167  3.06011005290529  1.71384758575858
 1  1.69048570157016  3.62782145304530  0.30852326032603
 1  3.37785180718072  3.94985281918192  0.02637214121412
 1 -2.70641277827783 -2.70955810291029  0.13681063706371
 1 -2.56059556755676 -2.44773589368937 -1.66117008400840
 1 -1.13497029602960 -2.35688586368637 -0.90932396839684
 1  2.41954911291129 -0.09113776487649 -0.78061596559656
 1 -2.12409181018102  1.00850076797680  0.15377876487649
 1  0.32711845884588  1.98221092699270  0.15414120912091
 1  0.11340411041104 -0.83113306340634 -0.52032961696170

