%nproc=4
%Mem=2GB
# td=(NStates=1) CAM-B3LYP/6-31G(d,p) 

TD

0 1
 8  14.61860007900790 -2.35234270537054 -0.45632448544854
 8 -14.69378597559756  1.98583043904390  0.81177027102710
 6  11.38475176917692 -1.04476511061106  1.20263362436244
 6 -12.24234186618662 -1.05947850785079  0.63359888188819
 6  12.82865159715972 -1.44260729882988  1.03207077907791
 6 -13.63692630163016 -0.21809796979698  0.72458135413541
 6  13.22008400240024 -1.95200072717272 -0.28623351235124
 6 -13.44768710871087  1.32367516551655  0.81290307430743
 6  10.88482700870087 -0.36304052015202 -0.01079532553255
 6 -11.27957505850585 -0.34445547454745 -0.19177993199320
 6  12.95831005000500 -0.87181793889389 -1.28997987098710
 6 -12.71233199319932  1.69341731873187 -0.45062210421042
 6  11.54025877287729 -0.27938831193119 -1.17244576057606
 6 -11.40242383238324  0.78246456945695 -0.82854239323932
 6  11.22917364436444 -0.32622178027803  2.46029647064706
 6  10.51005044604461 -2.33285376647665  1.34457257725773
 6 -11.59589178317832 -1.03150497849785  2.07234581458146
 6 -12.64291499349935 -2.41522696569657  0.31664356835684
 6  9.58880370637064  0.25435647254725  0.22659933993399
 6 -10.05924729172917 -1.10428451345135 -0.49160784178418
 6  11.18807157215721  0.36388085298530 -2.41403561056106
 6 -10.58470090909091  1.51179156315632 -1.79971927892789
 6  9.35082504950495  1.49172261016102 -0.13221859585959
 6 -8.89233971897190 -0.58963252025203 -0.29567061306131
 6  8.05999198519852  2.20279001890189  0.07072274127413
 6 -7.64190933293329 -1.33424775787579 -0.56209154115412
 6  8.15251573257326  3.68939714461446  0.44033539953995
 6 -7.67300840684068 -2.76404615271527 -1.05871604660466
 6  6.87071247824782  1.58887888178818 -0.13100310631063
 6 -6.41679348234823 -0.68369384448445 -0.32264527052705
 6  5.55461601360136  2.12082978987899  0.18513342934293
 6 -5.03254437643764 -1.15781565766577 -0.29001117511751
 6  4.45849978097810  1.41877729162916 -0.09482511151115
 6 -4.01656707670767 -0.40035624172417 -0.15766309630963
 6  3.02909551455146  1.89228982688269  0.05984764976498
 6 -2.59233299729973 -0.72359668976898 -0.24272193219322
 6  2.85000528152815  3.32334178307831  0.45890859985999
 6 -2.31153664766477 -2.19941724382438 -0.40560160016002
 6  2.09724929992999  0.92188935283528 -0.11226035103510
 6 -1.57870919391939  0.25191489738974 -0.20226205320532
 6  0.68789595859586  1.00174494239424 -0.04509862986299
 6 -0.21761063006301  0.01712960786079 -0.24794243424342
 1  13.46801607360736 -0.65765920102010  1.39802464046405
 1  12.94703993999400 -2.20770135123512  1.85110524252425
 1 -14.23278605560556 -0.73493365036504  1.45423262926293
 1 -14.36848821582158 -0.45212213521352 -0.15235685568557
 1  12.62888809080908 -2.88104284738474 -0.67255532053205
 1 -12.95587104810481  1.48918343634363  1.72657213021302
 1  13.70368130013001  0.03416069596960 -1.16671255525553
 1  13.00994248724872 -1.25689791689169 -2.27720839683968
 1 -13.22168771277128  1.72911423242324 -1.29344727772777
 1 -12.11247985498550  2.74532659665967 -0.55659254225423
 1  11.57656627662766 -0.80189091519152  3.46218087908791
 1  10.12515838083809 -0.02170168026803  2.61721060206021
 1  11.66267553755375  0.64210394329433  2.70109924492449
 1  10.84036303930393 -2.72698327842784  0.41211659765977
 1  11.08189910691069 -2.89436435353535  2.09555947994800
 1  9.46070207120712 -2.12594358745875  1.46912185518552
 1 -11.34934183418342 -0.04233866286629  2.35090898389839
 1 -10.76467097609761 -1.59902705770577  2.08310431443144
 1 -12.55495665466547 -1.32951385638564  2.74161675767577
 1 -13.57332711371137 -2.68273952595260  0.89172368136814
 1 -11.91710475847585 -3.27185921392139  0.91393644964496
 1 -12.76468682668267 -2.41213152115211 -0.84892336633663
 1  8.79184100810081 -0.27573589368937  0.79512369636964
 1 -10.10020975297530 -2.15608933293329 -0.61606123912391
 1  10.28036045504550  0.77185728362836 -2.45434013701370
 1  11.74979341434143  1.29438372927293 -2.29058877287729
 1  11.35129936493649 -0.29947043414341 -3.32864999499950
 1 -11.37365837283728  1.87539076807681 -2.62550404340434
 1 -9.82970850985099  0.98801943894389 -2.43561816781678
 1 -9.96290804580458  2.34317293029303 -1.46699029502950
 1  14.73309986298630 -3.06561546664667  0.19398129112911
 1 -15.29745918091809  1.77582249624963  1.54162236723672
 1  10.02934841684168  2.09522282618262 -0.40620993599360
 1 -8.77948464546455  0.51931402940294 -0.23574838783878
 1  8.61808467046705  4.24345419831983 -0.39504580758076
 1  6.98623201220122  3.87603301220122  0.59208504150415
 1  8.83156786678668  3.92971585848585  1.28347136513651
 1 -8.10277730773077 -3.27607453655365 -0.40890672967297
 1 -8.05594135013501 -2.68615762986299 -2.13184951495150
 1 -6.64916376537654 -2.93510716281628 -1.06829362136214
 1  6.84120578357836  0.61196493939394 -0.61788518051805
 1 -6.58734899689969  0.30693053295330  0.29239686268627
 1  5.39623900790079  3.15670081798180  0.57807006200620
 1 -4.78515233523352 -2.27111841894189 -0.48431583158316
 1  4.51826492549255  0.20381862776278 -0.36563497449745
 1 -4.32679818381838  0.65127024392439 -0.07642484648465
 1  3.34971275627563  3.38514255615562  1.43793999499950
 1  1.75958261126113  3.53490216111611  0.48760116811681
 1  3.51383540554055  4.13247108100810 -0.13630412641264
 1 -2.69492162916292 -2.85539268636864  0.42325928192819
 1 -2.76938644664466 -2.53214433453345 -1.40631459845985
 1 -1.21421822082208 -2.33396357145714 -0.66858989498950
 1  2.66513367136714  0.01622297119712 -0.34845274927493
 1 -2.01302070307031  1.32379229712971  0.07357074407441
 1  0.14277002400240  2.00176288218822  0.10000579557956
 1  0.11191396139614 -0.89888983908391 -0.52973055705571

