%nproc=4
%Mem=2GB
# td=(NStates=1) CAM-B3LYP/6-31G(d,p) 

TD

0 1
 8  14.86914513351335 -2.07280475157516 -0.44283313631363
 8 -14.89141573857386  1.92157401340134  0.61196029002900
 6  11.46423971797180 -1.03378401250125  1.25245860686069
 6 -12.40436806880688 -0.92039459945995  0.76205172717272
 6  13.04169290129013 -1.37515055315532  1.14323189518952
 6 -13.74828743774377 -0.28412457245725  0.57982687868787
 6  13.47348934293429 -1.89407493459346 -0.32756764576458
 6 -13.57166950695069  1.22239503750375  0.73919570357036
 6  11.05559408540854 -0.39244346044604 -0.04158840484048
 6 -11.40032713371337 -0.27419844884488 -0.25355610961096
 6  13.11456567556756 -0.80976173327333 -1.32276314931493
 6 -12.80354111411141  1.76194417141714 -0.54587162916292
 6  11.71495624262426 -0.30665103820382 -1.21573008900890
 6 -11.59445303530353  0.88787511051105 -0.83615315431543
 6  11.29701042804280 -0.15248440654065  2.44937537853785
 6  10.63971341234123 -2.38036851795180  1.23576169616962
 6 -11.85583777777778 -0.77056888488849  2.18516709670967
 6 -12.65653635563556 -2.43630907390739  0.51691359535954
 6  9.73071789778978  0.38139917681768  0.14543122312231
 6 -10.07594896189619 -0.98545263026303 -0.35619430043004
 6  11.25737850285029  0.52165663056306 -2.46053026002600
 6 -10.74365680468047  1.61433181718172 -1.85385469246925
 6  9.33518348534853  1.59150258815882 -0.07639301330133
 6 -8.78130861586159 -0.45203876087609 -0.24957600360036
 6  8.03581956795679  2.17980772067207  0.15639130813081
 6 -7.59238438043804 -1.24731906500650 -0.46829216121612
 6  8.02354283528353  3.67451565646565  0.46954832083208
 6 -7.66423752975297 -2.70424017211721 -0.69720989598960
 6  6.88464387138714  1.41043103700370 -0.00909091509151
 6 -6.48802060506051 -0.61826730183018 -0.26886989298930
 6  5.57042759475948  1.99043675057506  0.18919383538354
 6 -5.13517463946395 -1.05556543264326 -0.43039521352135
 6  4.46363029402940  1.17515292919292 -0.16146177517752
 6 -3.99827524752475 -0.28362456855686 -0.35648297829783
 6  3.14749735473547  1.53907450535054  0.12516418141814
 6 -2.63743750775078 -0.72083641374137 -0.36496415641564
 6  2.78331861286129  2.89460890979098  0.63890659965997
 6 -2.26193168716872 -2.17218452055205 -0.82124316431643
 6  2.14700427542754  0.61349851375138 -0.15296442144214
 6 -1.69737106010601  0.13960366626663 -0.03588541554155
 6  0.70151732073207  0.81787655555556 -0.01386550655066
 6 -0.26476534553455 -0.13788589368937 -0.22605024502450
 1  13.62800207220722 -0.55968940404040  1.33203804180418
 1  13.23059829582958 -2.14914549564956  1.85906603860386
 1 -14.54223700070007 -0.62263242024202  1.38955616161616
 1 -14.07956932393239 -0.40784770777078 -0.53204482448245
 1  12.95933113511351 -2.69471421452145 -0.54249231423142
 1 -13.31145660666067  1.58038255625563  1.68859833283328
 1  13.74146507850785 -0.09054177427743 -1.22754863886389
 1  13.21254274727473 -1.18116034313431 -2.23117379337934
 1 -13.53390893489349  1.64648596959696 -1.34317225022502
 1 -12.46968557555756  2.73191525552555 -0.21728861186119
 1  11.81231985198520 -0.70684141024102  3.27602226322632
 1  10.23317918291829  0.11034152405241  3.04943382438244
 1  11.86047531753175  0.70875060796080  2.52475161016102
 1  10.72870187318732 -2.95130571067107  0.23233861986199
 1  11.07997891489149 -3.04725964306431  1.95924584858486
 1  9.60714671567157 -2.29506049914992  1.40856579957996
 1 -11.73109000900090  0.35389096009601  2.22937683068307
 1 -10.95740024902490 -1.28645580058006  2.10560656465647
 1 -12.51004216321632 -1.24658556355636  2.97083967996800
 1 -13.56710649164916 -2.95303655565557  1.07778228722872
 1 -11.68298134613461 -2.95879790779078  0.55459051505151
 1 -13.09089944794480 -2.86190649864986 -0.41387986198620
 1  9.03712553655365 -0.14721304140414  0.77308149214921
 1 -10.21543127512751 -2.00842456645665 -0.48314794779478
 1  10.15966838583858  0.37823792169217 -2.51486618961896
 1  11.60456889188919  1.59758404930493 -2.55617533153315
 1  11.35037927292729 -0.31103159025903 -3.22736986698670
 1 -11.30729173617362  2.34828805780578 -2.45712720572057
 1 -10.28705424442444  0.98767940494049 -2.45829043504350
 1 -10.00309206420642  2.19030764376438 -1.30793438943894
 1  15.20861741474147 -2.75999490459046  0.24026591959196
 1 -15.35083451845185  1.73178809280928  1.60446865186519
 1  10.12462794479448  2.54840814471447 -0.51260057505751
 1 -8.58236493349335  0.59421151915192 -0.21638645164516
 1  8.18160102210221  4.30004985788579 -0.47853415641564
 1  6.90623401240124  3.94956036493649  0.63769960296030
 1  8.66786149614961  3.85160804770477  1.36535955395540
 1 -8.14164119411941 -3.10847777687769  0.13438759975998
 1 -8.28890464646465 -2.87644665876588 -1.58358468846885
 1 -6.71004985398540 -3.21923557565757 -0.63113990599060
 1  6.92143380638064  0.38383212611261 -0.46725011701170
 1 -6.46950721272127  0.59575941584158 -0.13273565056506
 1  5.45079446344634  2.92171731963196  0.53028528352835
 1 -5.05706952695270 -2.18790009710971 -0.61614901490149
 1  4.70976407540754  0.44303254915492 -0.70457886888689
 1 -4.16234173817382  0.80572568946895 -0.32908011201120
 1  3.41234901990199  2.92247628952895  1.46228242924292
 1  1.74756140914091  3.19415808670867  0.78372078007801
 1  3.25992001400140  3.61471930583058 -0.04051454745475
 1 -2.60909304630463 -2.83631077817782 -0.05438848284828
 1 -3.10421992999300 -2.35461658175818 -1.82553652065207
 1 -1.16724352335233 -2.59447962306231 -1.26451948794879
 1  2.32760991899190 -0.49276792789279 -0.45558346234623
 1 -2.14091349234923  1.13897381528153 -0.06239285228523
 1  0.28318406540654  1.88131083698370  0.17759355435544
 1  0.04408717871787 -1.13905385548555 -0.38292587658766

