%nproc=4
%Mem=2GB
# td=(NStates=1) CAM-B3LYP/6-31G(d,p) 

TD

0 1
 8  14.56695491449145 -2.44246171727173 -0.50280913391339
 8 -14.69810640764076  1.98565042104210  0.62863195719572
 6  11.40889418341834 -1.10590122422242  1.11533489448945
 6 -12.24187181918192 -0.92869542954295  0.74987050905091
 6  12.85987471947195 -1.43472651075107  0.93906147814781
 6 -13.62287489648965 -0.20572673267327  0.75112400840084
 6  13.22964495849585 -2.08836436353635 -0.27431232023202
 6 -13.49824216421642  1.24734753275328  0.57327911191119
 6  10.83653217921792 -0.39456367246725 -0.17188143414341
 6 -11.29886698769877 -0.39716074507451 -0.26857761176118
 6  12.90122434143414 -1.11507226432643 -1.45486635963596
 6 -12.78730949094910  1.62890086708671 -0.69626666866687
 6  11.57348209520952 -0.25638601170117 -1.24216273227323
 6 -11.57036062606261  0.82799912291229 -0.90755029402940
 6  11.29343007000700 -0.22253141124112  2.37185762676268
 6  10.62174161516152 -2.48508898999900  1.33519163916392
 6 -11.55912810681068 -0.83943577157716  2.08385696569657
 6 -12.53093379537954 -2.41496693969397  0.33797570157016
 6  9.49957478347835  0.31543258015802  0.17205388538854
 6 -10.08702006900690 -1.18926301130113 -0.47104578557856
 6  11.18507127212721  0.35322978787879 -2.48514272127213
 6 -10.59099153815382  1.38962934693469 -1.94586389338934
 6  9.29721968896890  1.61064450235023 -0.16908228222822
 6 -8.86019650465047 -0.59122267926793 -0.38822986898690
 6  8.04177016301630  2.33250299019902  0.08510417941794
 6 -7.54257939993999 -1.36831116421642 -0.49497482948295
 6  8.25097557855786  3.84548275317532  0.42605397139714
 6 -7.65269637563756 -2.77742749084909 -0.92287246224622
 6  6.87397280428043  1.75161515541554 -0.13553355935594
 6 -6.41420322332233 -0.69268474357436 -0.22551555755576
 6  5.55487603960396  2.22521022792279  0.27108202420242
 6 -5.06770789278928 -1.14825470157016 -0.16955912991299
 6  4.47528145914591  1.47335274917492  0.16281065206521
 6 -3.95672109210921 -0.33819002510251 -0.03806113611361
 6  3.07826043104310  1.82457305520552  0.35457712271227
 6 -2.60143390739074 -0.81651598169817 -0.29187684768477
 6  2.74318459945995  3.28885833473347  0.82045475447545
 6 -2.21401689568957 -2.11768907100710 -0.76934797479748
 6  2.04722429742974  0.97179434333433  0.11857273227323
 6 -1.61705302830283  0.13662336823682 -0.01523335033503
 6  0.68032520152015  1.05127989588959  0.12708858885889
 6 -0.15133400240024  0.03970186508651 -0.14719235923592
 1  13.54401367336734 -0.44387782288229  1.00078491649165
 1  13.16984222022202 -2.03109369046905  1.82704283628363
 1 -14.17165994299430 -0.56765692269227  1.67853505950595
 1 -14.42447381438144 -0.67304422742274 -0.09101072107211
 1  12.59896509850985 -3.06253099619962 -0.49380744574457
 1 -12.84003946494649  1.80702522052205  1.24901437443744
 1  13.70229116111611 -0.32459517961796 -1.63851973597360
 1  12.82751424442444 -1.76363859095910 -2.35854653065307
 1 -13.40923646764676  1.73299462046205 -1.52016994999500
 1 -12.71240984798480  2.61620368436844 -0.56070295329533
 1  11.95937455745575 -0.53973469956996  3.32683734473447
 1  10.23150901590159 -0.03303281338134  2.85682456345635
 1  11.70415968596860  0.93891362426243  2.23618275327533
 1  10.50845984898490 -3.03050363046305  0.24719010501050
 1  11.00629154615462 -3.03856877397740  2.45173509750975
 1  9.64402040304030 -2.35022601570157  1.58472341534153
 1 -11.18812571257126  0.23840941194119  2.26968086108611
 1 -10.54424893389339 -1.45768292329233  1.92084808880888
 1 -11.90694185318532 -1.43761466646665  3.01002359835984
 1 -13.20931071207121 -2.94118537053705  1.07667217621762
 1 -11.77597064506451 -3.17463949194919  0.24200925692569
 1 -13.31990234823482 -2.25212552055205 -0.60390886488649
 1  8.74093591759176 -0.10684900500050  0.71770595459546
 1 -10.11053078507851 -2.25746947094710 -0.69119875287529
 1  10.15020743974397  0.79811990989099 -2.49301400440044
 1  11.89583801880188  1.27255154605461 -2.78304801880188
 1  11.17744197919792 -0.38010849794979 -3.27501463146315
 1 -11.29065007200720  1.75917914691469 -2.70417191019102
 1 -9.97026256525653  0.68212884988499 -2.45768037403740
 1 -9.95412716771677  2.23906251925193 -1.58417201320132
 1  14.88691524452445 -3.10167907300730  0.14824671767177
 1 -15.16901633663366  1.61940685468547  1.43854205920592
 1  10.19034451645165  2.11230453435344 -0.33334264926493
 1 -8.96140283728373  0.30366246424642 -0.07371218421842
 1  9.02227508950895  4.32577243014301 -0.29692599559956
 1  7.29025241424142  4.53762917181718  0.21835766876688
 1  8.49017372737274  4.05903879077908  1.63239625762576
 1 -8.33774080408041 -3.19536646574657 -0.12310814981498
 1 -8.17475323132313 -2.91060007410741 -2.05858218821882
 1 -6.77378622762276 -3.42253590569057 -0.77646443844385
 1  6.81894355735573  0.69380312321232 -0.64910830283028
 1 -6.47748801080108  0.27550739063906  0.07891551455145
 1  5.38343772777278  3.23558870677068  0.58683093809381
 1 -4.99999381938194 -2.06370767786779 -0.77473487348735
 1  4.57169026802680  0.34832307820782 -0.04631304230423
 1 -4.16024152815282  0.82836795369537  0.14617741374137
 1  3.17253503850385  3.59854389628963  1.90811701270127
 1  1.61058771177118  3.47432610351035  0.83387579557956
 1  2.99525354735474  4.05238307220722  0.06453595759576
 1 -2.80378251525153 -2.93820096719672 -0.11810485448545
 1 -2.72693220122012 -2.39183030313031 -1.72089605660566
 1 -1.27963476247625 -2.53200337543754 -0.65024806080608
 1  2.38488564656466 -0.05076372747275 -0.44997290129013
 1 -2.04771417241724  1.17701761966197  0.18510189718972
 1  0.40886663366337  2.00562326822682  0.57397319231923
 1  0.45956872687269 -0.81669161926193 -0.44672225622562

