%nproc=4
%Mem=2GB
# td=(NStates=1) CAM-B3LYP/6-31G(d,p) 

TD

0 1
 8  14.76515473447345 -2.26441391249125 -0.40820967396740
 8 -14.85453205020502  1.98338019401940  0.93427252125213
 6  11.60381367536754 -0.96157679177918  1.31471483248325
 6 -12.37673530553055 -0.98498105810581  0.82385790779078
 6  13.11376010801080 -1.23073611171117  1.08992656465647
 6 -13.75869847884788 -0.23567972797280  0.79065796179618
 6  13.45725771977198 -1.92646817391739 -0.16086097509751
 6 -13.55729806980698  1.32631542954295  0.91004278827883
 6  10.93081160716072 -0.25808002410241  0.10663641764176
 6 -11.33961106210621 -0.19541057005701 -0.03764451845185
 6  12.96928114711471 -0.90670142724272 -1.25752662566257
 6 -12.83871463146315  1.79517749474947 -0.34978202020202
 6  11.58376312331233 -0.41483185628563 -1.08409692569257
 6 -11.60526411641164  1.00918724172417 -0.64702424142414
 6  11.42257298429843 -0.02885204330433  2.55418585958596
 6  10.82022146314631 -2.30807128822882  1.63502162216222
 6 -11.70200239423942 -1.01739356735674  2.13745232523252
 6 -12.58768947094710 -2.45454089708971  0.24648655265527
 6  9.57805263126313  0.36754779167917  0.27296397639764
 6 -10.14063543054306 -0.88719280428043 -0.44357303830383
 6  11.16442920792079  0.22199666456646 -2.30312451945194
 6 -10.61650408940894  1.54315469946995 -1.63481278827883
 6  9.36544651165116  1.60553399129913 -0.18283365736574
 6 -8.85583606860686 -0.51415497249725 -0.33276432243224
 6  8.08186417241724  2.27321706160616 -0.16368069906991
 6 -7.57660280228023 -1.25811014411441 -0.65469080108011
 6  8.06631711271127  3.79187739263926  0.32753411941194
 6 -7.73757486348635 -2.67824757285729 -1.16685686068607
 6  6.86359176617662  1.49744973887389 -0.19131913791379
 6 -6.40745254825483 -0.61754722982298 -0.29428243424342
 6  5.56268682068207  2.02617032393239  0.11714663066307
 6 -5.09825094709471 -1.12875275137514 -0.62837501150115
 6  4.50865479647965  1.21244665856586 -0.10269589858986
 6 -3.96370179017902 -0.39513571967197 -0.39485681568157
 6  2.97919052405241  1.53606420432043  0.14687635263526
 6 -2.62472623662366 -0.82078640874087 -0.55321298129813
 6  2.81013129412941  2.93049249814981  0.63766647564756
 6 -2.46126162016202 -2.26686398849885 -0.82202324232423
 6  2.06717629262926  0.74520168406841 -0.20477960296030
 6 -1.68327965096510  0.08975868176818 -0.30188201520152
 6  0.64624179317932  0.89160392829283 -0.09023314331433
 6 -0.19046791579158 -0.06013811891189 -0.44944258425843
 1  13.73624289628963 -0.45442887798780  1.33164800280028
 1  13.47578281428143 -1.95640622172217  1.79850998299830
 1 -14.34778755575558 -0.73357351435144  1.60088729472947
 1 -14.13355472247225 -0.52767969096910 -0.27636925692569
 1  13.00743594559456 -2.90175491859186 -0.30387845284528
 1 -12.96793225422542  1.44115863386339  1.70686015901590
 1  13.83427435943594 -0.14727744784478 -1.38879476347635
 1  13.09773126612661 -1.52150437753775 -2.25732640864086
 1 -13.65956150015001  1.86659798079808 -1.20953888688869
 1 -12.40748935593559  2.76902896689669 -0.37323420642064
 1  12.00015863586359 -0.47332805890589  3.32213687468747
 1  10.40590645564557 -0.11467097719772  2.83302218321832
 1  12.03182245224522  0.99356908980898  2.35107424242424
 1  11.09899890289029 -3.13950453055305  0.81942732873287
 1  11.07793871087109 -2.91314623172317  2.55445536953695
 1  9.69356535753575 -2.05609660276028  1.49312425542554
 1 -11.74343124312431 -0.03582801180118  2.55948984198420
 1 -10.71355586458646 -1.59624677967797  2.14834083808381
 1 -12.22515367436744 -1.62528343334333  2.66108870487049
 1 -13.47283706470647 -2.96143739573957  0.88646315531553
 1 -11.70469351735174 -3.11298332633263  0.38960401640164
 1 -12.88157851585159 -2.55245555355536 -0.82139061306131
 1  8.59599142314231 -0.17166548664866  0.82455663966397
 1 -10.50740047204721 -1.98098182218222 -0.76965659865987
 1  10.07946036503650  0.81988208610861 -2.26657136013601
 1  11.70929936493649  1.27965225612561 -2.58262797679768
 1  11.28117235223522 -0.33644413151315 -3.19530666066607
 1 -11.28071907890789  1.76542977197720 -2.37218871187119
 1 -10.10731627062706  0.57573821082108 -1.90459506550655
 1 -10.02224397939794  2.20699931293129 -1.23750734673467
 1  15.02057861086108 -2.94983388848885  0.29061095409541
 1 -15.41267070207021  1.76066098009801  1.67501570657066
 1  10.29068455045505  2.20276358025803 -0.62441175617562
 1 -8.79479617661766  0.40767286528653  0.14134932193219
 1  8.77715057705771  4.18541839473947 -0.34789109210921
 1  7.13409679867987  4.31157656655666  0.38880471347135
 1  8.50143485348535  3.85522840974097  1.20099311731173
 1 -8.60714774477448 -3.30352728182818 -0.60453629262926
 1 -7.95598135413541 -2.54106312041204 -2.23988031803180
 1 -6.67818666766677 -3.23075672777278 -1.13682047404740
 1  6.76704836783678  0.41288503140314 -0.46192958495850
 1 -6.60556081808181  0.46035587548755  0.00012763576358
 1  5.35238462246225  2.99963511141114  0.62607486248625
 1 -4.99284310431043 -2.14133544064406 -0.98965636563656
 1  4.82422552155215  0.23207145304530 -0.61490990199020
 1 -4.00078558255826  0.68450356725673 -0.18501570557056
 1  3.45390317531753  3.14395843774377  1.70739694069407
 1  1.71661831483148  3.10323899479948  0.78965137313731
 1  3.14440846284629  3.68581641554155 -0.28325882188219
 1 -2.87151928892889 -2.81394854195420 -0.09774281828183
 1 -3.09332884088409 -2.55257637773777 -1.60384435143514
 1 -1.28456525552555 -2.25794596969697 -0.94483751975198
 1  2.12852001000100 -0.26322497359736 -0.65376328032803
 1 -1.90550995199520  0.97511742964296  0.06787017401740
 1  0.35995174217422  1.88844155005501  0.09052484748475
 1  0.35432820282028 -1.00671062116212 -0.65532311631163

