%nproc=4
%Mem=2GB
# td=(NStates=1) CAM-B3LYP/6-31G(d,p) 

TD

0 1
 8  14.78774699369937 -2.28104557565757 -0.36668552155216
 8 -14.85885248224822  2.03321517751775  0.67477657165717
 6  11.57025031903190 -1.03831446554655  1.23334669566957
 6 -12.34294192619262 -0.95279783978398  0.69470499249925
 6  13.05251398339834 -1.42933597169717  1.13449102110211
 6 -13.68703131213121 -0.17069322932293  0.76438533453345
 6  13.46378837283728 -1.89986551365137 -0.25117000600060
 6 -13.64087642764276  1.32260505850585  0.78414019801980
 6  11.08993751975198 -0.20938515461546 -0.03739798579858
 6 -11.31782888388839 -0.23480450945095 -0.18649940394039
 6  13.24746896589659 -0.67226798389839 -1.20667154015402
 6 -12.92855361536154  1.71835981298130 -0.56851389338934
 6  11.84294904190419 -0.07063743684368 -1.18207672367237
 6 -11.61594518451845  0.96406272927293 -0.82519205820582
 6  11.23740446744675 -0.34046320442044  2.51548198919892
 6  10.64217365836584 -2.41092157325733  1.21642976297630
 6 -11.78606080008001 -1.00505233323332  2.21870045004500
 6 -12.71931263326333 -2.37369281228123  0.18061996599660
 6  9.77297212321232  0.38144918181818  0.10883756375638
 6 -10.15950731773177 -0.98915300030003 -0.31946062706271
 6  11.51470423542354  0.67070153505351 -2.47441164816482
 6 -10.82004444344435  1.65348573257326 -1.82838214521452
 6  9.29010897789779  1.65011844974497 -0.25485085908591
 6 -8.86599708470847 -0.47006056305631 -0.21823286928693
 6  7.96626261226123  2.17056679657966  0.06052172117212
 6 -7.58168331033103 -1.26186051915192 -0.31532686468647
 6  7.99032951395140  3.63453165806581  0.29911127712771
 6 -7.69858096409641 -2.69024877297730 -0.75319549454945
 6  6.96104151115112  1.34774476837684 -0.01757176317632
 6 -6.46646844984498 -0.64039951505150 -0.29807281328133
 6  5.53632418441844  1.84079178607861  0.13493840984098
 6 -5.12121324332433 -1.14139401550155 -0.36217839183918
 6  4.37793172417242  1.16909232313231 -0.05943157215722
 6 -4.06344176417642 -0.39612581868187 -0.21055838583858
 6  3.09965257025703  1.57260785868587  0.07982964796480
 6 -2.68222198619862 -0.80397472757276 -0.25172283228323
 6  2.71765204620462  2.94896434533453  0.49660236923692
 6 -2.41831732573257 -2.25372267436744 -0.69479051905191
 6  2.15393496849685  0.68025518941894 -0.20309943494349
 6 -1.68845016801680  0.12056176207621 -0.14810663766377
 6  0.74181135013501  0.86009077697770  0.03020890089009
 6 -0.26014488348835 -0.05106721182118 -0.35122276227623
 1  13.45201447344735 -0.60125356045605  1.44825966396640
 1  13.37069230523052 -2.20196077717772  1.83009314131413
 1 -14.33716649364936 -0.74879503650365  1.62752995899590
 1 -14.43054442144214 -0.46781370437044 -0.12402402240224
 1  12.72929813181318 -2.66893163626363 -0.52413047804780
 1 -12.95619108010801  1.60748526652665  1.69717919091909
 1  13.87488842084209  0.06511379127913 -1.09078496249625
 1  13.60747224022402 -1.05618784588459 -2.19640031603160
 1 -13.67898344234423  1.30127144814482 -1.33778171117112
 1 -12.85415402240224  2.76363842784278 -0.59663654665467
 1  11.75638425842584 -0.88204893099310  3.46586124712471
 1  10.18686455145515 -0.12400191029103  2.67399628062806
 1  11.87292656265627  0.55831556445645  2.72876201120112
 1  10.62988199119912 -2.94617519761976  0.25127051305131
 1  10.97965888288829 -2.93515843294329  1.95728565256526
 1  9.62669867086709 -2.23174416751675  1.45427037003700
 1 -11.70903780378038  0.12732830383038  2.51612550555055
 1 -10.78459296829683 -1.68010516551655  2.10940694469447
 1 -12.44599575857586 -1.40903180818082  2.66585918191819
 1 -13.60357013801380 -2.97515876787679  0.44952946194620
 1 -11.78234128212821 -3.10547257525753  0.39838489448945
 1 -12.84653501150115 -2.52543285128513 -0.85729420342034
 1  8.96822864686469 -0.35803412351235  0.57467165116512
 1 -10.13130286228623 -2.02455617961796 -0.43895352835284
 1  10.33737615661566  0.96047614551455 -2.40232493549355
 1  12.16491492649265  1.37489178007801 -2.66285599959996
 1  11.75765000000000 -0.09516000310031 -3.24385151515152
 1 -11.25943695069507  1.92839606860686 -2.79593108610861
 1 -10.08737427642764  0.85633627062706 -2.22122672867287
 1 -10.42214396939694  2.54761337433743 -1.37097069306931
 1  14.88675522852285 -2.85452435753575  0.35467736073607
 1 -15.49926936193619  1.77475238923892  1.43637184218422
 1  10.02392787478748  2.33115641954195 -0.47959727472747
 1 -8.77398409540954  0.56709880788079  0.06831201820182
 1  8.51527438943894  4.37921777467747 -0.26611291429143
 1  7.07983137213721  4.16349175807581  0.58231406440644
 1  8.46316102610261  3.81330421732173  1.33145616361636
 1 -7.82952998299830 -3.40265719481948  0.04356851785179
 1 -8.25248100410041 -2.74536355045505 -1.58252458245825
 1 -6.51110995999600 -3.09187283938394 -0.88894568656866
 1  6.88983064606461  0.28001174407441 -0.41282467446745
 1 -6.26314657665767  0.41470131003100 -0.04743712071207
 1  5.33828321232123  2.91139628752875  0.49639189418942
 1 -5.05180900090009 -2.34572587968797 -0.44665206520652
 1  4.62814591359136  0.17978622452245 -0.49970838183818
 1 -4.11930743474347  0.71217633453345  0.11924472047205
 1  3.25948373337334  3.24345838773877  1.36011221222122
 1  1.84248090109011  3.50292896379638  0.34813722172217
 1  3.37231125312531  3.66793462736274 -0.41631212721272
 1 -3.01515365236524 -3.04683183028303 -0.03381642564256
 1 -2.62439194719472 -2.37531865196520 -1.77579154615462
 1 -1.31074787378738 -2.64808498359836 -0.64441747774778
 1  2.37723488148815 -0.44888353945395 -0.30849875387539
 1 -2.19481888288829  1.07062698059806 -0.04646125912591
 1  0.33562930993099  1.86111881778178  0.27368316331633
 1  0.40738350835084 -0.98970892099210 -0.73927151115112

