%nproc=4
%Mem=2GB
# td=(NStates=1) CAM-B3LYP/6-31G(d,p) 

TD

0 1
 8  14.79955817481748 -2.13326079717972 -0.26967582058206
 8 -14.66068266526653  2.10785264126413  0.91787088108811
 6  11.59650294429443 -0.91647228132813  1.28023138413841
 6 -12.49374700670067 -1.10148270827083  0.57246276827683
 6  13.07513624562456 -1.35303834193419  1.15799337133713
 6 -13.69998260726073 -0.23480964096410  0.58796769276928
 6  13.38439043304330 -1.88460398749875 -0.16362125112511
 6 -13.48447078707871  1.33113591159116  0.92635441944194
 6  11.01783030903090 -0.31936615271527 -0.03057730373037
 6 -11.28726582758276 -0.32266329532953 -0.13110386438644
 6  13.02384660366037 -0.90089084618462 -1.24308518151815
 6 -12.65944670467047  1.83565154215422 -0.31846888888889
 6  11.55003975097510 -0.32972334543454 -1.21300981698170
 6 -11.40377396739674  0.94932125512551 -0.64181372037204
 6  11.29627035403540 -0.08430758885889  2.50810125112511
 6  10.70496993799380 -2.24054453555356  1.45863398339834
 6 -12.10470266426643 -1.39251107910791  2.08078665866587
 6 -12.82036273827383 -2.41601704470447 -0.13841193719372
 6  9.58957378337834  0.33846488338834  0.09136581658166
 6 -10.08325969296930 -1.03247733273327 -0.54631331233123
 6  10.97817058205820  0.06835130003000 -2.59132333933393
 6 -10.42608504750475  1.70545092909291 -1.66277558455846
 6  9.34359432643264  1.60266370427043 -0.27264263826383
 6 -8.88254873987399 -0.55649920692069 -0.21146219221922
 6  8.05528151415141  2.27365710561056 -0.04918924992499
 6 -7.52960810281028 -1.18254258735874 -0.46596192819282
 6  8.04685516651665  3.74520272517252  0.40669203520352
 6 -7.70198130413041 -2.68380812891289 -0.88206838183818
 6  6.92652805980598  1.42582257615762 -0.19092909890989
 6 -6.39566136913691 -0.59602507760776 -0.18394140014001
 6  5.59710026202620  1.94336204310431  0.05115003100310
 6 -5.04145526752675 -1.18224810091009 -0.32702487648765
 6  4.44448837983798  1.22824823872387 -0.17525315431543
 6 -3.97717313731373 -0.32017822392239 -0.13583091309131
 6  3.07443004800480  1.65232583048305 -0.02885122012201
 6 -2.65530929492949 -0.71502583268327 -0.32274993499350
 6  2.81493177417742  3.00154960386039  0.51872458145815
 6 -2.36926242024202 -2.09952725482548 -0.70370141014101
 6  2.04935451045105  0.71792895679568 -0.18276740174017
 6 -1.66855817881788  0.13740344624462 -0.02812463946395
 6  0.63435060406041  0.90405517341734  0.00503638363836
 6 -0.23171204020402 -0.10128223332333 -0.22578021802180
 1  13.54877414941494 -0.44013744884488  1.24703954195420
 1  13.31014625062506 -1.99061964306431  2.05860599259926
 1 -14.26136891389139 -0.68692884988499  1.36888409440944
 1 -14.28091945894590 -0.37612453545355 -0.34954657465747
 1  12.91680688268827 -2.84577932103210 -0.16284434943494
 1 -12.92733819481948  1.54625914391439  1.79643911691169
 1  13.78713964596460 -0.08713143324332 -1.18592447644764
 1  13.14976646964696 -1.47534976207621 -2.48232890889089
 1 -13.44974051805180  1.67710903190319 -1.09913784678468
 1 -12.49951855885589  2.83190525452545 -0.27802468546855
 1  11.48839745974598 -0.49486021212121  3.70098475947595
 1  10.25348121312131  0.50176066596660  2.39748862986299
 1  11.83367263726373  0.86621635453545  2.30934006900690
 1  10.46227523052305 -3.07681826192619  0.67905329132913
 1  10.99418033503351 -2.64191910901090  2.51667159115912
 1  9.71759776077608 -1.90096108920892  1.64852979597960
 1 -11.93260016001600 -0.43117754675468  2.66307020002000
 1 -11.22641715071507 -1.98138529352935  2.26397240124012
 1 -13.07715887488749 -1.90388129312931  2.71520411641164
 1 -13.70949073007301 -2.51822307430743  0.19051356035604
 1 -12.17934098209821 -3.30622265026503 -0.04407935193519
 1 -12.89443980198020 -2.33075338333833 -1.31003947794780
 1  8.76871869586959 -0.24845316541654  0.62259644364436
 1 -10.20219995199520 -2.11623534753475 -0.75892552555256
 1  10.12707512651265  0.61436153405341 -2.52813751675167
 1  11.63776221122112  0.70759505040504 -3.03861357535754
 1  10.84760899589959 -0.92700318741874 -3.24964209420942
 1 -11.05708671567157  1.99647287628763 -2.46830832383238
 1 -9.69938547754776  1.12505314231423 -2.03360796679668
 1 -9.85593734873487  2.54954356735674 -1.12087568356836
 1  15.05079163216322 -2.82080098519852  0.34498639163916
 1 -15.44240367536754  1.52778769276928  1.38035624062406
 1  10.06502198419842  2.46141944584458 -0.78630794579458
 1 -8.83204990199020  0.54582668066807  0.00522570957096
 1  8.85557841984198  4.48359821272127 -0.05356165916592
 1  7.17201059005901  4.23022843174317  0.57518335133513
 1  8.46728143814381  3.73239612651265  1.57584060206021
 1 -8.23751078107811 -3.19631656075608 -0.03770960996100
 1 -8.35661141714171 -2.85337435153515 -1.99565589558956
 1 -6.46392524152415 -2.93585723782378 -1.03479027102710
 1  7.11218288128813  0.46243998689869 -0.66789018101810
 1 -6.49943020502050  0.47951779167917  0.08555617861786
 1  5.42864224822482  3.00697584548455  0.37854010901090
 1 -5.05166898689869 -2.14560586768677 -1.01354875487549
 1  4.51032413141314  0.26280452635264 -0.70250866186619
 1 -3.99047455145515  0.69704482138214  0.40609340534053
 1  3.38738652365237  3.20748479037904  1.29396559755976
 1  1.64796144914491  3.43048171907191  0.64970737873787
 1  3.26854087608761  3.77695552945295 -0.16288678467847
 1 -2.87219935693569 -2.91421856895690 -0.19149219321932
 1 -2.61982149014902 -2.22644376447645 -1.83519748674867
 1 -1.27608440744074 -2.43078325342534 -0.73996703270327
 1  2.43870102810281 -0.30512916401640 -0.67983588758876
 1 -1.78658805980598  1.05251516941694  0.28316170317032
 1  0.17914366136614  1.92513521942194  0.27933372837284
 1  0.12623539353935 -1.10650060016002 -0.56882446644664

