%nproc=4
%Mem=2GB
# td=(NStates=1) CAM-B3LYP/6-31G(d,p) 

TD

0 1
 8  14.69184740374037 -2.21663913501350 -0.18268712171217
 8 -14.79358595559556  1.83348520452045  1.06734582858286
 6  11.41904519851985 -1.03161379547955  1.21148450945094
 6 -12.38157578957896 -0.92677523752375  0.63252877487749
 6  12.95031376337634 -1.42055509360936  1.17418499049905
 6 -13.65593820282028 -0.26354251425142  0.77926682268227
 6  13.33173516751675 -1.92867839493949 -0.20586547554755
 6 -13.47365970597060  1.22962576057606  0.93396518051805
 6  10.99435796179618 -0.21203541964196  0.01181693569357
 6 -11.37343444444444 -0.26675770477048 -0.31568232223222
 6  13.16758097709771 -0.89277003410341 -1.24941581458146
 6 -12.88134889488949  1.84746272327233 -0.21061810381038
 6  11.71024577157716 -0.22558293139314 -1.13002151815182
 6 -11.60599418941894  1.06044236723672 -0.66853639263926
 6  11.23690441744174 -0.05422458055806  2.52666310731073
 6  10.60803024402440 -2.34945542664266  1.44810293029303
 6 -11.57780997499750 -0.99683151115111  1.96910549054905
 6 -12.72960366236624 -2.38646408940894  0.18070997499750
 6  9.64302912891289  0.32008304520452  0.04810149014901
 6 -10.11262262926293 -1.05454953995400 -0.56406508750875
 6  11.30299306430643  0.45426989188919 -2.50504471147115
 6 -10.80517295629563  1.74094447844784 -1.72792209920992
 6  9.36857682468247  1.59374281218122 -0.14968034203420
 6 -8.85102558755876 -0.44647820482048 -0.38828987498750
 6  8.07016300230023  2.28575831573157 -0.03748807980798
 6 -7.54648979097910 -1.20985531863186 -0.56978231023102
 6  8.06813729472947  3.81231943684368 -0.03967260126013
 6 -7.59840094609461 -2.66853660176018 -1.09031920692069
 6  6.95057046404640  1.56347634153415 -0.14724473047305
 6 -6.42266406940694 -0.52029750485049 -0.47308031403140
 6  5.53009356135614  1.99104681158116  0.11987690369037
 6 -5.11525264726473 -1.08372824892489 -0.54150632463246
 6  4.48644257525753  1.10511592549255  0.11680605160516
 6 -3.94367978797880 -0.34472067816782 -0.26287361736174
 6  3.07354995999600  1.53538413631363  0.14105577057706
 6 -2.59396316031603 -0.89264359445945 -0.27917557755776
 6  2.84909519051905  3.04901435033503  0.41299400840084
 6 -2.39544503850385 -2.32880018211821 -0.72033307330733
 6  2.11841141614161  0.60713787768777  0.01008188318832
 6 -1.63351467446745 -0.04796509060906 -0.01781360836084
 6  0.69594676367637  0.81488625652565  0.01778765876588
 6 -0.17295616461646 -0.18518062316232 -0.12989062906291
 1  13.50936020802080 -0.61461489658966  1.45486032403240
 1  12.91006624262426 -2.12259284038404  2.22352248424842
 1 -14.30748352535254 -0.73873403040304  1.54148135413541
 1 -14.32755412241224 -0.33737066006601 -0.24554617461746
 1  12.60385558755875 -2.66694143724372 -0.46307437243724
 1 -13.12862832383238  1.35998051605161  2.07734720772077
 1  13.64469540154015  0.14311159105911 -1.11750763476348
 1  13.25166665966597 -1.46950917801780 -2.00087076307631
 1 -13.80894643864386  1.77074839583958 -0.94665259825983
 1 -12.60340894789479  2.92249431343134 -0.19644652765277
 1  11.56548516851685 -0.42655338143814  3.41474613561356
 1  10.21414727972797  0.53643413331333  2.54370325132513
 1  11.88617788778878  0.93302303520352  2.30411954695470
 1  10.80993999699970 -3.01847242734274  0.72926831283128
 1  11.15817673467347 -2.84235915301530  2.32942286628663
 1  9.52644864586459 -2.07091808490849  1.59056399939994
 1 -11.73350025002500 -0.08922335133513  2.52752664566457
 1 -10.53847835683568 -1.42440959595960  1.67195319931993
 1 -12.08198935793579 -1.60819172417242  2.78235083108311
 1 -13.44145392639264 -2.59648090009001  0.82747725672567
 1 -11.80128317631763 -3.09841186918692  0.20545560156016
 1 -13.37584794279428 -2.49409971797180 -0.81081955595560
 1  8.91530335433543 -0.16723504360436  0.59730391439144
 1 -10.38496822882288 -2.13315703970397 -0.88012764576458
 1  10.17729014801480  0.82887298519852 -2.57409211221122
 1  12.04679311431143  1.20830512141214 -2.67084679867987
 1  11.31420565556556 -0.47085757285729 -3.25511264126413
 1 -11.28176918391839  2.12199542854285 -2.55814730773077
 1 -9.92612815181518  1.06829746674667 -2.03503810981098
 1 -10.53812556755676  2.62053066606661 -1.12088568456846
 1  14.61837839083908 -3.12767167226723  0.13066495949595
 1 -15.50510994599460  1.50787570157016  1.49548775377538
 1  10.27792327432743  2.06851015491549 -0.54954426942694
 1 -8.76373307030703  0.55722782078208  0.03988917591759
 1  8.49025188718872  4.26147600050005 -1.04584088708871
 1  7.10969435843584  4.18912432133213  0.23474930793079
 1  8.74121883188319  4.21808469536954  0.76459947794780
 1 -8.33575060506051 -3.15049197829783 -0.58709454845485
 1 -7.97100285628563 -2.62366138023802 -2.03815014501450
 1 -6.64411326032603 -3.16637028912891 -0.76627341934193
 1  6.85709737273727  0.41581532443244 -0.33439683168317
 1 -6.60683094509451  0.42954279417942 -0.16770914791479
 1  5.52152153615362  3.11636678457846  0.09728198319832
 1 -4.89699351935194 -2.08183949104910 -1.05380278027803
 1  4.66789988898890  0.03392163806381 -0.07005541654165
 1 -3.97834333833383  0.58153327022702  0.24907770377038
 1  3.21684946994699  3.48887292919292  1.24311051205120
 1  1.73305995899590  3.15433410431043  0.93552596059606
 1  3.31208523052305  3.75441327522752 -0.39984048004800
 1 -3.08232036903690 -2.97796494359436 -0.41972501650165
 1 -2.63903341134113 -2.37018813891389 -1.92793676067607
 1 -1.23751055005501 -2.73887406250625 -0.61147418341834
 1  2.50404756275628 -0.43204185528553 -0.11641954595460
 1 -1.92053145414541  0.87198711661166  0.24163755075508
 1  0.17633338033803  1.89923262916292 -0.29490369536954
 1  0.35265803580358 -1.29542949304930 -0.23429101310131

