%nproc=4
%Mem=2GB
# td=(NStates=1) CAM-B3LYP/6-31G(d,p) 

TD

0 1
 8  14.76876509550955 -2.10905837693769 -0.24994384738474
 8 -14.77031362836284  1.96062791879188  0.91746084008401
 6  11.47933122712271 -1.13377401150115  1.18725208620862
 6 -12.37300493249325 -0.90702326232623  0.87147266926693
 6  13.00803953595360 -1.40787382548255  1.21090866286629
 6 -13.69398200720072 -0.12425858585859  1.01356025202520
 6  13.43787578157816 -1.90710623772377 -0.17959284828483
 6 -13.52585492549255  1.35937873587359  0.84476626062606
 6  11.02587111311131 -0.37593180928093 -0.05725997199720
 6 -11.40798789978998 -0.24325535453545 -0.13018377237724
 6  13.13316753575358 -0.81440219731973 -1.25621649464946
 6 -12.99343010301030  1.66836481348135 -0.50386742874287
 6  11.77452219921992 -0.20955132823282 -1.12712122812281
 6 -11.74376796679668  0.85420174317432 -0.86025556455646
 6  11.23228395539554 -0.40184934303430  2.53430387138714
 6  10.68179762076208 -2.45056553765377  1.24090221022102
 6 -11.77254944894489 -0.83537536553655  2.32512109210921
 6 -12.67529823182318 -2.38862430543054  0.45507741174117
 6  9.78565339133913  0.28803984088409  0.21725840584058
 6 -10.17304867186719 -1.06211029602960 -0.34189287028703
 6  11.36093885888589  0.62101656655666 -2.35202940994099
 6 -10.90205264426443  1.33756414041404 -2.03803311031103
 6  9.40756072307231  1.59733317121712 -0.07203257725773
 6 -8.92741322632263 -0.60457401440144 -0.38521956795680
 6  8.16407239323932  2.22732247214721  0.05866153515352
 6 -7.62568771077108 -1.24552888598860 -0.55381071307131
 6  8.13629411041104  3.70905911081108  0.37694906090609
 6 -7.73012411841184 -2.80339008710871 -0.64422459745975
 6  6.94068947594759  1.54031402530253 -0.04755476147615
 6 -6.42981478447845 -0.60550602570257 -0.53615662166217
 6  5.58315886788679  2.06941464836484  0.11135605160516
 6 -5.05221634363436 -1.16870674677468 -0.73683585758576
 6  4.48722265326533  1.28799421332133 -0.04057968696870
 6 -4.05880130013001 -0.37547375347535 -0.50309763976398
 6  3.06167877287729  1.59294989288929  0.16046771177118
 6 -2.66702046604660 -0.69545387548755 -0.53865152515252
 6  2.84164444544454  3.02620206910691  0.60044275327533
 6 -2.35441093509351 -2.08579588168817 -1.03396443644364
 6  2.13069264426443  0.68530569446945 -0.17509663466347
 6 -1.64952627562756  0.14548425432543 -0.28348017501750
 6  0.71167833683368  0.91581634953495 -0.14851897189719
 6 -0.25421429042904 -0.04930703580358 -0.32842048204820
 1  13.68104737673767 -0.37922135723572  1.32375721372137
 1  13.30503573957396 -2.12628320942094  2.03335346734673
 1 -14.20736351335134 -0.31950210721072  1.75248245424542
 1 -14.28707007400740 -0.42249917291729  0.16565494549455
 1  12.79720492249225 -2.79322406550655 -0.44426249124912
 1 -12.85941140214021  1.83393791179118  1.53983345634563
 1  13.92345327732773 -0.06012873297330 -1.02170805480548
 1  13.19246073907391 -1.05798802590259 -2.27231790779078
 1 -13.97633317731773  1.24770609160916 -1.22697063006301
 1 -12.56643525052505  2.75789785378538 -0.90934781778178
 1  11.71885050505051 -1.00733145924592  3.32739740074007
 1  10.10903676867687 -0.12381189128913  3.01383026402640
 1  11.76246551655166  0.51621135403540  2.32130126512651
 1  10.96222522552255 -3.11378195829583  0.40154554055406
 1  11.06267718471847 -3.31342625972597  1.97508743274327
 1  9.54386038703870 -2.20525151825183  1.19167411041104
 1 -11.46794369436944  0.12865843684368  2.61376526952695
 1 -10.93851836083608 -1.40496765176518  2.47954395839584
 1 -12.36624778377838 -1.19544044904490  3.00890348634864
 1 -13.34146392739274 -3.00447169916992  1.15665017401740
 1 -11.72144519251925 -2.93664569256926  0.48783383938394
 1 -13.14484484248425 -2.38743905190519 -0.69252772677268
 1  8.72125394939494 -0.43019133923392  0.51120530453045
 1 -10.22822255425543 -2.10898462246225 -0.71012064506451
 1  10.22516493549355  0.94155425332533 -2.13152785578558
 1  11.95426386138614  1.28783307420742 -2.47080679467947
 1  11.69806404140414  0.08806831973197 -3.27530466046605
 1 -11.60394140114011  1.69842307130713 -2.88609010201020
 1 -10.37147268626863  0.60340097709771 -2.30510511651165
 1 -10.19826158115812  2.35231384438444 -1.80423401940194
 1  15.10823737673767 -2.80998990409041  0.54685657865787
 1 -15.28694812981298  1.77633254725473  1.70660886588659
 1  10.05574105610561  2.43289659355936 -0.35386470147015
 1 -8.72663936093609  0.48900099809981 -0.23765857885789
 1  9.04389725172517  4.15653550645064 -0.10456675967597
 1  7.17279066806681  4.20524593349335  0.04862069506951
 1  8.35251996199620  3.83926681358136  1.51404442244224
 1 -8.17679470947095 -3.03906083518352  0.36088024902490
 1 -8.60670642664267 -3.15982499659966 -1.48102443244324
 1 -6.71766061506151 -3.34150780288029 -0.86287307930793
 1  6.84819648264826  0.41344508740874 -0.31575496749675
 1 -6.60066032803280  0.45312515241524 -0.22832520952095
 1  5.41252063606361  3.08674382228223  0.50503275827583
 1 -4.98128194819482 -2.11301260836084 -0.96578397839784
 1  4.73628672767277  0.27803604950495 -0.40322873387339
 1 -4.25739124312431  0.61385650255026 -0.05512271627163
 1  3.59948773377338  3.37426146804680  1.47701390239024
 1  1.72994964796480  3.03421209210921  1.12626503450345
 1  3.04229825182518  3.87108494239424 -0.13270376637664
 1 -2.64580671767177 -2.65442258935894 -0.08544158815882
 1 -2.70361986998700 -2.24073519361936 -2.01389535653565
 1 -1.34646144514451 -2.28072824792479 -1.27050008600860
 1  2.24216137413741 -0.22227087818782 -0.79759766376638
 1 -2.04114351535154  1.26700661856186 -0.22322893589359
 1  0.42732847984798  1.96580928682868 -0.03313751875187
 1  0.09327209720972 -1.00309025912591 -0.64004158815882

