%nproc=4
%Mem=2GB
# td=(NStates=1) CAM-B3LYP/6-31G(d,p) 

TD

0 1
 8  14.73793201220122 -2.24216168726873 -0.53939279227923
 8 -14.73602019901990  2.13570542654265  0.62732182618262
 6  11.39486278027803 -1.04516515061506  1.17296065706571
 6 -12.28233586558656 -0.89275183518352  0.77769329132913
 6  13.02138087008701 -1.24787782588259  1.07277484948495
 6 -13.63003561256126 -0.23221938193819  0.68042693869387
 6  13.31771376537654 -1.90342586968697 -0.19350423942394
 6 -13.55449778977898  1.39353215121512  0.61534331833183
 6  10.97388591459146 -0.27834205030503 -0.03313755975598
 6 -11.32976007700770 -0.22056308530853 -0.14621537553755
 6  12.96068028702870 -0.94436519361936 -1.35419629262926
 6 -12.66399715971597  1.79710768776878 -0.53672071407141
 6  11.62997774477448 -0.26809718281828 -1.19044756075608
 6 -11.45572916291629  0.94130045304530 -0.83707324632463
 6  11.19674040104010 -0.18471762986299  2.46729717071707
 6  10.69691913291329 -2.35293577467747  1.30007812781278
 6 -11.75483767776778 -0.88744057205721  2.20776935693569
 6 -12.64732543454346 -2.34534997799780  0.40524242824282
 6  9.59978480448045  0.30794183108311  0.09386606660666
 6 -10.07700906790679 -1.04120820582058 -0.41092977397740
 6  11.17375014001400  0.44458892379238 -2.42135634263426
 6 -10.58587102610261  1.43607399139914 -1.93102240924092
 6  9.29821978897890  1.63734717261726 -0.20243561756176
 6 -8.85963644864487 -0.61159471647165 -0.27604865086509
 6  8.09716570257026  2.29110885078508 -0.04680901190119
 6 -7.62814795679568 -1.41133546664667 -0.42075740774077
 6  8.22210269126913  3.68919712461246  0.51158252425243
 6 -7.64463556955696 -2.85686543464346 -0.77106728172817
 6  6.91103651065106  1.62459245314531 -0.10603060906091
 6 -6.52415421842184 -0.78921439653965 -0.20127313331333
 6  5.53249380138014  2.07746545344534  0.15676059205921
 6 -5.15189631163116 -1.19936981308131 -0.59188136213621
 6  4.44261819281928  1.27548296219622  0.05555992699270
 6 -3.99818523852385 -0.50212641874187 -0.23446077607761
 6  3.09424202920292  1.73557415531553  0.28286995199520
 6 -2.65315907990799 -0.84293862396240 -0.43056071607161
 6  2.65846612761276  3.05112456135614  0.84662737173717
 6 -2.37738323232323 -2.30922822492249 -0.97584862486249
 6  1.98474804980498  0.77336450035003  0.04918579357936
 6 -1.62378370137014  0.08029773567357 -0.18811063806381
 6  0.71341851085109  0.89347411531153  0.12364824482448
 6 -0.24748361736174 -0.04261636673667 -0.30689832983298
 1  13.50407967996800 -0.27813124822482  0.98381321932193
 1  13.55903113911391 -1.72005258635864  1.81878201020102
 1 -14.37698047504750 -0.38729888688869  1.55976318231823
 1 -14.09265063206321 -0.43773069606961 -0.28101972197220
 1  12.68039324132413 -2.80565530863086 -0.36452451745174
 1 -12.95950141114111  1.78338285628563  1.51833130613061
 1  13.92077300930093 -0.24689740984098 -1.41443732773277
 1  13.06544803780378 -1.59421164826483 -2.25563623962396
 1 -13.42642818681868  1.95469679067907 -1.42541047404740
 1 -12.30340894789479  2.83245530953095 -0.02283916691669
 1  11.45978459845985 -0.89409013511351  3.33517817881788
 1  10.19995586058606  0.09779026892689  2.62215109610961
 1  11.78117738773877  0.71751148404841  2.44256339133913
 1  10.78343734673467 -2.85266584668467  0.36349173517352
 1  10.80552146914692 -3.03032794989499  2.13033295729573
 1  9.72584858585859 -2.13978497159716  1.45299024202420
 1 -11.59839673967397  0.12878844984498  2.60814470747075
 1 -10.75132964196420 -1.25263241824182  2.04787079107911
 1 -12.30486164516452 -1.29896080108011  3.01382397839784
 1 -13.35295507650765 -2.54438569056906  1.15617012601260
 1 -11.66643969196920 -3.21154318231823  0.34801985798580
 1 -12.92387274527453 -2.51985229322932 -0.79382785678568
 1  8.79003082708271 -0.49787810791079  0.55960014401440
 1 -10.28154788678868 -2.30764448844885 -0.63042267526753
 1  10.14093651265127  0.55976607450745 -2.40504520752075
 1  11.66192462746275  1.26993128402840 -2.68155786978698
 1  11.22810704570457 -0.24810529762976 -3.30927805780578
 1 -11.25230623762376  1.77965119411941 -2.78044953795380
 1 -9.51720725972597  0.72419305630563 -2.14314892089209
 1 -10.04269602460246  2.40656926992699 -1.63611720772077
 1  15.30729728272827 -2.54485339043904  0.36388828182818
 1 -15.36760619561956  1.97777269126913  1.51707991299130
 1  10.11228671067107  2.17090039393939 -0.51518083308331
 1 -8.56538323532353  0.21221331933193  0.30490567756776
 1  8.79526238823882  4.30881073397340 -0.26907321032103
 1  7.28938232723272  4.09262467136714  0.64581041404140
 1  8.46945165516552  3.60429331623162  1.58125114311431
 1 -8.35185221522152 -3.38115504460446 -0.06953279227923
 1 -8.05563131913191 -3.15683469756976 -1.61586791679168
 1 -6.68803765276528 -3.33509716181618 -0.75937272927293
 1  7.13115477847785  0.62442618551855 -0.37682107410741
 1 -6.35749601160116  0.41657149704970 -0.04819719671967
 1  5.45680506450645  3.01907705560556  0.59878213321332
 1 -4.97157097709771 -2.15318662576258 -1.01226862686269
 1  4.67808090709071  0.21098934483448 -0.47486589758976
 1 -4.25963146714671  0.43945906280628  0.24195699169917
 1  3.40524830983098  3.40586462836284  1.49030523152315
 1  1.53465011801180  3.10837950885088  1.33502591059106
 1  2.95156917891789  3.83114094799480 -0.01463195919592
 1 -2.83300543754375 -3.24302144924492 -0.23248629262926
 1 -2.88572808080808 -2.45518663876388 -1.83801776877688
 1 -1.30309710871087 -2.62581275637564 -1.24064710071007
 1  2.38059521752175 -0.27133578467847 -0.39967787178718
 1 -1.95123452445245  1.05554547244724  0.46301968896890
 1  0.22686843384338  1.77617032293229  0.58868466346635
 1  0.03220599059906 -0.93916386648665 -0.79350693469347

