%nproc=4
%Mem=2GB
# td=(NStates=1) CAM-B3LYP/6-31G(d,p) 

TD

0 1
 8  14.85436365536554 -2.06536400750075 -0.24595344834483
 8 -14.80514711171117  2.00891274727473  0.72989208320832
 6  11.32304559855986 -1.11992262636264  1.21442480348035
 6 -12.25406303830383 -0.81539409940994  0.88918444044404
 6  12.90721945394539 -1.39276231433143  1.04471204320432
 6 -13.66816942594259 -0.02239839983998  0.90315921192119
 6  13.37081907590759 -1.85749127622762 -0.22895778477848
 6 -13.53071541154115  1.42947574557456  0.75169695369537
 6  10.95560408640864 -0.24930914701470 -0.01868611461146
 6 -11.33092019301930 -0.18589961896190 -0.11466222022202
 6  13.10650486948695 -0.66594735183518 -1.28234910791079
 6 -12.88383914391439  1.60714869186919 -0.66692373437344
 6  11.74758950595059 -0.03689406250625 -1.14942345834583
 6 -11.64212780278028  0.81404772777278 -0.95611515051505
 6  11.04538526552655 -0.52720187828783  2.49130957195720
 6  10.53163260426043 -2.51097157825783  0.99951807180718
 6 -11.61420361436143 -0.79321114911491  2.29585816581658
 6 -12.56639734173417 -2.27306274927493  0.47562946694669
 6  9.60115494149415  0.23287432433243  0.19277595759576
 6 -10.08127949494950 -1.01487557255726 -0.34890357135714
 6  11.29526229122912  0.74517898279828 -2.34263847084708
 6 -10.80071251025103  1.41061144514451 -2.05547485448545
 6  9.37800776777678  1.56204964286429 -0.03327870187019
 6 -8.85258574357436 -0.51193475047505 -0.32753379937994
 6  8.04664065006501  2.19600934083408  0.20356602560256
 6 -7.60629577157716 -1.32110644374437 -0.40364569656966
 6  8.01527200820082  3.58007621252125  0.66634800080008
 6 -7.67691879787979 -2.79774952305231 -0.66471664666467
 6  6.91688709570957  1.57440743464346 -0.11299130513051
 6 -6.45846764976498 -0.63702917801780 -0.28793179917992
 6  5.59368992099210  1.92440014691469  0.03319823582358
 6 -5.12230335233523 -1.23827370347035 -0.28185035903590
 6  4.49999393039304  1.22468788268827 -0.24126975597560
 6 -3.97020244024402 -0.46822302840284 -0.29511684168417
 6  3.09519212421242  1.66508710661066  0.13960562556256
 6 -2.66889065306531 -0.83826815691569 -0.51488914891489
 6  2.87668794979498  3.11237068596860  0.44639734873487
 6 -2.28650414441444 -2.34005130723072 -0.88704974497450
 6  2.11588116311631  0.68093525742574 -0.13865299029903
 6 -1.62457378037804  0.02771247714771 -0.35907773477348
 6  0.66939410841084  0.85940070797080 -0.11940606060606
 6 -0.22895176417642 -0.11284338943894 -0.28665630563056
 1  13.39401867386739 -0.40111354645465  1.37490232823282
 1  13.12521775777578 -2.03548412951295  2.02896302830283
 1 -14.13783656065607 -0.49832998999900  1.63736094209421
 1 -14.15170653765377 -0.08572549554956 -0.00814243424342
 1  12.71982718471847 -2.78546328942894 -0.51454951995200
 1 -12.90765622662266  1.83893841184118  1.58225769876988
 1  13.82081301330133  0.16201348124812 -1.12085796979698
 1  13.38425991899190 -1.00922314941494 -2.19001967796780
 1 -13.83228877287729  1.13092441344134 -1.33820175317532
 1 -12.72098070507051  2.68464052805280 -0.89222610561056
 1  11.29517813781378 -1.14063478957896  3.41577623862386
 1  9.89963582858286 -0.48995850595059  2.77293617461746
 1  11.22431170117012  0.54321405430543  2.60548968396840
 1  10.92194119711971 -2.97244782488249  0.12778816481648
 1  10.57234815181518 -3.29406432353235  1.84242416641664
 1  9.48199420042004 -2.31476246934693  0.84325926892689
 1 -11.68916581658166  0.12361793279328  2.70440433343334
 1 -10.59168367736774 -1.20039719471947  2.26409241324132
 1 -12.10271143014301 -1.41834273927393  2.79273186918692
 1 -13.35619540054005 -2.54575582758276  0.93182769176918
 1 -11.69547259525952 -2.91976400440044  0.66314137013701
 1 -12.83860421842184 -2.22647295529553 -0.60505897989799
 1  8.82362418641864 -0.36360468056806  0.35497968196820
 1 -10.10820055205521 -2.02003572757276 -0.18266789978998
 1  10.29165158415842  0.93636373427343 -2.53848855185519
 1  11.87228566356636  1.67850214111411 -2.28882859685969
 1  11.60320455545555  0.23671318421842 -3.26570370037004
 1 -11.38740974797480  1.42675590459046 -3.05872736573657
 1 -9.72080761976198  0.71213185018502 -2.26593119911991
 1 -10.62508426342634  2.44563317631763 -1.61944554055406
 1  15.00885743874387 -3.05050395549555 -0.04326243324332
 1 -15.41023045804580  1.51194610861086  1.33985219021902
 1  10.39287476947695  2.23903720762076 -0.23029234423442
 1 -8.75257195419542  0.63547564556456 -0.09665447844784
 1  8.86302916491649  4.16395624852485  0.12641633863386
 1  7.12249563856386  4.21862727162716  0.58241407440744
 1  8.34319902990299  3.67231011791179  1.55598861686169
 1 -8.22361939193919 -3.38736566566657  0.18087224822482
 1 -8.05738149414941 -3.00565958005801 -1.73560989098910
 1 -6.62965181418142 -3.10047369946995 -0.39832662466247
 1  7.05018668166817  0.60840458335834 -0.71448484048405
 1 -6.48559882188219  0.40091993189319 -0.35755813281328
 1  5.32618200220022  2.93798894679468  0.62783503850385
 1 -4.81782560256026 -2.23141444854485 -0.54543194319432
 1  4.48415151415142  0.21204945084508 -0.69332774377438
 1 -4.06834233823382  0.58908402530253  0.03960675667567
 1  3.41563934893489  3.51659570147015  1.31081728272827
 1  1.82531918491849  3.47989666056606  0.55618802680268
 1  3.19610363236324  3.80489832373237 -0.34536503250325
 1 -2.54534667166717 -2.95634278137814 -0.01022406640664
 1 -2.68234774277428 -2.75467658775878 -1.74383835083508
 1 -1.11414821382138 -2.57770794589459 -0.96895993199320
 1  2.55413257125713 -0.16441509260926 -0.59514741874187
 1 -1.95889529052905  1.01845176307631 -0.13366997999800
 1  0.35567131413141  1.83818652455246  0.22857865286529
 1  0.06847961796180 -1.30270022012201 -0.42621020502050

