%nproc=4
%Mem=2GB
# td=(NStates=1) CAM-B3LYP/6-31G(d,p) 

TD

0 1
 8  14.89934815381538 -2.05521299239924 -0.39586843984398
 8 -14.83787038403840  2.00306216221622  0.64506360036004
 6  11.52917621162116 -0.99798043214321  1.14480784178418
 6 -12.36477410941094 -1.01370393039304  0.73480900290029
 6  13.04610334233423 -1.34675771387139  1.03727129912991
 6 -13.68961157015701 -0.14325048504850  0.68671756775678
 6  13.41893388738874 -1.95828135523552 -0.19926481548155
 6 -13.60554289428943  1.39209200720072  0.68926071007101
 6  11.00675920192019 -0.27286150225022 -0.04342858885889
 6 -11.39079618061806 -0.25128615761576 -0.21274202820282
 6  13.08989320832083 -0.90457121422142 -1.27250812381238
 6 -12.72613337333733  1.88761673867387 -0.57936497849785
 6  11.65437018401840 -0.21092146524652 -1.21237975397540
 6 -11.48473206320632  1.00884720772077 -0.71818135713571
 6  11.31891261826183 -0.17410656875688  2.44956539753975
 6  10.62413185418542 -2.36076655775578  1.33695181518152
 6 -11.70612280628063 -0.87247907590759  2.09721830183018
 6 -12.51679238123812 -2.39649509250925  0.37229913391339
 6  9.60097492349235  0.39580061696170  0.04660134013401
 6 -10.10154152115212 -1.07063114811481 -0.36920560156016
 6  11.19736250125012  0.47739220412041 -2.47864207120712
 6 -10.58777121612161  1.66549693369337 -1.77455676267627
 6  9.34980494749475  1.64540797869787 -0.15586096009601
 6 -8.86074655965596 -0.55795935293529 -0.21272231823182
 6  8.01557754375438  2.25029476937694  0.11376704570457
 6 -7.65188033003300 -1.33431776487649 -0.50072540454045
 6  7.96099658065807  3.59330753565357  0.43814518051805
 6 -7.81092219821982 -2.69727947604760 -0.92048222322232
 6  6.80640604760476  1.50701069496950 -0.06000600660066
 6 -6.49666146914691 -0.66860233533353 -0.33769677567757
 6  5.43972452445245  1.95183289018902  0.08514343034303
 6 -5.09069019101910 -1.19655953205321 -0.46696887088709
 6  4.36162009300930  1.22621803570357 -0.11789741874187
 6 -3.92858827882788 -0.50743694979498 -0.14633196319632
 6  3.04085669066907  1.58043864176418  0.20077174217422
 6 -2.65449921392139 -0.88051238133813 -0.31495915591559
 6  2.90274055505551  3.01045049394939  0.49981269026903
 6 -2.28646414041404 -2.32868017011701 -0.75097613761376
 6  2.04557413241324  0.67127429132913  0.02739361436144
 6 -1.66367769076908 -0.05971626572657  0.01630980398040
 6  0.63157032603260  0.92497726562656  0.07166304630463
 6 -0.22664153315332 -0.10732283738374 -0.24801244124412
 1  13.81102037403740 -0.43617705280528  1.31486632463246
 1  13.45272050805081 -1.91695227632763  1.95336546854685
 1 -14.42628540554055 -0.48547870487049  1.38420562656266
 1 -14.17395876287629 -0.41081800480048 -0.23468508850885
 1  12.93372857485749 -2.91570631373137 -0.34545261026103
 1 -13.01647710871087  1.83191770977098  1.42497197019702
 1  13.73370430243024 -0.11835455555556 -0.99349523352335
 1  13.29723121612161 -1.32577480458046 -2.36682735873587
 1 -13.50449599359936  1.89809113011301 -1.29206713971397
 1 -12.29587819481948  2.87781984598460 -0.48475535853585
 1  11.78149676967697 -0.74381510761076  3.16864152515251
 1  10.26910277527753  0.16189667956796  2.80602948394840
 1  12.06244551455145  0.79148888178818  2.55224435943594
 1  10.67411641464146 -2.99165974607461  0.32589797579758
 1  11.30198111511151 -3.05504042114211  2.20532045604560
 1  9.61966796779678 -1.96392738583858  1.56168111111111
 1 -11.69619651965196  0.12653822482248  2.39355324832483
 1 -10.80048455745575 -1.42824997999800  2.17450345434543
 1 -12.35065622462246 -1.46770767576758  2.74694729072907
 1 -13.57353713471347 -2.73321457345735  1.09282379137914
 1 -11.68676172417242 -3.00882291029103  0.56051110711071
 1 -12.58872923092309 -2.52992330033003 -0.77096557055706
 1  8.93329515351535 -0.17381570167017  0.71566575057506
 1 -10.25907563956396 -2.17864158815882 -0.74293392639264
 1  10.15683810281028  0.66696679457946 -2.66301100410041
 1  11.78944737973798  1.35288957985799 -2.77136685068507
 1  11.19110334533453 -0.16855734283428 -3.41273840384038
 1 -11.30659166616662  1.98333156215622 -2.61724321732173
 1 -9.73485902490249  0.90332096909691 -1.90522512851285
 1 -10.12823457845785  2.69771838483848 -1.27615121112111
 1  15.26186273927393 -2.87971687678768  0.10225211821182
 1 -15.34210364536453  1.54147906190619  1.36015422042204
 1  10.04202968496850  2.35139844374437 -0.52233154815482
 1 -8.76224292129213  0.40307240524052  0.27082226922692
 1  8.58314117611761  4.27225707860786 -0.24441074407441
 1  6.90645403440344  4.02757816671667  0.77283311631163
 1  8.14125883588359  3.77819070597060  1.56264928292829
 1 -8.37135416541654 -3.15937286638664  0.00902506350635
 1 -8.51496725272527 -2.44981399549955 -1.81620795079508
 1 -6.93813266226623 -3.26077973007301 -1.36245303730373
 1  6.80746240924092  0.49992373527353 -0.61894528652865
 1 -6.45915617761776  0.41504134403440 -0.14716709370937
 1  5.40211959595960  3.08109325722572  0.60243249824982
 1 -4.85198901890189 -2.31962326942694 -0.91750915091509
 1  4.50370346934694  0.12144038993899 -0.41876028702870
 1 -4.11363686768677  0.50451556845685  0.30483327932793
 1  3.56041382638264  3.17625166706671  1.40846704770477
 1  1.76625327832783  3.32600127102710  0.65761816981698
 1  3.33536755875588  3.50105793969397 -0.17543803980398
 1 -2.65309744674467 -3.05932307940794 -0.03770681468147
 1 -2.71662117011701 -2.57267838793879 -1.82542650965097
 1 -1.38739553855386 -2.64250442554255 -0.99357239323932
 1  2.37053421142114 -0.38685733683368 -0.35819372337234
 1 -2.17718711971197  0.99802972087209  0.37501088808881
 1  0.22297804480448  1.82376508240824  0.36542233723372
 1  0.14214698469847 -1.09285923602360 -0.48115569956996

