%nproc=4
%Mem=2GB
# td=(NStates=1) CAM-B3LYP/6-31G(d,p) 

TD

0 1
 8  14.52920113911391 -2.43160063116312 -0.28957781078108
 8 -14.64380097709771  2.14138599459946  0.84300339433943
 6  11.37840113411341 -1.12511314541454  1.20538389938994
 6 -12.32771040304030 -0.91557411741174  0.86608213021302
 6  12.84308304030403 -1.45398843694369  1.13039061106111
 6 -13.64175678467847 -0.17744390439044  0.86179507550755
 6  13.11847384138414 -2.06851237833783 -0.20786567556756
 6 -13.43777611761176  1.42498529652965  0.84143592759276
 6  10.98704723072307 -0.27319153525353 -0.05890013601360
 6 -11.36688378937894 -0.40350137913791 -0.11720247424742
 6  13.00124434343434 -0.93688444554455 -1.27263813681368
 6 -12.70694145414542  1.72265024202420 -0.37879492149215
 6  11.69270401740174 -0.17062743584358 -1.11719023502350
 6 -11.44628821882188  0.74077040004000 -0.75798533753375
 6  11.37414814181418 -0.21193035113511  2.60831127212721
 6  10.52228166916692 -2.34672515361536  1.37935605560556
 6 -11.69424161816181 -0.96741856985699  2.19486806680668
 6 -12.70569127112711 -2.42357780078008  0.36166807080708
 6  9.66344117011701  0.36950798769877  0.05666234623462
 6 -10.10290165716572 -1.12171625662566 -0.37317599859986
 6  11.25862862786279  0.55578004290429 -2.28414262126213
 6 -10.63500593959396  1.39767015101510 -1.89601890889089
 6  9.35762572957296  1.64448788668867 -0.08628400240024
 6 -8.85700618561856 -0.67777133413341 -0.42808385438544
 6  7.98916490249025  2.32956269616962  0.13591926092609
 6 -7.60342548454845 -1.38382271537154 -0.58822415441544
 6  8.13208368936894  3.88618682358236  0.40779214521452
 6 -7.74039514551455 -2.67106685478548 -1.02582275727573
 6  6.88955436243624  1.58978897279728 -0.14705471147115
 6 -6.47391919491949 -0.65008048314831 -0.30960396639664
 6  5.55042559455946  2.08739644654465 -0.00119520352035
 6 -5.12626374837484 -1.11930180628063 -0.60158233223322
 6  4.47990192119212  1.36525193909391 -0.19716534553455
 6 -4.01260668066807 -0.46375258135814 -0.20222755275528
 6  3.10418302330233  1.73806440434043  0.00905257025703
 6 -2.59577334133413 -0.81263559365937 -0.38753641364136
 6  2.74589487048705  3.06472592149215  0.55826853585359
 6 -2.21250674467447 -2.09746704880488 -1.00613165316532
 6  2.17185676067607  0.79629679357936 -0.19738886388639
 6 -1.70282160516052  0.15928563446345 -0.10814264126413
 6  0.81166833583358  0.86021078897890 -0.12331645164516
 6 -0.19997886688669 -0.09454155925593 -0.28630627062706
 1  13.55872514451445 -0.52034546964696  1.30465530353035
 1  13.04332956895690 -2.16614719581958  1.95601573357336
 1 -14.10559333633363 -0.56992714971497  1.63940114611461
 1 -14.24723609060906 -0.39910683368337 -0.15336695669567
 1  12.22796799879988 -2.80675541864186 -0.34096216121612
 1 -12.67781324232423  1.68385290329033  1.64757423042304
 1  13.75592652465247 -0.07452017211721 -1.22883876787679
 1  12.99091058405841 -1.41376360346035 -2.15899657565757
 1 -13.19228477247725  1.72033335433543 -1.24186211921192
 1 -12.29261786878688  2.74781684568457 -0.23935081808181
 1  11.81178979897990 -0.89410013611361  3.51204586558656
 1  10.30384624962496  0.24224471437144  2.69610849184919
 1  11.84422369236924  0.73650338323832  2.62940207520752
 1  10.51417042004200 -2.73578415851585  0.25020040604060
 1  10.92119303630363 -3.03560847794779  2.05582550655066
 1  9.44645064606461 -2.00327132023202  1.71141608460846
 1 -11.45364226422642 -0.07529195819582  2.60141403440344
 1 -10.77228173717372 -1.47418457345735  2.19854585858586
 1 -12.28428958795880 -1.56660756575658  2.94949754575458
 1 -13.49908968996900 -2.70665191719172  0.91573608260826
 1 -11.89202225022502 -2.87284931293129  0.94650970697070
 1 -12.79966032403240 -2.72179248724872 -0.61955042904290
 1  9.03072489648965 -0.17901622172217  0.64902908690869
 1 -10.23328306030603 -2.19395311931193 -0.62785241824182
 1  10.39010142914291  0.85670576847685 -2.10334503750375
 1  11.85374380938094  1.50215450635064 -2.28381809580958
 1  11.34785902090209 -0.06310679777978 -3.22839996999700
 1 -11.38164917191719  2.04279750875088 -2.38931042404240
 1 -9.95655119411941  0.73287392439244 -2.52621722772277
 1 -9.80025178017802  2.21072968596860 -1.38058165416542
 1  14.57738429142914 -3.12248115321532  0.39087098009801
 1 -15.27904733973397  1.82390730473047  1.63210141514151
 1  9.99390487248725  2.32117542144214 -0.82977229222922
 1 -8.82232892989299  0.38582068006801 -0.22968778177818
 1  9.05166802880288  4.28028788168817 -0.18531483448345
 1  7.21567495649565  4.49227463636364  0.40275610861086
 1  8.45708041804180  4.11448433533353  1.39240225822582
 1 -8.40475750575057 -3.36851378047805 -0.43926976597660
 1 -8.02782853885389 -2.85165417951795 -1.98289461946195
 1 -6.71847069606961 -3.37021067316732 -1.08015480748075
 1  7.04641630463046  0.72267601050105 -0.47374076607661
 1 -6.69243950595059  0.30618045794579  0.17637526052605
 1  5.33799318331833  3.14335948384838  0.51124337933793
 1 -5.01565538553855 -2.11884319141914 -1.13048044804480
 1  4.69514261326133  0.31471971787179 -0.31870028102810
 1 -4.25716122012201  0.41806692359236  0.34282707870787
 1  3.31749953495350  3.20470451235124  1.54997119811981
 1  1.67903455645565  3.02600127102710  0.85042745074507
 1  2.85400942294229  3.86388422232223 -0.20636113211321
 1 -2.31012314931493 -2.91356850395040 -0.12522556655665
 1 -2.91411091909191 -2.30506162626263 -1.96078004500450
 1 -0.97018381738174 -2.22108228332833 -1.29166220222022
 1  2.65359251725173 -0.13153180428043 -0.35061296529653
 1 -2.09757915891589  1.07619753765377  0.17049043604360
 1  0.39945569256926  1.87256996289629  0.21494728972897
 1  0.09507227722772 -1.09778972907291 -0.49928751275127

