%nproc=4
%Mem=2GB
# td=(NStates=1) CAM-B3LYP/6-31G(d,p) 

TD

0 1
 8  14.77584580358036 -2.08260573167317 -0.32702155515552
 8 -14.63059965696570  2.30463231923192  0.93056215021502
 6  11.53004629862986 -0.96097673177318  1.17545090609061
 6 -12.24627225922592 -0.78369092909291  0.86534205620562
 6  12.97053578557856 -1.34613765186519  1.11945951795180
 6 -13.60747335633563  0.01218505850585  0.79892878887889
 6  13.36715870987099 -1.71392691979198 -0.25291018001800
 6 -13.41510385038504  1.59973277127713  0.87808959295930
 6  11.06655518151815 -0.17072128822882  0.05057081108111
 6 -11.38458555955595 -0.18387941694169 -0.24131488548855
 6  13.17768198719872 -0.59411016811681 -1.25316618961896
 6 -12.59176993699370  1.82159013601360 -0.43733077507751
 6  11.77184193119312 -0.04186455955596 -1.08219673567357
 6 -11.53597718771877  1.00707703070307 -0.75325486448645
 6  11.24434516151615 -0.23771292939294  2.53088352935294
 6  10.63316275727573 -2.31368184928493  1.28991711171117
 6 -11.73265545954595 -0.84507633563356  2.23329190919092
 6 -12.58935963796380 -2.17570301330133  0.39678158215822
 6  9.65450027602760  0.42196323322332  0.16433311331133
 6 -10.12103347034703 -1.09469355435544 -0.55331401240124
 6  11.27466023102310  0.50914537943794 -2.38635284228423
 6 -10.65481792079208  1.46347673167317 -1.86000530753075
 6  9.22332229922992  1.64838827672767 -0.22643801780178
 6 -8.88280876587659 -0.68450200720072 -0.40500154615462
 6  7.93563954995499  2.22565230513051  0.08406407540754
 6 -7.65755089708971 -1.41440577367737 -0.56710204220422
 6  7.90962144314431  3.71374957985799  0.35922728872887
 6 -7.73600470647065 -2.79861961006101 -1.07071724672467
 6  6.82751815881588  1.39868986288629 -0.04092409840984
 6 -6.43697550055006 -0.75532100720072 -0.28126113211321
 6  5.55451600360036  1.88668637553755  0.15408032403240
 6 -5.14167528952895 -1.28705858195820 -0.56634880888089
 6  4.34621855285529  1.18814422832283 -0.04250987998800
 6 -4.00092551255126 -0.58968517461746 -0.33055038503850
 6  2.97883048804880  1.55178577647765  0.14905657065707
 6 -2.64131789578958 -1.02214654475448 -0.43404106410641
 6  2.67127740874087  2.98315776467647  0.43698640764076
 6 -2.35659115311531 -2.49984728682868 -0.95962700270027
 6  2.01809138413841  0.52969013291329 -0.04689381438144
 6 -1.63614493749375 -0.20440073417342 -0.05996782378238
 6  0.67184435343534  0.63528829672967 -0.08537265726573
 6 -0.23559242824282 -0.41137324242424 -0.23206084608461
 1  13.66144541654166 -0.48551198629863  1.56598143614361
 1  13.25788102410241 -2.07426800790079  1.88044817681768
 1 -14.13477625462546 -0.05555571257126  1.67042424842484
 1 -14.29015038203820 -0.08443536653665 -0.03874549454946
 1  12.69679488148815 -2.60177492059206 -0.60396846184618
 1 -12.81657711871187  2.07418193619362  1.74473394639464
 1  13.91914284628463  0.22983026292629 -1.13218910291029
 1  13.49140063306331 -0.85263749084908 -2.45179585558556
 1 -13.26278182218222  1.94404572557256 -1.28974690769077
 1 -12.07834644164416  2.87337940194019 -0.25937282028203
 1  11.77874649464947 -0.73602432853285  3.41884654565457
 1  10.24591045604561 -0.02017152725273  2.81842072307231
 1  11.86835610561056  0.67301703460346  2.49978911391139
 1  10.65940494349435 -2.95657623772377  0.28343372937294
 1  11.05318623562356 -2.85981089818982  2.05479540354035
 1  9.75622162316232 -1.86450744384438  1.68017296029603
 1 -11.35076197619762  0.21210678167817  2.48938283128313
 1 -10.90069457845785 -1.54781193619362  2.30427643164316
 1 -12.44879603860386 -1.09365027002700  3.04150674667467
 1 -13.48488826982698 -2.57281853385339  0.80197470647065
 1 -11.88056110411041 -2.77635966396640  0.64833988998900
 1 -12.72497285528553 -2.41172148014801 -0.73040151415142
 1  8.88994081808181 -0.10029834993499  0.82594677867787
 1 -10.32903263526353 -2.18575229922992 -0.92421205420542
 1  10.31919433843384  0.92121221912191 -2.22112681568157
 1  12.04536297129713  1.53563785468547 -2.63057277127713
 1  11.25888012301230 -0.25104559165917 -3.19873700370037
 1 -11.17618862586259  2.27922115111511 -2.50334182718272
 1 -10.11488702770277  0.67075771277128 -2.43910851685169
 1 -9.80799255425543  2.13889250225022 -1.42193578957896
 1  14.85290184318432 -2.92304120922092  0.17878977197720
 1 -15.23160259525952  1.99556447044704  1.63885209020902
 1  9.95319080108011  2.47451075497550 -0.61513082808281
 1 -8.71112780978098  0.35286738473847 -0.28198301130113
 1  8.44044690669067  4.17330718361836 -0.47260356335634
 1  7.01763515251525  4.16860226912691  0.37775360836084
 1  8.30896560656065  3.92660554745474  1.36575959395940
 1 -8.31037806780678 -3.40874780388039 -0.36789262826283
 1 -8.42291804780478 -2.91235024912491 -1.98676500650065
 1 -7.02433128212821 -3.49712336443644 -1.21941873387339
 1  6.94372603560356  0.46612035493549 -0.39413280528053
 1 -6.73256351835184  0.13144298419842  0.33896151915192
 1  5.36863624762476  2.90491563946395  0.70468272327233
 1 -5.08266208620862 -2.18695000210021 -0.78525592559256
 1  4.43842694169417  0.16535478137814 -0.38029644064407
 1 -4.00901640564056  0.36787190409041 -0.15487269126913
 1  2.91949973497350  3.09777381928193  1.62072827382738
 1  1.50224687768777  3.27378604950495  0.51758416641664
 1  3.29586360836084  3.66508434233423 -0.22734323032303
 1 -2.85732786978698 -3.34405155225523 -0.47165020902090
 1 -2.70629013701370 -2.70582170227023 -2.10334430143014
 1 -1.33543034203420 -2.90733090819082 -1.04372740874087
 1  2.40860801880188 -0.55520417151715 -0.36910481448145
 1 -2.19152855385539  0.85166508440844  0.18615200220022
 1  0.18135388238824  1.49838254415442 -0.00848505350535
 1 -0.06621385138514 -1.52407235733573 -0.54305188918892

