%nproc=4
%Mem=2GB
# td=(NStates=1) CAM-B3LYP/6-31G(d,p) 

TD

0 1
 8  14.96294451345135 -1.80033750485048 -0.48192704570457
 8 -14.66705330233023  2.16064792079208  0.62752184618462
 6  11.57441073507351 -1.00693132723272  1.16644000500050
 6 -12.36975460746075 -0.83187574757476  0.61161668366837
 6  13.16745547754775 -1.24858789688969  1.10389796179618
 6 -13.60289289828983 -0.01712787278728  0.58246714271427
 6  13.54604659865987 -1.65916144324432 -0.30250513951395
 6 -13.43267560756076  1.50813361136114  0.64828661266127
 6  10.99295782178218 -0.26671088718872 -0.07435168116812
 6 -11.37056415741574 -0.27778880788079 -0.22467322132213
 6  13.10438465746575 -0.65501625872587 -1.42612348534853
 6 -12.68097885788579  1.89731770877088 -0.57831487348735
 6  11.63492823982398 -0.19527990109011 -1.28951746774677
 6 -11.59429301930193  1.00473679667967 -0.80053959295930
 6  11.19546027302730 -0.14226338443844  2.40414085508551
 6  10.78503794479448 -2.36968744984498  1.36762488248825
 6 -11.80789298329833 -0.79591141914191  2.11440002000200
 6 -12.77048775077508 -2.29232467546755  0.30528243224322
 6  9.55399022502250  0.31025206210621  0.16329300930093
 6 -10.14247561456146 -0.99501358635864 -0.40892957395740
 6  11.01995476047605  0.34961942684268 -2.46475068206821
 6 -10.68744118311831  1.68090847484748 -1.87807711471147
 6  9.21141110811081  1.51247468536854 -0.13895926992699
 6 -8.80706119111911 -0.64128768576858 -0.30927197319732
 6  7.90822680868087  2.23413315321532  0.01905757475748
 6 -7.62830797279728 -1.30467480058006 -0.51083641564156
 6  8.05671615261526  3.69049725462546  0.33773513951395
 6 -7.80299140514051 -2.77456720482048 -0.88361853685369
 6  6.81123653065307  1.54049404330433 -0.08288829482948
 6 -6.41771357435744 -0.73267874297430 -0.25835884188419
 6  5.41807235923592  1.95375308220822  0.15384030003000
 6 -5.13989511151115 -1.25522539863986 -0.29544171817182
 6  4.41166509750975  1.13377879177918 -0.04010963996400
 6 -3.88822424242424 -0.54542074817482 -0.12918024802480
 6  3.07817042204220  1.46409700760076  0.19691135613561
 6 -2.58657242124212 -1.00542487258726 -0.23631129112911
 6  2.68936921792179  2.84024347324732  0.73562627162716
 6 -2.39880537453745 -2.39348665076508 -0.90825186518652
 6  2.06329590459046  0.44637180108011  0.04216509150915
 6 -1.59214053705371 -0.15942623672367  0.03237141014101
 6  0.66930409940994  0.59909467736774  0.30687656765677
 6 -0.20611948094809 -0.30195230033003 -0.14241188118812
 1  13.72956222822282 -0.43876731183118  1.47307214521452
 1  13.32721795779578 -2.02237281838184  1.75176530853085
 1 -14.15236801380138 -0.37930808780878  1.47588479447945
 1 -14.14890625762576 -0.27476439943994 -0.27519913991399
 1  13.11801700370037 -2.56593133623362 -0.55408347334733
 1 -12.78554401540154  1.79286380438044  1.46972644564456
 1  13.75469640164016  0.23617089698970 -1.14114999899990
 1  13.19609110211021 -1.11997422452245 -2.40041071707171
 1 -13.51167671167117  1.78649997099710 -1.35403333633363
 1 -12.38310691769177  2.92646471047105 -0.60013689668967
 1  11.74725334533453 -0.62398312441244  3.24323898489849
 1  10.13949981498150 -0.03240275037504  2.73213209420942
 1  11.66045531553155  0.78316804970497  2.41893102810281
 1  10.94622362536253 -2.87491807190719  0.22058744474448
 1  11.15043596059606 -2.96462137923792  2.26522644664466
 1  9.76881288228823 -2.20556154925493  1.64149909290929
 1 -11.47220412041204  0.12798836983698  2.33504739773977
 1 -11.00501501050105 -1.44155131013101  2.20346635063506
 1 -12.59914107310731 -1.29559046404640  2.80767336333633
 1 -13.76756653765376 -2.40007125912591  0.85430993999400
 1 -11.97152020002000 -2.81728375637564  0.59700475647565
 1 -12.85099545754576 -2.24012432043204 -0.77584605860586
 1  8.98809063306331 -0.43091141124112  0.60418460246025
 1 -10.22370210221022 -2.10744446844684 -0.45109474247425
 1  9.79308172717272  0.38570866876688 -2.30699540254025
 1  11.28198663366337  1.38248253915392 -2.79390910491049
 1  11.11659589458946 -0.38480896799680 -3.48876600660066
 1 -11.31370237723772  2.44143737273727 -2.45120661366137
 1 -10.09034457345735  0.92444308130813 -2.60720532653265
 1 -9.98940069506951  2.28703731673167 -1.10584418041804
 1  15.36167272027203 -2.44441334643464  0.04248614161416
 1 -15.09216865186518  2.19914482848285  1.58457666266627
 1  10.08937441944194  2.03395669956996 -0.44822413741374
 1 -8.67839453645365  0.41792389038904 -0.05265007800780
 1  8.48709157115712  4.31583143604360 -0.37813411641164
 1  7.17281067006701  4.10361577047705  0.48222405540554
 1  8.52587729772977  3.79284217111711  1.30307332533253
 1 -8.35347237723772 -3.35456238533853  0.11198535953595
 1 -8.23970972697270 -2.96188520262026 -1.70251658165817
 1 -6.71714056305631 -3.36506015811581 -0.86731352335233
 1  6.98960062306231  0.71471521442144 -0.37371076307631
 1 -6.61647190919092  0.40436027592759  0.15638326132613
 1  5.34359374337434  3.01458660656066  0.38233048804880
 1 -5.19644346434644 -2.24614592169217 -0.44475187518752
 1  4.58592169116912  0.06906515241524 -0.33463187418742
 1 -4.00227573157316  0.39139425632563  0.05653844984498
 1  3.32002978797880  3.00225426732673  1.62078827982798
 1  1.62302895589559  3.11877054795480  1.04398680668067
 1  3.27556157815782  3.61346918081808  0.10439994399440
 1 -3.04090622762276 -3.11999914701470 -0.30269331333133
 1 -2.57852736073607 -2.40231135123512 -1.97614158115812
 1 -1.36641344034403 -2.59597977307731 -0.84735777177718
 1  2.36397355535553 -0.57001565266527 -0.03348125212521
 1 -1.65781518251825  0.73762368026803  0.73952733973397
 1  0.37916366336634  1.73783648954896  0.39575537053705
 1  0.15487825782578 -1.29673962406241 -0.34506209020902

