%nproc=4
%Mem=2GB
# td=(NStates=1) CAM-B3LYP/6-31G(d,p) 

TD

0 1
 8  14.59353757275728 -2.25443291439144 -0.54633348634864
 8 -14.85410200720072  1.95277713371337  0.45229432343234
 6  11.37455074907491 -1.03371400550055  1.20082344334433
 6 -12.28473610561056 -0.93839639963996  0.70268579057906
 6  12.95667439943995 -1.39509254735474  0.93107067906791
 6 -13.65195780478048 -0.21888804880488  0.61311020702070
 6  13.19583157715772 -1.84562008910891 -0.43474836383638
 6 -13.59135147514752  1.31724452245225  0.60269205320532
 6  10.84035256125613 -0.31078529462946  0.05090084408441
 6 -11.21503860486049 -0.25585661466147 -0.18759951395140
 6  12.78267248624862 -0.96313707080708 -1.51034190719072
 6 -12.73712447244725  1.73829180618062 -0.66045308730873
 6  11.42330707770777 -0.29821019411941 -1.20175869186919
 6 -11.51421501150115  0.87959428242824 -0.87591713071307
 6  11.15024575157516 -0.32430158825883  2.45463590459046
 6  10.58792823382338 -2.36348682978298  1.31107922792279
 6 -11.73959615361536 -0.83696552455246  2.12082066206621
 6 -12.44608531053105 -2.34254969796980  0.32324422842284
 6  9.51927675367537  0.39841087798780  0.16705338533853
 6 -9.94654602160216 -1.00136422142214 -0.44990367136714
 6  10.85283804880488  0.27962242714271 -2.52727693469347
 6 -10.49949238823882  1.56212659665967 -1.76450575757576
 6  9.33146311331133  1.69582302020202 -0.14761013501350
 6 -8.77002748774878 -0.56775033203320 -0.29324037003700
 6  8.04956094209421  2.32082182208221  0.05744141314131
 6 -7.48839398139814 -1.34930926402640 -0.40541587358736
 6  8.16345682668267  3.83598180308031  0.32152351835184
 6 -7.62239334533453 -2.76908665676568 -0.86757693269327
 6  6.91495690269027  1.67256725062506  0.04798479247925
 6 -6.32209401240124 -0.73692916801680 -0.17806081208121
 6  5.63432398439844  2.06453416031603  0.30018493449345
 6 -4.95438656065607 -1.18200807690769 -0.29851202520252
 6  4.47760169116912  1.24795020892089  0.20530490149015
 6 -3.97973339333933 -0.33254946104610 -0.02455978597860
 6  3.09569217421742  1.70253085098510  0.28569023402340
 6 -2.55202896689669 -0.79673400350035 -0.22510017001700
 6  2.75142542354235  3.15246469536954  0.70813352235224
 6 -2.20531602560256 -2.24178148024802 -0.63410445044504
 6  2.15915549054905  0.75217238113811 -0.03369249424943
 6 -1.64821614461446  0.05455516141614 -0.04849667666767
 6  0.76625379437944  0.84723949184918  0.03314919491949
 6 -0.13149201820182 -0.18226033113311 -0.27585522552255
 1  13.46624589658966 -0.50755419051905  1.15659049704971
 1  13.47365260126013 -2.05771635273527  1.58593872587259
 1 -14.05482825982598 -0.58741889888989  1.60206741274127
 1 -14.33141450845085 -0.71609853285328 -0.11558317831783
 1  12.61101630363036 -2.82870761386139 -0.48990705570557
 1 -13.04791025202520  1.60133465146515  1.53822329532953
 1  13.46339727172717  0.09526680658066 -1.72604848884889
 1  12.68153964696470 -1.59160138723872 -2.37866854285429
 1 -13.50465600960096  1.72913423442344 -1.49009694269427
 1 -12.47127573457346  2.85807787178718 -0.66266314931493
 1  11.72965158515852 -0.79882060816082  3.38592325332533
 1  10.13058892389239 -0.31678118821882  2.81869075007501
 1  11.76478574857486  0.68837857075708  2.50245938093809
 1  10.56237524052405 -2.88159873997400  0.35753113911391
 1  10.78995991299130 -2.77041195829583  2.31668159215922
 1  9.55232123312331 -2.11121211431143  1.46596153915392
 1 -11.44031093109311  0.22035760676068  2.21217511051105
 1 -10.90464497349735 -1.40850800580058  2.35429143314331
 1 -12.54391555055506 -1.21349225422542  2.87846044204420
 1 -13.27807758875887 -2.88196944894489  1.00473498249825
 1 -11.54105715371537 -2.89627165516552  0.48625368136814
 1 -12.68580893889389 -2.60276058405841 -0.81878035203520
 1  8.79463128712871 -0.11951027112711  0.57606179017902
 1 -10.16054578657866 -2.04281800580058 -1.06604623762376
 1  9.84408682768277  0.72872297019702 -2.33887859085909
 1  11.50724915991599  1.18155244614461 -2.84453416741674
 1  10.73265750075008 -0.56153664076408 -3.36090322032203
 1 -10.84221522852285  2.21837506650665 -2.65378687168717
 1 -9.79853539253926  0.92828346534653 -2.15556016201620
 1 -10.00611236623662  2.35827444044404 -1.21080467646765
 1  14.66356290929093 -2.97184608970897  0.01470336333633
 1 -15.28262769776978  1.41813672767277  1.30114831983198
 1  10.27668315031503  2.20988429232923 -0.41929124412441
 1 -8.78260495749575  0.36074817281728  0.14436962396240
 1  8.98837169916992  4.15004485738574 -0.43602990599060
 1  7.23164655365537  4.39647505640564  0.42306813981398
 1  8.56954166416642  3.95189807670767  1.35403842184218
 1 -8.38780581058106 -3.32612954205421 -0.32208804780478
 1 -8.12397815381538 -2.82921193529353 -1.85054138413841
 1 -6.75784463346335 -3.39999365146515 -1.01240803280328
 1  7.18865052805281  0.55881962486249 -0.31731512351235
 1 -6.46335659765977  0.22863270317032  0.19737736073607
 1  5.39961934593459  3.02769791769177  0.51885414041404
 1 -4.73581740174017 -2.12118342544254 -0.79366676667667
 1  4.55461856085609  0.19162740864086  0.22868445744574
 1 -4.02527803180318  0.62710782768277  0.28807160316032
 1  3.30995878087809  3.27488153005300  1.75425162616262
 1  1.65596224922492  3.52735140604060  0.89144155215522
 1  3.20591461346135  3.84004183808381 -0.04217471347135
 1 -2.74288642564257 -3.06744389148915  0.18273522952295
 1 -2.53378288628863 -2.45645676577658 -1.83096706370637
 1 -1.06346314531453 -2.45452562766277 -0.86886992299230
 1  2.50477763576358 -0.23830248134814 -0.25362326632663
 1 -1.85844524552455  1.14539445734573  0.14109749674967
 1  0.32195794279428  1.74201690759076  0.38996479147915
 1  0.31168393839384 -1.12834278437844 -0.53378096209621

