%nproc=4
%Mem=2GB
# td=(NStates=1) CAM-B3LYP/6-31G(d,p) 

TD

0 1
 8  14.75230344934493 -2.25485295639564 -0.47925677867787
 8 -14.79638623562356  1.91390324632463  0.70491958595860
 6  11.53139643364336 -1.07375800990099  1.20602396339634
 6 -12.33604123612361 -0.92051461146115  0.98927444944494
 6  13.10209894189419 -1.46745978407841  0.97758533053305
 6 -13.68827143614361 -0.24733089308931  0.82130102610261
 6  13.30852284628463 -2.03225875297530 -0.30545543454345
 6 -13.59078141814181  1.32758555655566  0.71043282728273
 6  10.95583410941094 -0.33921813791379  0.01494724872487
 6 -11.40620772177218 -0.26807783678368 -0.17957871187119
 6  13.04636885588559 -0.89711046814681 -1.33745461846185
 6 -13.00561132113211  1.56649462646265 -0.64980202220222
 6  11.65449019601960 -0.25692606570657 -1.14992350835084
 6 -11.71823541354135  0.75142146514651 -0.86370590959096
 6  11.41708243524353 -0.33727288538854  2.47963840484048
 6  10.65729517051705 -2.42949343044304  1.34753287328733
 6 -11.51583377737774 -0.66252808080808  2.32213079307931
 6 -12.49692039403940 -2.41687713071307  0.80644254825483
 6  9.65531035703570  0.30872190909091  0.32020870087009
 6 -10.15953732073207 -1.06075016001600 -0.36201488248825
 6  11.33747651265126  0.61945641054105 -2.36191039803980
 6 -10.81643408240824  1.24393477747775 -2.02737204420442
 6  9.29624959195920  1.66458989688969 -0.01315668966897
 6 -8.84344482948295 -0.50626418341834 -0.43179422542254
 6  8.05824181018102  2.23402314221422  0.12060772977298
 6 -7.69659480148015 -1.22083641674167 -0.54040937293729
 6  8.13496397739774  3.76866507140714  0.51733309930993
 6 -7.73091419741974 -2.70421016911691 -0.95312548754875
 6  6.87186259325933  1.60063005690569  0.09295928992899
 6 -6.44425622862286 -0.53156863196320 -0.49693269926993
 6  5.52573312531253  2.04150185708571  0.27590250625063
 6 -5.14145526752675 -1.08068794489449 -0.61921409540954
 6  4.46942087308731  1.23714912881288  0.03201757275728
 6 -4.05519093909391 -0.40816702280228 -0.34209153915392
 6  3.05287789278928  1.62331292919292  0.23984564956496
 6 -2.63748751275127 -0.70668499859986 -0.53143080308031
 6  2.80290057105711  3.04901435033503  0.64880758975898
 6 -2.34450994499450 -2.09034633673367 -0.73939497949795
 6  2.14402397739774  0.77467463136314 -0.12774189918992
 6 -1.60055137813781  0.17477718361836 -0.38337016401640
 6  0.65028219721972  1.00619538743874 -0.18750287028703
 6 -0.20343921292129  0.00111800670067 -0.40300794079408
 1  13.71537080908091 -0.61554498959896  0.96399123712371
 1  13.33994923092309 -2.21800238133813  1.76913704570457
 1 -14.48120089708971 -0.48605876287629  1.58827603360336
 1 -14.25681704870487 -0.70416733973397 -0.07036865686569
 1  12.83287848984899 -2.99887463056306 -0.54873293829383
 1 -12.90842630363036  1.72779729772977  1.31218069106911
 1  13.90813174517452 -0.09267198729873 -1.37642352635264
 1  13.24995648864886 -1.32670489758976 -2.32747342334233
 1 -13.72244778877888  1.19691101210121 -1.36784471747175
 1 -12.85655426242624  2.72591465546555 -0.91281816481648
 1  11.53703232323232 -0.86192691879188  3.43816847784779
 1  10.43506937193719  0.16931742164216  2.42865174617462
 1  12.18685795579558  0.37885761866187  2.51687082208221
 1  10.81882088508851 -2.94704528462846  0.31448683468347
 1  11.12389330633063 -3.15583050015002  2.20714063806381
 1  9.57673367436744 -2.35615660876088  1.78173311631163
 1 -11.23901080108011  0.49963553455345  2.57589148214822
 1 -10.59049355835584 -1.29688684368437  2.10841684568457
 1 -12.02483364236424 -1.20607151215122  3.03667626362636
 1 -13.24323410441044 -2.67423867586759  1.54842935193519
 1 -11.61689473747375 -3.07456948494850  1.17790284628463
 1 -12.65580593859386 -2.71819212721272 -0.20578905290529
 1  8.91795361936194 -0.19972829292929  0.82554673867387
 1 -10.30632036403641 -2.20007373137314 -0.28628826182618
 1  10.26246866586659  1.07770786868687 -2.20004470747075
 1  12.14019245424543  1.39359365026503 -2.19883959795980
 1  11.52576681168117  0.11328084098410 -3.21261839183918
 1 -11.22579358635864  1.64414764376438 -2.91140263326333
 1 -10.14034957395740  0.38119875687569 -2.26521112711271
 1 -10.20573232823282  2.15918453145315 -1.67546114211421
 1  14.97101365436544 -3.09346825192519 -0.12624073107311
 1 -15.13263269826983  1.98800371437144  1.65173337833783
 1  10.07227270927093  2.19863316721672 -0.48991830683068
 1 -8.81669836683668  0.49107120512051 -0.14091890489049
 1  8.88290115211521  4.29492934583458 -0.27815411841184
 1  7.04828821782178  4.05496090499050  0.77833366636664
 1  8.74805951595159  3.79889277617762  1.49336235423542
 1 -8.35397242724272 -3.35764269336934 -0.24343018201820
 1 -8.14055981198120 -2.64152316641664 -1.94475080508051
 1 -6.71356020502050 -3.00412406450645 -1.14516130813081
 1  6.93142480548055  0.44442818571857 -0.21364475647565
 1 -6.63983424542454  0.42901274117412 -0.21100347734774
 1  5.17828721272127  2.99951509940994  0.63882613761376
 1 -5.00390421042104 -2.11874318141814 -0.99752715271527
 1  4.59868296729673  0.15098334423442 -0.36896530753075
 1 -4.23090859485949  0.65449056595660  0.15145794179418
 1  3.61571935693569  3.30872491439144  1.41712791379138
 1  1.80414706770677  3.20961963286329  1.21702411041104
 1  3.18031205320532  3.65350318421842 -0.25037553355336
 1 -2.92025416241624 -2.60556770387039  0.09734669066907
 1 -2.95401490949095 -2.39151027112711 -1.73372733973397
 1 -1.40409720872087 -2.32645282038204 -0.93508654465447
 1  2.22193935193519 -0.35113376447645 -0.48466637063706
 1 -1.86349575057506  1.14025394329433  0.01111449844985
 1  0.36345209220922  2.01493419931993 -0.11141534653465
 1  0.09306207620762 -1.18588853895390 -0.69957754175418

