%nproc=4
%Mem=2GB
# td=(NStates=1) CAM-B3LYP/6-31G(d,p) 

TD

0 1
 8  14.71563978297830 -2.15145261636164 -0.46122497549755
 8 -14.75313191019102  2.05549740574057  0.64221331533153
 6  11.44178747274727 -1.15429606370637  1.17461082208221
 6 -12.39362699469947 -0.95833839383938  0.66178170017002
 6  12.89889862186219 -1.45355839393939  1.02682025402540
 6 -13.82087469646965 -0.18540470047005  0.59323821982198
 6  13.30071206520652 -1.93389891699170 -0.43313820282028
 6 -13.56242858285829  1.33622642064206  0.72641442544254
 6  10.94610313631363 -0.31383559965997 -0.03786803280328
 6 -11.33774087508751 -0.23320434943494 -0.20470122412241
 6  13.04297851685168 -0.86344710181018 -1.37909878287829
 6 -12.61098185818582  1.80362833983398 -0.48241528352835
 6  11.60798554555456 -0.33084345744574 -1.19992850885089
 6 -11.40495408540854  0.97753407640764 -0.82463200220022
 6  11.36061678867887 -0.26336549464946  2.37028746974697
 6  10.66989643064306 -2.44475495659566  1.33871199119912
 6 -11.74943713771377 -0.85128695669567  2.16050463046305
 6 -12.60439114111411 -2.45233067606761  0.28616052005201
 6  9.59481430743074  0.27066810371037  0.07294397439744
 6 -10.06649801680168 -1.03082716771677 -0.50983966496650
 6  11.08406117111711  0.44454891979198 -2.45807001400140
 6 -10.57454989398940  1.51477186118612 -1.84732403940394
 6  9.28214818181818  1.61691512941294 -0.03280865486549
 6 -8.83216370137014 -0.68307186418642 -0.35171621762176
 6  8.03829981598160  2.26327606750675  0.21938760776078
 6 -7.55312045404540 -1.41439577267727 -0.59423475547555
 6  8.08705918691869  3.75719392429243  0.50509187518752
 6 -7.61794290029003 -2.85264501260126 -0.85112528752875
 6  6.86093150015001  1.52898289218922  0.00257025102510
 6 -6.39753155615562 -0.74780025512551 -0.38723172917292
 6  5.54026457845785  2.12255996289629  0.18162307830783
 6 -5.05072619461946 -1.25584546064606 -0.35481765576558
 6  4.41452538353835  1.30688610251025 -0.00677630663066
 6 -3.98288370837084 -0.46151235733573 -0.06718404840484
 6  3.09031163616362  1.84804540244024  0.06995866086609
 6 -2.57393115711571 -0.78749307940794 -0.12395005500550
 6  2.72279256025603  3.18738818771877  0.56280898989899
 6 -2.23148864286429 -2.27801510361036 -0.36243728372837
 6  2.08748832383238  0.88280544444444 -0.00594971997200
 6 -1.61116243924392  0.13920362626263 -0.03320514751475
 6  0.64740190919092  0.93225799369937 -0.06957107710771
 6 -0.25757462646265 -0.00135224032403 -0.20306794679468
 1  13.56262553455346 -0.62375581068107  1.13954879287929
 1  13.23754899089909 -2.37323790489049  1.75515564756476
 1 -14.43398617561756 -0.44873503050305  1.45782298829883
 1 -14.31539290629063 -0.33258018101810 -0.40833245324532
 1  12.78723392539254 -2.82053679677968 -0.58674673967397
 1 -12.89412487348735  1.63404792279228  1.63023249624963
 1  13.60612154415442 -0.03583630373037 -1.45855173917392
 1  13.08548004100410 -1.23497572467247 -2.41223189918992
 1 -13.38596414041404  1.55305662666267 -1.34985291829183
 1 -12.57038564556456  2.84950701470147 -0.47277416041604
 1  11.67991661166117 -0.76893761986199  3.31832649364937
 1  10.44610047504750  0.12444293419342  2.55158403940394
 1  12.00240951095109  0.59277901080108  1.93887302230223
 1  10.64318332133213 -2.94296487658766  0.36574196019602
 1  10.79194011101110 -3.05868078517852  2.19408933293329
 1  9.49867586858686 -2.21984297739774  1.63280822382238
 1 -11.56169306930693  0.10040561156116  2.32012590559056
 1 -10.73642815181518 -1.49209636463646  2.29690569456946
 1 -12.61328248724872 -1.45248615361536  2.77688028402840
 1 -13.29516929792979 -2.89072032403240  1.07333184218422
 1 -11.89518256625663 -3.35354738273827  0.38747380338034
 1 -13.28801915991599 -2.34585489348935 -0.72435090909091
 1  8.96028785278528 -0.28599691979198  0.67514169816982
 1 -10.26051578357836 -2.28937266126613 -0.28321795479548
 1  10.01974439343934  0.64596469436944 -2.57613231623162
 1  11.65873430843084  1.39463375427543 -3.01432114611461
 1  11.29948418341834 -0.28436892399240 -3.28740587058706
 1 -11.30390139713971  1.59813304230423 -2.82896438943894
 1 -9.75303084208421  0.92785342234223 -2.21554616061606
 1 -10.05096685168517  2.39778839183918 -1.52354595059506
 1  14.96371292429243 -2.94207311241124  0.02216410941094
 1 -15.51351078607861  1.92088700270027  1.35679388438844
 1  10.16165164716472  2.35750905480548 -0.44634394939494
 1 -8.72796949394940  0.47949004700470 -0.37652246524652
 1  8.68416127812781  4.10625047794780 -0.38935523852385
 1  7.20692408140814  4.33667907680768  0.83898973197320
 1  8.53288799879988  3.97871075797580  1.39140215821582
 1 -8.08941597159716 -3.50617754685469 -0.05559139813981
 1 -8.42788854485449 -2.92811182528253 -1.69560589058906
 1 -6.66789563856386 -3.26979063116312 -1.09896668866887
 1  7.25240690369037  0.56073981688169 -0.31294468646865
 1 -6.59747000900090  0.34836467636764 -0.02836521352135
 1  5.46557594159416  3.13804895279528  0.44100635563556
 1 -4.82371619161916 -2.37254856195620 -0.50795819581958
 1  4.41826492549255  0.24402264816482 -0.38190660166017
 1 -4.27429293329333  0.65395051195120  0.03869666566657
 1  3.25776356135614  3.30990503240324  1.47666386738674
 1  1.71176782978298  3.32270094099410  0.84013642164216
 1  3.09920394239424  3.94381221512151 -0.16625712171217
 1 -3.04470660766077 -2.91508865596560  0.23318027402740
 1 -2.36115562356236 -2.34011513161316 -1.64093806080608
 1 -1.13051985098510 -2.68195837093709 -0.22232526852685
 1  2.52216937493749 -0.06739539063906 -0.36347425142514
 1 -1.86389579057906  1.23506342424242 -0.02953956695670
 1  0.22431817881788  1.94085679157916  0.15898169316932
 1  0.27908067806781 -1.05169511961196 -0.21314889888989

