%nproc=4
%Mem=2GB
# td=(NStates=1) CAM-B3LYP/6-31G(d,p) 

TD

0 1
 8  14.75705392439244 -2.08071554265427 -0.35797465046505
 8 -14.80637723472347  1.95220707670767  0.84106320032003
 6  11.51116441044104 -1.08723935803580  1.19088244924492
 6 -12.33662129412941 -0.90985354535454  0.81536705870587
 6  12.99779851185119 -1.34647768586859  1.18231580358036
 6 -13.66062867186719 -0.20075623562356  0.77580647664766
 6  13.35758775277528 -1.83038856595660 -0.27009189818982
 6 -13.54112645264527  1.29590238823882  0.77660944494449
 6  11.02575110111011 -0.32866708280828  0.08180393439344
 6 -11.40236733773377 -0.33221425042504 -0.37257801180118
 6  13.08379259825982 -0.80589134623462 -1.32935380838084
 6 -12.85370613061306  1.74512248924892 -0.42751979397940
 6  11.75337008400840 -0.27274764786479 -1.08367688368837
 6 -11.59864345434544  0.93154947794779 -0.75837537653765
 6  11.08605933293329 -0.39887904600460  2.62137257825783
 6  10.72205164616462 -2.39446992809281  1.37518563856386
 6 -11.60941313531353 -0.86407823582358  2.20065864586459
 6 -12.57205790779078 -2.38032347534753  0.49741164516452
 6  9.65127995399540  0.26612764966497  0.09651633163316
 6 -10.10572193919392 -1.06705079007901 -0.50810949194919
 6  11.33854661966197  0.48747321222122 -2.32982718971897
 6 -10.57713015201520  1.57566795079508 -1.71914122112211
 6  9.34698466546655  1.61334477237724  0.01491611761176
 6 -8.89882036703670 -0.50893445044504 -0.29240028602860
 6  8.07575356135614  2.22505224512451  0.18699436843684
 6 -7.62547768976898 -1.20631496459646 -0.51824715671567
 6  8.06526700770077  3.72074027892789  0.48776014201420
 6 -7.78949005500550 -2.69137888598860 -0.97172734773477
 6  6.90020542754275  1.63203319721972 -0.18713871987199
 6 -6.50027183018302 -0.56828230333033 -0.24650765676568
 6  5.51754230623062  2.10804851175118 -0.00144522852285
 6 -5.13047416941694 -1.06996687278728 -0.33632580658066
 6  4.50299423042304  1.26601201510151 -0.19737536653665
 6 -4.00546596659666 -0.34516072217222 -0.24979230923092
 6  3.04738734373437  1.62930352825283  0.02273393839384
 6 -2.64523828782878 -0.84328865896590 -0.40181784178418
 6  2.69275955695570  3.09586903580358  0.33060576957696
 6 -2.43408890289029 -2.25623292539254 -0.86183722372237
 6  2.13143271827183  0.63531069496950 -0.20788991399140
 6 -1.63122444544454 -0.01753204730473 -0.29040086708671
 6  0.67335450445045  0.76271103900390 -0.08021214121412
 6 -0.17267613661366 -0.17533963906391 -0.39652729272927
 1  13.61064033603360 -0.36800023512351  1.35551038903890
 1  13.36048128412841 -2.01799238033803  1.98533866586659
 1 -14.23600637763776 -0.46996715371537  1.62668987498750
 1 -14.11181254825483 -0.66090301330133 -0.06148776877688
 1  12.89093429542954 -2.89624436753675 -0.44885295029503
 1 -12.95039050005001  1.55839035703570  1.61843131613161
 1  13.72118305030503 -0.02915563566357 -1.27252313631363
 1  13.07053854685469 -1.24293652075208 -2.41399207520752
 1 -13.67258280228023  1.79914123512351 -1.35196312931293
 1 -12.67327593459346  2.75532759675968 -0.16980386338634
 1  11.54173279327933 -0.97916864296430  3.37260192119212
 1  10.06121198619862 -0.41031054115411  2.80609949094910
 1  11.44335360536054  0.56402613551355  2.65467460246025
 1  11.08451745474547 -3.15622620272027  0.74923030903090
 1  11.06283720072007 -2.83338825592559  2.34680460446045
 1  9.74288028902890 -2.45305629872987  1.35370031303130
 1 -11.66114301430143  0.26327189818982  2.52142603560356
 1 -10.53464797379738 -1.17204435943594  2.23774977897790
 1 -12.18369952895289 -1.26602750775078  2.97063965996600
 1 -13.30315009600960 -2.76558781078108  1.34204871387139
 1 -11.72775582358236 -2.92238426642664  0.57338239423942
 1 -13.22013237123712 -2.54447475547555 -0.56582505650565
 1  8.67428925292529 -0.51500982108211  0.30750493449345
 1 -10.40427015901590 -2.18378210221022 -0.78662829582958
 1  10.31991441044104  0.81633173107311 -2.41845654865487
 1  12.16179461446145  1.37692198309831 -2.34817453145315
 1  11.50038427342734 -0.11894238133813 -3.24041117111711
 1 -11.19313032003200  2.09900312931293 -2.49340083308331
 1 -9.82089762876288  0.79573021002100 -2.19480408640864
 1 -10.15381713671367  2.49715832883288 -1.23641723772377
 1  15.16060261326133 -2.36624552965297  0.47326921992199
 1 -15.13814324932493  1.36384129812981  1.53416162116212
 1  10.31427690969097  2.20570387428743 -0.17106642164216
 1 -8.73238993599360  0.55996809480948  0.20300548754875
 1  9.09695255725573  3.93478333123312  0.03593729072907
 1  7.05644903390339  4.24125953485349 -0.10795496249625
 1  8.12826753675368  3.95191807870787  1.59413243124312
 1 -8.30294732473247 -3.20987791689169 -0.25477131613161
 1 -8.25261101710171 -2.68846786088609 -1.80484681468147
 1 -6.74303315231523 -3.14633828592859 -1.18459525152515
 1  7.00530219321932  0.59045278817882 -0.67891128312831
 1 -6.54745500750075  0.39198903880388  0.10508813181318
 1  5.70820020402040  3.01040618851885  0.30601285628563
 1 -4.98355217521752 -2.26088739583958 -0.40553795379538
 1  4.49269236823682  0.30146839273927 -0.75636404740474
 1 -4.08015351935194  0.76945206210621 -0.12172937693769
 1  2.93441122612261  3.18606264816482  1.44110031103110
 1  1.67310396339634  3.05186385728573  0.33749615761576
 1  3.22346636863686  3.77009484338434 -0.37001749774978
 1 -2.91402353935394 -2.92917006410641 -0.15446849084909
 1 -2.87216672467247 -2.42104322442244 -1.69169313631363
 1 -1.45379217821782 -2.57237741284128 -1.01807484348435
 1  2.51557871587159 -0.42202085318532 -0.42664056805681
 1 -1.99254865586559  1.06386630453045 -0.11800841384138
 1  0.22384813181318  1.80181288718872 -0.03500770577058
 1  0.10642341234123 -1.29173912401240 -0.71240882488249

