%nproc=4
%Mem=2GB
# td=(NStates=1) CAM-B3LYP/6-31G(d,p) 

TD

0 1
 8  14.68221644064406 -2.16879435053505 -0.20071892489249
 8 -14.67594419141914  1.94491634763476  0.85379447344734
 6  11.47113040704070 -1.15970660476048  1.26335969696970
 6 -12.38398603060306 -1.02959551955196  0.87322284428443
 6  12.90460919291929 -1.51127416551655  1.20742831483148
 6 -13.60503311231123 -0.19955611561156  0.88036693269327
 6  13.20680267426743 -2.01532705980598 -0.17192208120812
 6 -13.39786212621262  1.26941973997400  0.84686647064706
 6  10.91536006200620 -0.39185340144014  0.02033778777878
 6 -11.35705280628063 -0.36072710171017 -0.13472422642264
 6  12.91116533553355 -1.02530328742874 -1.38703957695770
 6 -12.75137589758976  1.70376835383538 -0.37726476847685
 6  11.59608435543554 -0.37667804090409 -1.07028554455446
 6 -11.57621121112111  0.82500882388239 -0.75629516851685
 6  11.29512023902390 -0.35656481458146  2.60159060006001
 6  10.51487092809281 -2.46013649474948  1.35643376337634
 6 -11.69864205820582 -0.88596042404240  2.20256883688369
 6 -12.55353605560556 -2.54806024902490  0.52275417941794
 6  9.64995982198220  0.35871690859086  0.29158583858386
 6 -10.09978134513451 -1.06201028602860 -0.44717339833983
 6  11.12339510451045  0.26224068896890 -2.41239544654465
 6 -10.71735417441744  1.54018440244024 -1.61835114211421
 6  9.38164813181318  1.65099853775378  0.02932755875588
 6 -8.82024250925092 -0.64851840884088 -0.28600964696470
 6  8.06504249024902  2.32712245214521  0.16724239323932
 6 -7.57026216821682 -1.38271260436044 -0.49945527752775
 6  8.15755623662366  3.77689589448945  0.34289565556556
 6 -7.66450755675567 -2.73478322642264 -1.06517669266927
 6  6.91251665866587  1.64607460136014  0.06913690769077
 6 -6.39282108510851 -0.78922439753975 -0.28009101510151
 6  5.57128768076808  2.21393910081008  0.16573148914891
 6 -5.06208733073307 -1.17458733483348 -0.57979015301530
 6  4.44233816481648  1.46728214211421 -0.08837446644664
 6 -3.97484290429043 -0.38136434253425 -0.44169149914991
 6  3.04275688068807  1.92781337923792 -0.00797913291329
 6 -2.60201396539654 -0.76420075017502 -0.64352201220122
 6  2.72473275427543  3.34200364926493  0.34425713471347
 6 -2.20446594059406 -2.16640394249425 -1.06903794379438
 6  2.11805138013801  0.96151331523152 -0.25009413441344
 6 -1.62922424542454  0.17060676657666 -0.42001382838284
 6  0.68438560756076  1.13612838073807 -0.08463258325833
 6 -0.20067893689369  0.12589048394839 -0.54682232223222
 1  13.38110738273827 -0.56258969406941  1.45908074607461
 1  13.28863409940994 -2.44913549464947  1.85586571857186
 1 -14.19802257925793 -0.49651980898090  1.52199940594059
 1 -14.29837120412041 -0.34988191119112 -0.17939955995600
 1  12.71935713771377 -2.95549029212921 -0.40171823682368
 1 -12.81497695869587  1.57807232523252  1.51872134513451
 1  13.77474840684068 -0.23041576167617 -1.55642152615262
 1  12.78574006700670 -1.92759498659866 -2.31614229022902
 1 -13.52481802580258  1.80681200220022 -1.09828776177618
 1 -12.68787739473948  3.00702276627663 -0.26037292029203
 1  11.75310393039304 -0.72719344544454  3.45462012301230
 1  10.16932279727973 -0.49756926702670  2.76372525352535
 1  11.78390766076608  0.57810754365437  2.40099923492349
 1  10.23253225622562 -3.14358493859386  0.34228961496150
 1  10.88251916891689 -3.14138905600560  2.25743566756676
 1  9.58494449544954 -2.18763975707571  1.71355629862986
 1 -11.64704160416042  0.13624919591959  2.59426331933193
 1 -10.77285179417942 -1.34138129312931  2.18923492749275
 1 -12.31653281228123 -1.53458436343634  2.95489808580858
 1 -13.46220600160016 -2.93084433643364  1.32625713471347
 1 -11.64225727372737 -3.09351137913791  0.62092714871487
 1 -12.96899725772577 -2.81700200820082 -0.50037851185118
 1  8.80273209720972 -0.08466678677868  0.63691787578758
 1 -10.49401913391339 -2.09691341534153 -0.79615924892489
 1  10.02948536753675  0.47170726862686 -2.43227793079308
 1  11.70085852085209  1.14283857475748 -2.60792050605060
 1  11.43172740774077 -0.57301778887889 -3.22178930893089
 1 -11.23945495249525  2.12554578357836 -2.48360985398540
 1 -10.04770030903090  0.79081971897190 -2.11413601960196
 1 -9.92453420842084  2.32780139313931 -1.16891048704871
 1  14.85896244924492 -2.97896680178018  0.32726461946195
 1 -15.37520695569557  1.34292920692069  1.49196740174017
 1  10.17902338433843  2.21031433533353 -0.48385770077008
 1 -8.76718341534153  0.17346944494449  0.16597178417842
 1  8.49688255025502  4.28041789468947 -0.52156845984598
 1  7.21033442244224  4.34118952785279  0.44795062806281
 1  8.78447315731573  4.04629751665166  1.14953797179718
 1 -8.11442847284728 -3.53884081318132 -0.26927276627663
 1 -8.33494925092509 -2.62489150325032 -1.91298762876288
 1 -6.83772262126213 -3.31552520462046 -1.34299109110911
 1  7.06241790479048  0.63193693659366 -0.46964035603560
 1 -6.54439470147015  0.44798463836384 -0.02448482548255
 1  5.49740912491249  3.37724287218722  0.46294854985499
 1 -4.75576939693969 -2.25414672177218 -0.94655205520552
 1  4.68349144814481  0.32861110701070 -0.19753816481648
 1 -4.03163866786679  0.53080819771977  0.13637643364336
 1  2.86884466946695  3.52326636853685  1.43310951195120
 1  1.62338899189919  3.80267893879388  0.12136454445445
 1  3.37038106010601  4.06605443934393 -0.30766126212621
 1 -2.44660679767977 -2.94448159525953 -0.29242228622862
 1 -2.78700820882088 -2.30838195829583 -2.05741970897090
 1 -1.19921672067207 -2.18777895299530 -1.27606064206421
 1  2.49362652065206 -0.12340099119912 -0.29272717671767
 1 -2.09770917191719  1.10634055195520  0.02512589958996
 1  0.26729247624762  1.90576328222822  0.26314210921092
 1  0.27282005200520 -0.79095904600460 -0.74867245124512

