%nproc=4
%Mem=2GB
# td=(NStates=1) CAM-B3LYP/6-31G(d,p) 

TD

0 1
 8  14.62356057505751 -2.44617208830883 -0.24965381838184
 8 -14.72459905690569  1.90460231623162  0.78426752075208
 6  11.35999929392939 -1.10087072117212  1.18650201120112
 6 -12.21543917591759 -1.09936249624962  0.69779530153015
 6  12.89135786778678 -1.46523956205621  1.19419699169917
 6 -13.54278688768877 -0.26656281628163  0.66926582258226
 6  13.28278027202720 -2.03425895299530 -0.20414530353035
 6 -13.41342368236824  1.21896469446945  0.79177096109611
 6  10.95547407340734 -0.26691090719072 -0.07611185718572
 6 -11.22598969997000 -0.32753378237824 -0.23342409640964
 6  13.03849806880688 -0.99954071117112 -1.27467834083408
 6 -12.73511427142714  1.74642261926193 -0.44410145214521
 6  11.67681242824282 -0.27958833193319 -1.13222173817382
 6 -11.45009859985999  0.94894121712171 -0.66670620962096
 6  11.18322904990499 -0.26732589068907  2.46308674967497
 6  10.52071151215122 -2.40049053015302  1.27672579257926
 6 -11.75791798579858 -0.99453128112811  2.14276285628563
 6 -12.45903660566057 -2.34522996599660  0.19420132413241
 6  9.63397822382238  0.38134917181718  0.10364704470447
 6 -10.01085245224522 -1.15198928392839 -0.48211689268927
 6  11.33574633963396  0.57578204310431 -2.31966617361736
 6 -10.54698713771377  1.66384676867687 -1.69543885088509
 6  9.27534750175017  1.69996343424342 -0.24298967296730
 6 -8.83728421342134 -0.52079563656366 -0.37737878387839
 6  7.96848283428343  2.32440218011801 -0.07339167016702
 6 -7.59404454645465 -1.28482281538154 -0.45448078007801
 6  8.07455793679368  3.80893909880988  0.14873623962396
 6 -7.63471457745775 -2.83969371747175 -0.75859603460346
 6  6.86529193619362  1.55864585848585 -0.13452345834583
 6 -6.40116191919192 -0.62402787788779 -0.23844685068507
 6  5.51109166116612  1.90952865976598  0.19221413741374
 6 -5.10266138813881 -1.09767964406441 -0.44320649464946
 6  4.41463539453945  1.26267168106811 -0.17499312831283
 6 -4.06536195619562 -0.32272847894789 -0.18683601360136
 6  3.03041564656466  1.81102170007001  0.04626629162916
 6 -2.62895665966597 -0.75686001610161 -0.51616927692769
 6  2.82598287928793  3.12430187908791  0.62321503050305
 6 -2.35249074307431 -2.22291959405941 -0.70899193919392
 6  1.98549812481248  0.81372853675368 -0.04236336133613
 6 -1.66980830383038  0.19207891379138 -0.13506533353335
 6  0.59342651165117  1.07239200710071  0.05642152215222
 6 -0.31149001800180  0.07638553345335 -0.34106174617462
 1  13.64837410941094 -0.57697113221322  1.22174701270127
 1  13.19196443244324 -2.14971555265527  1.95454558655866
 1 -14.02627540454045 -0.61870202720272  1.60847805380538
 1 -13.98096946394640 -0.66965388838884 -0.22110373037304
 1  12.58702390439044 -2.82661740484048 -0.44283234823482
 1 -12.77325278627863  1.46537105510551  1.68685815881588
 1  13.91835276727673 -0.25060778087809 -1.00045592959296
 1  13.21617311031103 -1.46165839293929 -2.21638231423142
 1 -13.56340188418842  1.69713103410341 -1.22012994599460
 1 -12.33965257225723  2.78644070807081 -0.31870875387539
 1  11.28751737173717 -1.08412913901390  3.24911957295730
 1  10.29035490049005  0.37079756965697  2.55551443244324
 1  12.04390366036604  0.54431416431643  2.48895803080308
 1  10.74791379437944 -3.19376995709571  0.51939732573257
 1  10.76549746674668 -3.01073599069907  2.13490341434143
 1  9.34734073507351 -2.08561955505551  1.31030597359736
 1 -11.71689858985899 -0.07002143114311  2.62839673267327
 1 -10.79530403940394 -1.66223337833783  2.10012601660166
 1 -12.53601476047605 -1.45005591059106  2.76902949894990
 1 -13.10376015701570 -2.91182243424342  0.83305781478148
 1 -11.79623267126713 -3.16632866086609  0.20587564356436
 1 -12.72510286828683 -2.52639294729473 -0.98416689068907
 1  8.89835165916592 -0.03815213531353  0.82321650565057
 1 -9.98494822682268 -2.21291501550155 -0.61638127112711
 1  10.08968138713871  0.60780087798780 -2.49650435343534
 1  11.77878631363136  1.59963425432543 -2.05514522852285
 1  11.79978421342134  0.34123363626363 -3.46560369036904
 1 -11.31351235823582  1.84249747874787 -2.41998349134914
 1 -9.92557809680968  1.09489012601260 -2.32063666966697
 1 -10.12628438343834  2.44221283428343 -1.31910550655065
 1  14.99659621262126 -3.09632853795380  0.22111400440044
 1 -15.15241467646764  1.80391530553055  1.67491569656966
 1  10.09946542854285  2.29860316421642 -0.68305762076208
 1 -8.77204390139014  0.47437953595360 -0.04954976797680
 1  8.47566042804280  4.27223707660766 -0.77517382038204
 1  7.13926731573157  4.24007941684168  0.46755258825883
 1  9.04650936093609  4.13754664156416  1.03128614661466
 1 -8.39235626562656 -3.20284721382138 -0.11753759275928
 1 -8.22017777377738 -3.06771578567857 -1.82791912191219
 1 -6.60060890989099 -3.34894854695470 -0.68126491849185
 1  6.88502016501650  0.61024476737674 -0.54412780478048
 1 -6.75459572157216  0.59652949284928 -0.28653103010301
 1  5.40039942394239  2.86935208310831  0.66296855185519
 1 -4.95323914391439 -2.15512681978198 -0.89519691969197
 1  4.31387448644865  0.26974522042204 -0.60440885188519
 1 -4.17647315131513  0.74361947884788  0.06704950095009
 1  3.16503428842884  3.13792783468347  1.84355055605561
 1  1.77528418141814  3.42287095799580  0.76220862886289
 1  3.40447446944694  3.93000083398340  0.16010551455146
 1 -2.90511264826483 -2.87921506860686  0.01975893189319
 1 -2.75026453445345 -2.40789190929093 -1.65655962296230
 1 -1.09271607060706 -2.42797297239724 -0.53086612261226
 1  2.38624578257826 -0.19461811291129 -0.20189809380938
 1 -2.18208760976098  1.18004792269227  0.12345573257326
 1  0.08709445644564  1.85493819971997  0.65483127812781
 1  0.00825359535954 -0.78007795789579 -0.68699628362836

