%nproc=4
%Mem=2GB
# td=(NStates=1) CAM-B3LYP/6-31G(d,p) 

TD

0 1
 8  14.75008322732273 -2.13604107520752 -0.52960181318132
 8 -14.78602519951995  2.11568342434243  0.58747784178418
 6  11.53101639563956 -0.95959659375938  1.23631699269927
 6 -12.34594222622262 -0.86813937393739  0.81472699469947
 6  13.06561529352935 -1.26982002010201  0.99846741874187
 6 -13.72099470847085 -0.08418457845785  0.67037593359336
 6  13.39121111511151 -1.82742826992699 -0.45200008900890
 6 -13.51874421442144  1.40943374137414  0.71371315531553
 6  10.98245677167717 -0.24723893999400 -0.02590683668367
 6 -11.32901000200020 -0.32082311131113 -0.24591534553455
 6  12.96244046304630 -0.83248400550055 -1.40794166716672
 6 -12.73926468646865  1.84061203820382 -0.45023206520652
 6  11.51454620162016 -0.24712508560856 -1.27704622062206
 6 -11.57221081108111  0.88326464946495 -0.88654819381938
 6  11.41634236123612 -0.15004416251625  2.48096853785379
 6  10.78682812381238 -2.34894537563756  1.52249036903690
 6 -11.66748894289429 -0.85166699469947  2.14747332733273
 6 -12.69425012701270 -2.27671311431143  0.39275117911791
 6  9.70183500950095  0.36829786668667  0.17118379837984
 6 -10.14647601460146 -1.07609169416942 -0.36774545554555
 6  11.12207497249725  0.37016148104810 -2.51547575457546
 6 -10.65668810781078  1.57144752875288 -1.86089539653965
 6  9.30490045704570  1.63389682758276 -0.12545791979198
 6 -8.86283676867687 -0.61725528252825 -0.33738478447845
 6  8.07188317431743  2.23469320922092  0.08177384638464
 6 -7.63345848784878 -1.32525685878588 -0.54112944494449
 6  7.99734021502150  3.77994619951995  0.47780914691469
 6 -7.73213431943194 -2.76374612271227 -0.83829400440044
 6  6.97146255325533  1.53511350525052  0.05777577157716
 6 -6.43914571757176 -0.80211568666867 -0.33079608560856
 6  5.53291384338434  1.95573328022802  0.28587350335034
 6 -5.09153027502750 -1.32192206830683 -0.47495966996700
 6  4.47433136413641  1.12250766466647  0.10456482748275
 6 -3.99918533853385 -0.54726093219322 -0.18096542654265
 6  3.08027063206321  1.50400099799980  0.22125379037904
 6 -2.62960672467247 -0.84330866096610 -0.41834949494949
 6  2.73038331933193  2.97931738063806  0.69539224822482
 6 -2.31044653865387 -2.28064536663666 -0.83205424542454
 6  2.08204777977798  0.61490865476548 -0.01138026302630
 6 -1.66721804480448  0.08105781168117 -0.11107293429343
 6  0.69563673267327  0.87694246214621 -0.03884800480048
 6 -0.23927279627963 -0.09995210031003 -0.22402004200420
 1  13.43374264626463 -0.47805124022402  1.30451528952895
 1  13.47255249124913 -2.14721530263026  1.80567069906991
 1 -14.38562133913391 -0.41286144314431  1.50197740374037
 1 -14.40460182718272 -0.37113403640364 -0.31410303030303
 1  12.97755295729573 -2.77606234933493 -0.47881594659466
 1 -12.85259072007201  1.81825634363436  1.41230070307031
 1  13.80642157415742 -0.01641436153615 -1.37269315331533
 1  13.02609410241024 -1.44598682578258 -2.43641431743174
 1 -13.47623316731673  1.95602692369237 -1.26613454645465
 1 -12.35541414841484  2.89822188618862 -0.34673155615562
 1  11.71628024802480 -0.53079380548055  3.42660732173217
 1  10.42864872987299 -0.00534004410441  2.66178505950595
 1  11.73619288928893  0.85046477937794  2.26140527552755
 1  10.65802480548055 -2.83966454655466  0.36999238523852
 1  11.16914783178318 -3.11940685778578  2.30395031903190
 1  9.79894589558956 -2.03087408050805  1.62940788378838
 1 -11.19815671567157  0.29222479347935  2.12635652865287
 1 -10.70710521952195 -1.59392654765477  2.32599860386039
 1 -12.51191235023502 -0.88356926192619  2.98749134513451
 1 -13.48269805080508 -2.79624087608761  1.00698520752075
 1 -12.08189123712371 -3.01685371337134  0.57276233223322
 1 -13.23154351235124 -2.17113742174217 -0.66032450645064
 1  9.02662448644864 -0.21928024812481  0.61729591359136
 1 -10.27641737373737 -2.27293101710171 -0.41368100110011
 1  10.04271669066907  0.52355245314531 -2.40412511551155
 1  11.46583501850185  1.32063635453545 -2.56023573757376
 1  11.15958019301930 -0.30068055515552 -3.42539966996700
 1 -11.18776978397840  2.14182741174117 -2.60294178717872
 1 -9.90808634763476  0.79261989898990 -2.13642824882488
 1 -9.91924367936794  2.26548516151615 -1.35639923592359
 1  14.92397895089509 -2.72882178727873  0.20103199619962
 1 -15.39980941594159  2.06888180218022  1.26010421542154
 1  10.10714619661966  2.26809011291129 -0.61000031503150
 1 -8.67682437943794  0.29191128912891 -0.06301111411141
 1  8.49562242424242  4.36476632953295 -0.10014631763176
 1  7.05800918991899  4.36195160406041  0.62468830183018
 1  8.30319502950295  3.66002888978898  1.54644766276628
 1 -8.38080511051105 -3.33989091819182 -0.20225606460646
 1 -7.97918367436744 -2.83602261636164 -1.93845017501750
 1 -6.72878172717272 -3.22318597069707 -0.85947273927393
 1  6.88633029602960  0.51846558945895 -0.27471086308631
 1 -6.27303756575658  0.22002184208421 -0.07880025702570
 1  5.39597898189819  2.79432458035804  0.70632288728873
 1 -4.65997981798180 -2.46827813491349 -0.67419481948195
 1  4.61985508450845  0.21411965786579 -0.38449686068607
 1 -4.25349085308531  0.50334545144514  0.22242503850385
 1  3.51043882888289  3.28498254015402  1.45373157415742
 1  1.73537019001900  3.17420609150915  1.09417182518252
 1  2.94941896389639  3.52034986888689 -0.41945244124412
 1 -2.57567970497050 -3.10246739383938 -0.23054609860986
 1 -2.91153066106611 -2.52065318541854 -1.72381634863486
 1 -1.28229502850285 -2.53413358845885 -0.98556159215922
 1  2.41367852585259 -0.26131478257826 -0.29103700770077
 1 -2.15191459245925  1.01986190409041  0.14591797879788
 1  0.06381212821282  1.62361506740674  0.20089588458846
 1  0.10591336133613 -1.00494044414441 -0.66729431343134

