%nproc=4
%Mem=2GB
# td=(NStates=1) CAM-B3LYP/6-31G(d,p) 

TD

0 1
 8  14.74194241324132 -2.13371084218422 -0.36245509850985
 8 -15.02522911991199  1.82551440744074  0.73459255325533
 6  11.53608690269027 -1.08346898099810  1.26366972797280
 6 -12.26614424642464 -0.85615817581758  0.86581210321032
 6  12.99030776277628 -1.46192923102310  1.16998457045705
 6 -13.64401701070107 -0.27117327732773  0.95116401240124
 6  13.32859485348535 -1.88162368946895 -0.22202709170917
 6 -13.67706004600460  1.28365116311631  0.81776356035604
 6  11.01994052005201 -0.36295051115112  0.06025177917792
 6 -11.35636273727373 -0.35656668566857 -0.11152190619062
 6  13.01037525652565 -0.85766652375238 -1.28606947994799
 6 -12.91384214421442  1.63222119911991 -0.44906194819482
 6  11.63763851085108 -0.38919929302930 -1.14591310731073
 6 -11.59342293229323  0.78099442244224 -0.81049058805881
 6  11.17940866786679 -0.20920007810781  2.45880632163216
 6  10.76952639363936 -2.43624410551055  1.55332345234523
 6 -11.54003619761976 -0.76361818981898  2.37799637963796
 6 -12.35019572157216 -2.44426986998700  0.74118602260226
 6  9.69100392639264  0.31390242714271  0.23686036603660
 6 -10.06432779977998 -1.04548863386339 -0.31599028002800
 6  11.16694945994599  0.35618008290829 -2.42714692169217
 6 -10.80257269626963  1.45698608260826 -1.87161646864686
 6  9.35793576057606  1.60345378327833 -0.01400677467747
 6 -8.87282776777678 -0.49712326932693 -0.35243628962896
 6  8.10331631763176  2.22132187208721  0.24514018301830
 6 -7.63684882688269 -1.25404973807381 -0.60274560656066
 6  8.10815129612961  3.59373757865787  0.69207057305731
 6 -7.72325343134313 -2.60757050515052 -1.21667184218422
 6  6.93266867386739  1.59836983088309 -0.07941794779478
 6 -6.43091489448945 -0.54329980508051 -0.28547155315532
 6  5.59284983698370  2.04591229812981  0.04842975897590
 6 -5.11057217921792 -1.04938481458146 -0.53566574057406
 6  4.44349828082808  1.27863327722772 -0.27211284028403
 6 -4.01055647564756 -0.30542674877488 -0.41076840684068
 6  3.07117972297230  1.69554015191519  0.03278494349435
 6 -2.67831159515952 -0.72516684678468 -0.60049770977098
 6  2.78350863186319  3.09024847374737  0.54357706670667
 6 -2.34200969496950 -2.13204050615061 -1.01072211221122
 6  2.14416399139914  0.78311547544754 -0.28175730073007
 6 -1.68894021702170  0.16875658155816 -0.44838666566657
 6  0.64229139813981  0.89656442434243 -0.09431355135514
 6 -0.20095896489649 -0.03138524362436 -0.44597223722372
 1  13.68162743474348 -0.58253168826883  1.38714355235524
 1  13.19957519351935 -2.09433001410141  1.98003813581358
 1 -14.31369414641464 -0.69469962696270  1.73475068106811
 1 -14.19541090809081 -0.49130605360536 -0.05639725972597
 1  12.67388259025902 -2.85567031013101 -0.50383844884488
 1 -13.05665112611261  1.78677319531953  1.58096756975697
 1  13.77886881888189 -0.03768648874887 -1.13368925292529
 1  13.24213570657066 -1.24346657375738 -2.27932860886089
 1 -13.45555109910991  1.43583490449045 -1.32167010001000
 1 -12.64029263626363  2.70661272527253 -0.64956183918392
 1  11.82910153015302 -0.73604433053305  3.16717137813781
 1  10.27623348834883 -0.17846735683568  2.79198807980798
 1  11.68311758175818  0.73160289318932  2.28910804580458
 1  10.85030403340334 -3.11956253635364  0.65532091809181
 1  10.98182909990999 -2.74837975507551  2.46428635263526
 1  9.61633763476348 -2.23470446354635  1.35045998899890
 1 -11.27134403440344  0.34604017501750  2.43779767276728
 1 -10.50222473147315 -1.08396555155516  2.32599860386039
 1 -11.87397855685569 -1.31837274227423  3.15178777477748
 1 -13.07778755975597 -2.77795904790479  1.51291580058006
 1 -11.45239828782878 -2.92800482848285  1.00442549854985
 1 -12.55101545954596 -2.70515082308231 -0.34562303630363
 1  8.87748957295730 -0.24455277537754  0.54720890489049
 1 -10.28100783278328 -2.05257898189819 -0.60330996399640
 1  10.17185960496050  0.34365446334633 -2.43395809880988
 1  11.85650408540854  1.13805809670967 -2.57485719971997
 1  11.46242047704771 -0.51608209530953 -3.05208233823382
 1 -11.41795280228023  1.88243147214721 -2.67729922292229
 1 -10.16179171817182  0.73110374737474 -2.24767937393739
 1 -10.16206796179618  2.49101771477148 -1.61789538553855
 1  15.07473402640264 -2.74205311041104  0.28143003600360
 1 -15.46638607360736  1.75719063306331  1.60582878787879
 1  10.38661414341434  2.11233453735374 -0.38604791979198
 1 -8.68978567556756  0.53199529752975 -0.02284709770977
 1  8.60543340534053  4.37127698059806 -0.05357166016602
 1  7.02924631363136  3.89922533143314  0.85236106910691
 1  8.69123383338334  3.67791067796780  1.60971398939894
 1 -8.42239926992699 -3.29973690279028 -0.57662350135013
 1 -8.03670942694269 -2.64695370947095 -2.14361069106911
 1 -6.70552940194019 -3.04946859895990 -0.96113290529053
 1  7.19017068006801  0.65616935983598 -0.54553794579458
 1 -6.44209447144714  0.45594543444344  0.38821644464446
 1  5.40464984898490  3.01199634753475  0.45380763576358
 1 -4.88260208020802 -2.04800610771077 -1.22657005700570
 1  4.58143124212421  0.21090933683368 -0.57383579457946
 1 -4.36945244924492  0.70022513941394 -0.18385558955896
 1  2.87218500350035  3.06407044894490  1.52582878387839
 1  1.85502215521552  3.23338200910091  0.35381778977898
 1  3.19140316231623  3.85390322422242 -0.11917241324132
 1 -2.76635877287729 -2.74750189728973 -0.09082212621262
 1 -2.82733224122412 -2.23045416551655 -2.07297126412641
 1 -1.32899969896990 -2.52947312241224 -1.42040507650765
 1  2.39438659665967 -0.23764241534153 -0.43089099309931
 1 -1.91023042404240  1.22761267916792 -0.22628924192419
 1  0.22300804780478  1.75319802570257  0.41260705570557
 1  0.19902267226723 -0.97381733183318 -0.73847143114311

