%nproc=4
%Mem=2GB
# td=(NStates=1) CAM-B3LYP/6-31G(d,p) 

TD

0 1
 8  14.72323054205421 -2.33830130123012 -0.43889274227423
 8 -14.87889448644864  1.94404626062606  0.65947504150415
 6  11.40495378937894 -1.08606924102410  1.22496585758576
 6 -12.37270490249025 -0.88074063406341  0.82340786278628
 6  12.86859559155916 -1.52279531763176  1.01156872887289
 6 -13.68010061906191 -0.17249340934093  0.72591148714872
 6  13.37421941594159 -1.99429495659566 -0.32314720372037
 6 -13.61211355135513  1.33723652165217  0.64506629062906
 6  10.94241276727673 -0.23764798089809 -0.02436668266827
 6 -11.32522962396239 -0.27604863386339 -0.13921467546755
 6  13.09182340134013 -0.83289404650465 -1.30181105410541
 6 -12.84475523552355  1.72212018901890 -0.54684172617262
 6  11.65638038503850 -0.26249662276228 -1.19855837183718
 6 -11.68766235623562  0.88653497649765 -0.83764330333033
 6  11.33516424342434 -0.22481163926393  2.50440088108811
 6  10.49550899189919 -2.27632811391139  1.43829194919492
 6 -11.88168036203620 -0.90699252725273  2.29748832883288
 6 -12.46084678667867 -2.45560100310031  0.44765666966697
 6  9.61894672067207  0.48067910481048  0.21990867086709
 6 -10.07567893489349 -1.05824990999100 -0.37859654065407
 6  11.10546331133113  0.50027449234923 -2.36499070607061
 6 -10.70278271727173  1.46181656565657 -1.85869517651765
 6  9.41609157615762  1.67811124902490 -0.13829920392039
 6 -8.84736522152215 -0.57183074007401 -0.26716776277628
 6  8.09471545754575  2.24996473637364  0.03615928492849
 6 -7.55203034503450 -1.27230156325633 -0.41841717371737
 6  8.07278775977598  3.74721292619262  0.35398676467647
 6 -7.63908501450145 -2.71473122122212 -0.97956813181318
 6  6.95304071107111  1.46935692959296 -0.04840484648465
 6 -6.39765156815682 -0.69843531863186 -0.23790679667967
 6  5.61261181318132  1.98127583448345  0.22049696569657
 6 -5.02982410441044 -1.08715859195920 -0.49974214821482
 6  4.45019895089509  1.29654506840684 -0.05480110911091
 6 -3.96303172317232 -0.34986119221922 -0.15696302630263
 6  3.07486009100910  1.68632923082308  0.14914657965797
 6 -2.56569033303330 -0.70880521062106 -0.37695535553555
 6  2.83885416641664  3.01784123302330  0.64180688968897
 6 -2.31022651665167 -2.14094139623962 -0.88279931993199
 6  2.14602417741774  0.76885404930493 -0.11404052905291
 6 -1.55862718571857  0.06891659755976 -0.18880070707071
 6  0.74394156315632  0.87919268716872  0.00174605460546
 6 -0.16874574357436 -0.18293039813981 -0.35822346234623
 1  13.50965023702370 -0.74888832393239  1.39931476947695
 1  13.14851008700870 -2.14956553765377  1.61278141014101
 1 -14.49156193319332 -0.50855101210121  1.52095930193019
 1 -14.43650501750175 -0.46292321532153  0.03786216621662
 1  12.77323252525252 -2.78972371547155 -0.73239130413041
 1 -12.83802926392639  1.75509002700270  1.49220869386939
 1  13.57710864286429 -0.06441916201620 -1.09391527552755
 1  13.41236272927293 -1.24276650375037 -2.35689636563656
 1 -13.57032257625763  1.60107142814281 -1.26903483648365
 1 -12.62440104710471  2.74091615561556 -0.43295017801780
 1  11.38674729472947 -1.28276900300030  3.35887054805481
 1  10.32380824582458 -0.01293080318032  2.61304018501850
 1  11.99520879087909  0.63601333423342  2.42861199619962
 1  10.41922092509251 -2.88839942004200  0.26496188218822
 1  10.77845876287629 -2.97819273637364  2.33720364436444
 1  9.40071607260726 -1.86667766086609  1.62188713171317
 1 -11.73759065906590  0.04514008500850  2.65926981998200
 1 -10.88938344734473 -1.36605376037604  2.64655065906591
 1 -12.67721888088809 -1.36002690769077  2.92453504950495
 1 -13.43057283828383 -2.68007925992599  0.96975148414842
 1 -11.52458550655065 -3.17113914191419  0.62039709570957
 1 -12.82344270227023 -2.47770807880788 -0.64925339933993
 1  8.73268509250925 -0.00857917801780  0.75790997499750
 1 -10.16920665266527 -2.09708343234323 -0.68134776777678
 1  10.10149256825683  0.67159725762576 -2.29715441844184
 1  11.49182761776178  1.37537182808281 -2.73470318431843
 1  11.11315555055506 -0.17905839293929 -3.27746487648765
 1 -11.23328433543354  1.69218244724472 -2.81707320032003
 1 -10.03467900690069  0.75301593859386 -2.29111371737174
 1 -10.10160191519152  2.41628024102410 -1.75119871587159
 1  14.84285083808381 -2.93038194329433  0.41056294929493
 1 -15.20902033703370  1.62196711071107  1.54358256325633
 1  10.34367984998500  2.27225052895290 -0.45353466846685
 1 -8.72857955495549  0.48478057605761  0.13479866686669
 1  8.95272813481348  4.39464931783178 -0.08929523252325
 1  7.08534192319232  4.06554196309631  0.46929276227623
 1  8.53790850085008  3.97417030393039  1.27492051005101
 1 -8.39889691969197 -3.37649457855786 -0.42122796179618
 1 -8.06884264026403 -2.57630664476448 -1.88513484348435
 1 -6.54754360336034 -3.17574122622262 -1.03442023402340
 1  7.13314497749775  0.60817456035604 -0.53426681868187
 1 -6.24641490349035  0.33986382628263  0.11894951795180
 1  5.64108349234924  3.10715586348635  0.25523777877788
 1 -4.94577839783978 -2.15602690979098 -0.95480288028803
 1  4.63143624262426  0.27960620652065 -0.35705411641164
 1 -4.09709521352135  0.83859897679768  0.02980577657766
 1  3.27424520952095  2.98296233813381  1.67872407340734
 1  1.72773942694269  3.17760643154315  0.66258866686669
 1  3.21965598759876  3.70759859375938 -0.08752924892489
 1 -2.83143528052805 -2.83608075517552 -0.23540658465847
 1 -2.74222373037304 -2.22642376247625 -1.84557852485248
 1 -1.16639343834384 -2.19645982108211 -0.85444848084808
 1  2.39639679767977 -0.44462311341134 -0.37245514951495
 1 -1.69743914491449  1.12582250015001  0.02994638163816
 1  0.28950469746975  1.93347605350535  0.26424221922192
 1  0.24097686768677 -1.04737468756876 -0.85622320632063

