%nproc=4
%Mem=2GB
# td=(NStates=1) CAM-B3LYP/6-31G(d,p) 

TD

0 1
 8  14.72144036303630 -2.30377784888489 -0.50911976497650
 8 -14.89333593059306  1.91676353235324  0.47484657865787
 6  11.51373466746675 -0.98067870197020  1.21708506950695
 6 -12.34251188318832 -0.88055061506151  0.75619114111411
 6  13.02678141014101 -1.37573061116112  1.06332390439044
 6 -13.71765437443744 -0.27295345534553  0.65307420342034
 6  13.35119711371137 -1.92692821992199 -0.38921381038104
 6 -13.61537387738774  1.27577037503750  0.61480326432643
 6  11.08805733173317 -0.20941515761576  0.03693944794479
 6 -11.37590469146915 -0.31711274027403 -0.24023477747775
 6  13.05330954995499 -0.92112286938694 -1.48217909090909
 6 -12.80234099409941  1.72645062206221 -0.51163820582058
 6  11.59134388138814 -0.29773014611461 -1.26908542454245
 6 -11.60345393539354  0.92001832483248 -0.79095863486349
 6  11.45910663766377 -0.20125928402840  2.49781022202220
 6  10.77540698169817 -2.32100258135814  1.50666878687869
 6 -11.81769396339634 -0.91443327132713  2.19917849784978
 6 -12.54684538653865 -2.46266170917092  0.42106401040104
 6  9.65954078007801  0.31030206710671  0.13899057905791
 6 -10.11373274027403 -0.99621370637064 -0.45013369436944
 6  11.09334209920992  0.23713817871787 -2.51373558055806
 6 -10.70889332833283  1.73582396639664 -1.79646895389539
 6  9.30781074807481  1.67860129802980 -0.02158753275328
 6 -8.84956544154415 -0.49941349834983 -0.24423546954695
 6  8.14382036803680  2.30678041794179  0.10654632363236
 6 -7.65114025602560 -1.32830716381638 -0.37023235523552
 6  8.09406988798880  3.73905211011101  0.44028539453945
 6 -7.66145725172517 -2.73914366246625 -0.89127930293029
 6  6.96188159515952  1.55792578647865 -0.05631563756376
 6 -6.46560836383638 -0.60316579167917 -0.11331433743374
 6  5.54484503650365  2.02351005790579  0.15997091309131
 6 -5.07419854185419 -1.14008388448845 -0.38224039803980
 6  4.40898482948295  1.28656407030703  0.04842921392139
 6 -3.97461288128813 -0.38406461256126 -0.16256358635864
 6  3.00573317831783  1.59353995189519  0.21227289228923
 6 -2.52292605660566 -0.76040037013701 -0.37510517051705
 6  2.73301358235824  3.06077552645265  0.55793850285029
 6 -2.30156565056506 -2.13479078117812 -0.93178421842184
 6  2.07864743974397  0.62265942984298  0.05826670167017
 6 -1.61493281628163  0.16586629252925 -0.17100892789279
 6  0.70611778077808  0.91614638253825 -0.04056817681768
 6 -0.19542841184118 -0.08281038613861 -0.19619725972597
 1  13.65759503150315 -0.39566300140014  1.15123996199620
 1  13.40198543454346 -1.97748832993299  1.84828496049605
 1 -14.32243502050205 -0.67617777477748  1.39068627462746
 1 -14.55187655465547 -0.59187611061106 -0.16400802080208
 1  12.58756395839584 -2.87437218031803 -0.65313337833783
 1 -13.24992045304530  1.69753427142714  1.56380585358536
 1  13.80931186318632 -0.03989670977098 -1.54320020402040
 1  12.96373786678668 -1.64348657575758 -2.43482415841584
 1 -13.42812835683568  1.53032435343534 -1.32357029002900
 1 -12.62116072307231  2.73395545954595 -0.53635051805181
 1  11.65200382038204 -1.04196492259226  3.31725638663866
 1  10.58624448944894  0.20809129902990  2.52564144514451
 1  12.14914418441844  0.64260399329933  2.59807894289429
 1  10.67111611461146 -2.77772835293529  0.65112049804980
 1  11.29683060006001 -2.83918883598360  2.31569149314931
 1  9.76680268126813 -2.09873086618662  1.80905584858486
 1 -12.03299019901990  0.08022359335934  2.76313020602060
 1 -10.84853936293629 -1.50696785178518  2.21947795179518
 1 -12.37868902790279 -1.61578248324832  2.67400999699970
 1 -13.52882266326633 -2.83195444744474  1.09990449944994
 1 -11.60642369036904 -2.90644267226723  0.81796685268527
 1 -12.78912927092709 -2.45741604960496 -0.69593806780678
 1  8.77151897589759 -0.35057337743774  0.48669285328533
 1 -10.24190392239224 -2.11876560056006 -0.66324595759576
 1  9.94139655865586  0.48019811771177 -2.59030373337334
 1  11.53396183118312  1.21556584748475 -2.80721043504350
 1  11.13963819881988 -0.54692517961796 -3.25576270627063
 1 -11.45541654865487  1.96316954595460 -2.65683717671767
 1 -9.87297283628363  0.95293593059306 -2.14783938993899
 1 -10.26615837083708  2.47568618161816 -1.19247284328433
 1  14.92103865686569 -3.14149305440544 -0.05683379037904
 1 -15.37807724272427  1.61584649864987  1.26367457245725
 1  10.13249873187319  2.34625792969297 -0.27737705270527
 1 -8.64234093109311  0.57925002300230  0.05076026302630
 1  8.63821668366837  4.29969982288229 -0.26189249224923
 1  7.02679606860686  4.21600700960096  0.63101893489349
 1  8.36779148914891  3.92866575347535  1.62418543654365
 1 -8.23648067806781 -3.57534446354635 -0.25847168616862
 1 -8.09641539753975 -2.84658367246725 -1.85488181818182
 1 -6.73671252025203 -3.21072472457246 -1.18186497849785
 1  7.21518318131813  0.59903364626463 -0.45184857685769
 1 -6.38875913791379  0.39760960086009  0.22646026902690
 1  5.35864524852485  3.06339148704870  0.49784203920392
 1 -4.99553337333733 -2.16008731583158 -0.56515391539154
 1  4.65839893889389  0.25326357225723 -0.05482389338934
 1 -3.98057356135614  0.71326644354435  0.19711250725073
 1  3.23429121412141  3.32862690459046  1.44679088008801
 1  1.79135578857886  3.17986665756576  0.91036344434443
 1  2.93294731673167  3.84775260916092 -0.34517501350135
 1 -2.61214335133513 -2.86645379247925 -0.04927797179718
 1 -2.86397590559056 -2.28642976307631 -2.06325029202920
 1 -1.24908170717072 -2.28183835893589 -1.15667870387039
 1  2.23332049004900 -0.25459411051105 -0.13777168116812
 1 -1.95520492149215  1.10425034293429  0.44928831583158
 1  0.34959070607061  1.90376308220822  0.36607240224022
 1  0.32934570457046 -0.89170912101210 -0.87798538253825

