%nproc=4
%Mem=2GB
# td=(NStates=1) CAM-B3LYP/6-31G(d,p) 

TD

0 1
 8  14.67635585458546 -2.31329880098010 -0.49388824182418
 8 -14.76674327132713  2.02075393139314  0.67218631263126
 6  11.50649394339434 -1.08898953305331  1.14387774877488
 6 -12.46402403440344 -0.97318987898790  0.64340986298630
 6  12.91270000200020 -1.44069710781078  1.02978055005501
 6 -13.70327293629363 -0.12693885388539  0.60679957595760
 6  13.32496449044904 -1.94973050015001 -0.30717560656066
 6 -13.54809714971497  1.36198899689969  0.73212499649965
 6  11.05163368936894 -0.31891610771077 -0.04660890689069
 6 -11.30378747974797 -0.24814584358436 -0.23202395639564
 6  13.01131535053505 -0.92404316141614 -1.38951982498250
 6 -12.76026678667867  1.83672164916492 -0.44651169316932
 6  11.69786453345335 -0.19583995709571 -1.15608412441244
 6 -11.57281087108711  0.96952327532753 -0.71667120612061
 6  11.42596332333233 -0.23716287438744  2.45518595959596
 6  10.57284672567257 -2.30073055415542  1.39534765476548
 6 -11.82309450345034 -0.96066789478948  2.11178975897590
 6 -12.72790349234924 -2.34131957495750  0.20752265626563
 6  9.75196002200220  0.44442547944794  0.19139581958196
 6 -10.10790215721572 -1.08316240124012 -0.46948562956296
 6  11.31979474447445  0.59695416031603 -2.36080028702870
 6 -10.68544098309831  1.63474385838584 -1.81246055305531
 6  9.43646361336133  1.69480291819182 -0.02847822182218
 6 -8.87248773377338 -0.58113167016702 -0.26671771777178
 6  7.99205519151915  2.25490523042304  0.04299996899690
 6 -7.57011215321532 -1.31944627772777 -0.44814014601460
 6  8.00501098209821  3.79682788768877  0.41610297629763
 6 -7.72494360036004 -2.81513126122612 -0.79946012101210
 6  6.86450185718572  1.63148314221422 -0.12326233223322
 6 -6.43009481248125 -0.66950242534253 -0.21115412141214
 6  5.45985653765377  2.09552725962596  0.15922083808381
 6 -5.04629575157516 -1.24417429352935 -0.30375254925493
 6  4.39057298829883  1.26716213011301 -0.04254988398840
 6 -3.96889230923092 -0.43538974507451 -0.28391572157216
 6  3.02865547054705  1.67811840974097  0.05575724072407
 6 -2.52569633363336 -0.87040137023702 -0.30541820182018
 6  2.75569585058506  3.01814126302630  0.51134384338434
 6 -2.35178067206721 -2.28791609370937 -0.68943998399840
 6  2.14150372537254  0.74242140604060 -0.11206033103310
 6 -1.51177250025002  0.03792349824983 -0.05587741474147
 6  0.73839100810081  0.87246201410141 -0.02764688468847
 6 -0.09801867086709 -0.28384048914891 -0.08400604060406
 1  13.55681495349535 -0.56630006510651  1.23080791879188
 1  13.25304054005401 -2.26024660576058  1.75451558355836
 1 -14.43615639263926 -0.36798695569557  1.37953515951595
 1 -14.27538890589059 -0.43629055205521 -0.37460908090809
 1  12.53469867186719 -2.90120486358636 -0.45991405640564
 1 -13.19588504950495  1.69742426042604  1.75772524552455
 1  13.71382231423142 -0.12075479557956 -1.13491937593759
 1  13.11922341534154 -1.29578180528053 -2.41228190419042
 1 -13.40779632363236  2.05346666766677 -1.17948588158816
 1 -12.20931953895390  2.73002506650665 -0.30762764576458
 1  11.76692531253125 -0.63115384148415  3.45831049204921
 1  10.47192305730573 -0.12293180328033  2.75732461346135
 1  12.00888015801580  0.74180391329133  1.98166730173017
 1  10.63485248824882 -3.13364394449445  0.55324071007101
 1  11.14159507650765 -2.99960487758776  2.33012293629363
 1  9.60610661166117 -1.98325931903190  1.73596853985399
 1 -11.49510641064106 -0.04482891189119  2.58007190019002
 1 -10.74063857285729 -1.51337849284929  1.86372237623762
 1 -12.54641580058006 -1.48591949694970  2.72161475747575
 1 -13.53424320532053 -2.80390164216422  0.90764527352735
 1 -11.73238628662866 -2.96950897889789  0.37581263726373
 1 -12.93882424042404 -2.52590289828983 -0.83318179217922
 1  9.13733555755575 -0.25388370847085  0.67939212321232
 1 -10.31441117311731 -2.08063178717872 -0.89554918791879
 1  10.26385880488049  0.75388548644864 -2.33715841884188
 1  12.03175161016102  1.39616390729073 -2.53814352835284
 1  11.26683091809181 -0.12725321242124 -3.25637276727673
 1 -11.33676468346835  2.27829105810581 -2.58354984798480
 1 -10.10551609060906  0.89109974697470 -2.25052965896590
 1 -9.69711146614662  2.03840245324532 -1.09485308130813
 1  14.96786333933393 -2.64757366246625  0.49647154015401
 1 -15.34766420142014  1.89077399139914  1.42711091609161
 1  10.14713019501950  2.32651595549555 -0.52531184618462
 1 -8.86918361536154  0.27952005000500  0.15364055105511
 1  8.51132399439944  4.08704855775578 -0.71344764776478
 1  6.96823021202120  4.02997840674067  0.73164899789979
 1  8.72828753875388  3.91375426232623  1.35796881488149
 1 -8.22952998299830 -3.31644857395740 -0.04170000900090
 1 -8.35782153815381 -3.05356437053705 -1.74677100710071
 1 -6.80581943094309 -3.25942959505951 -0.86938373037304
 1  6.86782844584458  0.72526626952695 -0.46043943594359
 1 -6.57626788878888  0.28149798969897  0.21430905390539
 1  5.36370575457546  3.19349449734974  0.30583283828383
 1 -5.07127094709471 -2.41935324242424 -0.51250865086509
 1  4.64994809380938  0.27203544944494 -0.31523993499350
 1 -4.02572807680768  0.72812792969297 -0.29806701070107
 1  3.25615340034003  3.27248129002900  1.43061926292629
 1  1.61455810881088  2.96662533343334  0.68196060406041
 1  3.09700372237224  3.73770160406041 -0.26965746174617
 1 -2.92005414241424 -3.03105025212521 -0.00663370737074
 1 -2.61903141114112 -2.50858197829783 -1.70276424342434
 1 -1.24397119611961 -2.56264643974397 -0.51653468946895
 1  2.30652781078108 -0.24870352145215 -0.23510141414141
 1 -1.89388878987899  0.99355927382738  0.35267865486549
 1  0.11365711271127  1.80930363626363  0.02847864286429
 1  0.41573434343434 -1.37135708580858 -0.26114369836984

