%nproc=4
%Mem=2GB
# td=(NStates=1) CAM-B3LYP/6-31G(d,p) 

TD

0 1
 8  14.69081730073007 -2.16901437253725 -0.49717857085709
 8 -14.68688528552855  2.03175503150315  0.63166226022602
 6  11.46283957795780 -1.12926356045605  1.26566992799280
 6 -12.31332896489649 -0.88180074007401  0.84478000000000
 6  12.91523025502550 -1.39488252635264  1.02636020802080
 6 -13.63454606360636 -0.14147030703070  0.86342523852385
 6  13.26212820682068 -1.94526005310531 -0.40427531653165
 6 -13.43503584358436  1.38213101110111  0.78542032603260
 6  10.89541806780678 -0.27968218431843  0.00777653165317
 6 -11.34110121112111 -0.30582161116112 -0.34138489248925
 6  13.02686690569057 -0.75139589668967 -1.34616548954895
 6 -12.80430119011901  1.71896987398740 -0.58294533653365
 6  11.61574632163216 -0.21554192729273 -1.15773428942894
 6 -11.56650024002400  0.93387971097110 -0.90797033603360
 6  11.33410413741374 -0.21264042214221  2.47736817781778
 6  10.68776821782178 -2.40152063316332  1.43937205720572
 6 -11.47822001600160 -0.81152298029803  2.18145672567257
 6 -12.49983068506851 -2.37268271127113  0.48314021802180
 6  9.65948077407741  0.30631166806681  0.08916559655966
 6 -10.19183055005501 -1.08299238423842 -0.51696037703770
 6  11.12960572557256  0.43222768766877 -2.46178038503850
 6 -10.71750418941894  1.47320770477048 -2.04731403840384
 6  9.28038800580058  1.57203064096410 -0.12176755075508
 6 -8.91117160216022 -0.61350490749075 -0.33189423542354
 6  8.09162514851485  2.28640838073807  0.03466913591359
 6 -7.57791293329333 -1.45645997909791 -0.58739407140714
 6  8.15512599359936  3.76371457635764  0.42079344534453
 6 -7.74728583458346 -2.84461420952095 -1.00162033703370
 6  6.88454386138614  1.55274526842684 -0.10979098509851
 6 -6.40508231123112 -0.74376985208521 -0.37037004300430
 6  5.50971152315232  2.00961866876688  0.04261917791779
 6 -5.05418654065407 -1.21235111121112 -0.43631580558056
 6  4.40216414741474  1.23841925582558 -0.09117474647465
 6 -4.03953937393739 -0.41228743484348 -0.21446877687769
 6  3.02374497949795  1.66488708660866  0.26667833283328
 6 -2.57385114911491 -0.80259458955896 -0.32752041204120
 6  2.78445872687269  3.04780422932293  0.71950465946595
 6 -2.39055454945495 -2.13483078517852 -0.86977801780178
 6  2.12657223222322  0.73022018591859  0.07131800680068
 6 -1.67475879887989  0.07281698759876  0.07032520552055
 6  0.69228639763976  0.83008777667767  0.25994187418742
 6 -0.21787065606561 -0.05975808090809 -0.04916255625563
 1  13.52097136913691 -0.40522395749575  0.98109294729473
 1  13.19928516451645 -2.27164774587459  1.69334946694669
 1 -14.24960773777378 -0.44400455745575  1.76975418141814
 1 -14.34087545454546 -0.54740166316632  0.18274665466547
 1  12.56260146214622 -2.73624836793679 -0.59276734173417
 1 -12.85292075307531  1.90727524552455  1.57673714671467
 1  13.69098003000300 -0.00355307540754 -1.13166905090509
 1  13.34050554355436 -0.91918414551455 -2.51195187118712
 1 -13.50054559855985  1.76704802580258 -1.40144807780778
 1 -12.71003961096110  2.83243530753075 -0.56713359635964
 1  11.67505612561256 -0.87062778887889  3.22614727572757
 1  10.22018788378838  0.08467895779578  2.56322520352035
 1  12.09007827782778  0.66844657755776  2.68032716771677
 1  10.81343034603460 -2.96309688978898  0.73230861686169
 1  10.84768568556856 -2.92767768486849  2.43506343034303
 1  9.56890289128913 -1.94299529262926  1.42306724972497
 1 -11.27712461246124  0.27155272627263  2.37841173417342
 1 -10.47402191119112 -1.21533868886889  2.10327633163316
 1 -12.12316347534754 -1.30923182818282  2.74804740074007
 1 -13.30434021502150 -2.87651890389039  1.21482599159916
 1 -11.47835088308831 -2.78936096409641  0.54575963196320
 1 -12.96693705170517 -2.25783609160916 -0.45226370037004
 1  8.83611543554355 -0.26705502560256  0.59952413641364
 1 -10.40348008000800 -2.20557428142814 -0.74167380038004
 1  10.04590700970097  0.86187628552855 -2.27612231523152
 1  11.80239867486749  1.18777306820682 -2.66014572857286
 1  11.25231946694669 -0.10721120822082 -3.30395752575258
 1 -11.29697070407041  2.09490271927193 -2.81882337533753
 1 -10.17397293629363  0.71331196819682 -2.60315492149215
 1 -10.20045180018002  2.48545715871587 -1.77215081108111
 1  14.93588014101410 -2.92750165526553  0.27146903990399
 1 -15.23579301430143  1.73511842584258  1.38816702170217
 1  10.28286376837684  2.17611091499150 -0.50005932093209
 1 -8.63799049604960  0.27508960696070 -0.11594640764076
 1  8.59200206220622  4.09153900680068 -0.49282558555856
 1  7.11291468046805  3.97132254115412  0.69048488148815
 1  8.65068977897790  4.00435332223222  1.21900491849185
 1 -8.31224825482548 -3.35880280938094 -0.17580341934193
 1 -8.34455021102110 -3.16798581268127 -1.99171550155016
 1 -6.78959780878088 -3.19706335843584 -0.94247103910391
 1  7.06600826382638  0.55546928982898 -0.60084347634763
 1 -6.49959022102210  0.44885472537254  0.01311893489349
 1  5.42565194919492  3.25614076197620 -0.04159190419042
 1 -4.84491831183118 -2.15356666376638 -0.94618201820182
 1  4.43552665166517  0.17294554045405 -0.18175658665867
 1 -4.27931343534353  0.59602471937194  0.25706850285028
 1  3.26240402540254  3.07640168206821  1.73762996399640
 1  1.81935858885889  3.32442111301130  0.68648105610561
 1  3.52834685668567  3.49990782468247  0.01073057705771
 1 -2.90986312331233 -2.95809295639564 -0.18657170117012
 1 -2.85871537953795 -2.32942406250625 -1.73707767476748
 1 -1.45854265326533 -2.57601777687769 -0.89916295229523
 1  2.30460761876188 -0.22601125222522 -0.40822872687269
 1 -2.09080848184818  1.09496941484148  0.46798018501850
 1  0.39716546354635  1.80512321822182  0.66737253225323
 1  0.14008677867787 -0.87754770487049 -0.55272285628563

