%nproc=4
%Mem=2GB
# td=(NStates=1) CAM-B3LYP/6-31G(d,p) 

TD

0 1
 8  14.72300051905190 -2.21283875497550 -0.38472732573257
 8 -14.69926652365237  2.03268512451245  0.85546464046405
 6  11.44769806380638 -1.00999163326333  1.35470883188319
 6 -12.32024965696570 -1.00683324332433  0.77535305730573
 6  12.97824655665567 -1.26764980308031  1.04743231523152
 6 -13.61032364136414 -0.36999315931593  0.70282917891789
 6  13.33919591359136 -1.93773930103010 -0.25767065606561
 6 -13.47147948794879  1.20475327332733  0.71667345134513
 6  10.89954848084809 -0.35242945904590  0.04506026002600
 6 -11.36071317231723 -0.32028305730573 -0.16955770977098
 6  12.95764998399840 -1.00104086118612 -1.34155502850285
 6 -12.77266802680268  1.69031700870087 -0.44298134013401
 6  11.57997274427443 -0.35825619871987 -1.15595411141114
 6 -11.59423301330133  0.86105242824282 -0.75308484748475
 6  11.49972069906991 -0.18321747984798  2.54783522452245
 6  10.65674511551155 -2.39460994209421  1.62307042704270
 6 -11.83801599559956 -1.03241506950695  2.19133771377138
 6 -12.61620232223222 -2.44292973597360  0.53853575757576
 6  9.61584641064106  0.35387642454245  0.20061674167417
 6 -10.11292265926593 -1.08793287828783 -0.34724340534053
 6  11.04670743574357  0.17640210511051 -2.50616482348235
 6 -10.72456489548955  1.59362974697470 -1.69854916191619
 6  9.37044701170117  1.59947338523852 -0.10270564456446
 6 -8.82926341134113 -0.50758431543154 -0.27559860586059
 6  8.01732771877188  2.29214895479548  0.09996566556656
 6 -7.63338848084808 -1.21997633073307 -0.47712304430443
 6  8.10473095409541  3.60480868576858  0.60861222722272
 6 -7.76684779077908 -2.67094684278428 -0.95756593159316
 6  6.87390279727973  1.54858485238524  0.06445643964396
 6 -6.45086688968897 -0.59589506460646 -0.36737974397440
 6  5.49222977497750  2.12389009590959  0.16297121312131
 6 -5.02133325532553 -1.17543741984198 -0.48757093109311
 6  4.38619255025502  1.26433184708471 -0.08636426542654
 6 -3.98845426542654 -0.33899010511051 -0.46360369036904
 6  3.07677028202820  1.71796239413941  0.13429509450945
 6 -2.53136690069007 -0.68109243934393 -0.61358901890189
 6  2.82510279127913  2.97911736063606  0.47977068606861
 6 -2.34290978497850 -2.19118642074207 -0.88844988498850
 6  2.11037061206121  0.77707487138714 -0.14872399739974
 6 -1.59082040504050  0.32407211311131 -0.53158498549855
 6  0.73679084808481  0.98819358725873 -0.06969108910891
 6 -0.21535040404040  0.07499539443944 -0.48301594159416
 1  13.59580885288529 -0.31639507460746  1.03671850985098
 1  13.23132836883688 -1.92032261336134  1.86885701770177
 1 -14.21153393039304 -0.47095725272527  1.67903510951095
 1 -14.12349371637164 -0.67571449444944 -0.13412503250325
 1  12.87661286328633 -2.94328907200720 -0.41233929892989
 1 -12.81846730773077  1.44249876787679  1.66060553355335
 1  13.83132406440644 -0.11739445954596 -1.29262514651465
 1  13.02229372237224 -1.45818804590459 -2.46517719371937
 1 -13.17846339033903  1.56069739073907 -1.41540947394740
 1 -12.45165377237724  2.76107817181718 -0.33036991999200
 1  12.14157277727773 -0.58935966206621  3.44799946094609
 1  10.49167503250325  0.13454394429443  2.66266514751475
 1  11.91318058805881  0.83220295319532  2.06909604460446
 1  10.94886388938894 -3.05813639373937  0.65823120912091
 1  11.10944186118612 -2.73099801690169  2.64789471347135
 1  9.62473847484748 -2.36700769386939  1.65168011101110
 1 -11.75091199119912  0.07652322332233  2.60930482348235
 1 -10.76769127812781 -1.45669282428243  2.21512751675168
 1 -12.49357051605161 -1.36838774377438  3.01480407640764
 1 -13.43597337833783 -3.15794704670467  1.06538104710471
 1 -11.74333738173817 -2.89217124512451  0.70657571357136
 1 -12.92093245124513 -2.55261556955696 -0.57184565856586
 1  8.74718654265427 -0.11531985208521  0.49283346734673
 1 -10.16014574657466 -2.17931165516552 -0.60400003300330
 1  10.02593501250125  0.23175327322732 -2.46101080408041
 1  11.49429786478648  1.39208349924993 -2.61473118711871
 1  11.18970320532053 -0.40571105820582 -3.38340547054706
 1 -11.22476348334833  2.00369359835984 -2.48102959595960
 1 -10.09367490649065  0.69056969396940 -2.02956756275628
 1 -10.06281803680368  2.33842245524552 -1.45205880188019
 1  14.89601615461546 -3.15338424352435 -0.05461356835684
 1 -15.11174060906091  2.21583649764976  2.05668387338734
 1  10.06121160316032  2.35418872277228 -0.69445876087609
 1 -8.78135483248325  0.57717981598160  0.05313050005000
 1  9.05633849584959  4.26366621952195  0.22364606160616
 1  7.27097048604861  4.39070447934794  0.35428126112611
 1  8.34178888888889  3.72239512641264  1.73214623262326
 1 -8.56379340934093 -3.45282221132113 -0.37934377337734
 1 -8.08537429342934 -2.64482349644965 -2.19375570557056
 1 -6.66797564656466 -3.09123277537754 -0.90907769976998
 1  6.83343500650065  0.50903464636464 -0.13192658465847
 1 -6.53374363636364  0.40045988588859 -0.10020239723972
 1  5.48732811681168  3.25382052995299  0.48797105210521
 1 -4.75387920792079 -2.10596190329033 -1.01748914891489
 1  4.76533963296330  0.23177142304230 -0.39606801780178
 1 -4.30884638863886  0.59900501740174 -0.11338854285429
 1  3.85347313231323  3.46571061296130  1.07192339333933
 1  1.88116476947695  3.08201687258726  0.90172258025803
 1  2.97678170017002  3.78683651755176 -0.24455495149515
 1 -3.04618675567557 -2.73561070817082 -0.11134417841784
 1 -2.95661516951695 -2.39420054015402 -1.79433340034003
 1 -1.38160495949595 -2.46624679977998 -0.73445648164817
 1  2.57814497249725 -0.04509316041604 -0.63026093009301
 1 -1.77845724672467  1.35404532243224 -0.43644025702570
 1  0.38070381738174  1.99375208110811  0.31751754675468
 1  0.38583135313531 -0.83959390949095 -0.68658624262426

