--Link1--
%CPU=0-10
%Mem=11GB
%OldChk=pheo-a-s0-01288.chk
%Chk=pheo-a-charged-tunado.chk
# wB97XD/Def2TZVP Geom=Checkpoint Guess=Read iop(3/107=0128800000,3/108=0128800000) Opt

pheo-a-charged-tunado

1 2

--Link1--
%CPU=0-10
%Mem=11GB
%OldChk=pheo-a-charged-tunado.chk
# wB97XD/Def2TZVP Geom=Checkpoint iop(3/107=0128800000,3/108=0128800000) Sp

pheo-a-charged-sp

0 1
