%nproc=3
%Mem=2GB
# td=(NStates=1) CAM-B3LYP/6-31G(d,p) 

TD

0 1
 8 -11.78615528312831  0.35341598999900 -1.39346651025102
 8 -13.07522835863586 -2.52219052705271  1.34528021302130
 8  10.65653117301730 -1.11194108200820 -2.13596732303230
 8  14.55254862156216 -0.92478119961996 -0.12009649704970
 6 -11.09925809300930 -0.09883383808381 -0.27490691509151
 6 -11.68554484418442 -1.05648682858286 -1.24416325662566
 6 -11.94319636263626  0.37801448424842  0.96923657865787
 6 -12.96430163386339 -1.78663882178218 -1.02164379837984
 6 -13.41215967396740 -0.07664511211121  0.82993768166817
 6 -13.57084351785178 -1.59877141494149  0.29287805510551
 6 -10.74219980868087 -1.81065648314831 -2.16950926922692
 6 -9.58855829962996  0.15321245504550 -0.38950590869087
 6 -11.21372735013501 -0.22293788978898  2.30154522162216
 6 -11.82825320562056  1.74763986708671  1.02512060376038
 6 -8.62086550825082 -0.56123416461646  0.20945968496850
 6 -7.20690868046805 -0.44350619671967  0.21255895619562
 6 -6.43965798069807 -1.69611830063006  0.59395163146315
 6 -6.63253891559156  0.73858468836884 -0.11779033423342
 6 -5.25939588118812  0.99637167386739 -0.10678500870087
 6  11.86611585848585  0.12556258575858  1.34935446354635
 6  11.70615790589059 -0.59246540174017 -1.27348122782278
 6  12.72968019611961 -1.17760198989899  1.46022075547555
 6  13.36214090079008 -1.71749628302830  0.29740370477048
 6  12.51388632333233 -1.91213572257226 -0.81193515601560
 6  11.08736562446245  0.05529027692769  0.01231841214121
 6  10.91638304320432  0.22578922092209  2.59990233043304
 6  12.72095521222122  1.37119033983398  1.35723877487749
 6  12.52731903810381  0.38981785508551 -1.99719366716672
 6 -4.68107460316032  2.21807431343134 -0.53121797069707
 6  9.89490067756776  0.46450725352535 -0.07728890559056
 6 -3.26380153855386  2.55990474417442 -0.43923418411841
 6  8.60824061006100  0.86013234703470 -0.25210955095510
 6 -2.85941762686269  3.96825828532853 -0.70365009710971
 6 -2.30375729082908  1.55894774347435 -0.25954848954895
 6  7.44903444594459  0.05603619161916 -0.10404958905891
 6  7.70925566206621 -1.43163011511151  0.20828075097510
 6  6.27173852185218  0.71397832813281 -0.34999893589359
 6 -0.92872700420042  1.81229035273527 -0.30455863096310
 6  5.00923252605261  0.03599271537154 -0.05801443264326
 6  0.03386986598660  0.87305061496150 -0.02318142094209
 6  3.81246065376538  0.74038438883888 -0.16952442144214
 6  1.47463940474047  1.11490321802180 -0.10526290719072
 6  2.52327022752275  0.21756105580558  0.12397575547555
 6  2.32223208490849 -1.30520470077008  0.36198479207921
 1 -12.79955175597560 -2.85784876267627 -1.17738296229623
 1 -13.80842606630663 -1.80630461466147 -1.90054650935093
 1 -13.84492229442944  0.06674374317432  1.78745142784278
 1 -13.91083047664766  0.62143727082708 -0.06148848324832
 1 -14.53443074717472 -1.68316703010301  0.38919052335234
 1 -10.18310692759276 -2.52544932773277 -1.48981427682768
 1 -11.30744095299530 -2.75900069146915 -3.06521480768077
 1 -9.85469765326533 -1.10092930153015 -2.61604321682168
 1 -9.44297295209521  1.21147327832783 -0.87704151425143
 1 -10.23537486508651  0.30320158425843  2.37851359415942
 1 -11.69006436733673 -0.15899919831983  3.12158050815082
 1 -11.04033472717272 -1.31201807830783  2.25179596929693
 1 -12.34456699919992  2.15545166716672  0.18494171017102
 1 -12.49184542394239  2.31029660516052  1.84645835763576
 1 -10.86992727482748  2.11751234173417  1.12085637913791
 1 -12.04860793329333 -2.72445531913191  1.40947542644264
 1 -8.91145198709871 -1.46108446614661  0.77946704560456
 1 -5.64817426352635 -1.93562688778878 -0.14667271167117
 1 -5.87891030633063 -1.70325555815582  1.67392578877888
 1 -7.31230134073407 -2.61928420142014  0.34746089688969
 1 -7.24419573067307  1.59706803590359 -0.27042671917192
 1 -4.54344098879888  0.19730834923492  0.24837106140614
 1  13.56006168326833 -1.02480416781678  2.18891383198320
 1  12.11809698669867 -1.90899027902790  1.92913891359136
 1  13.90538289518952 -2.56601826682668  0.53872079797980
 1  13.16355379387939 -2.27346382488249 -1.55542863756376
 1  11.59686969516952 -2.51506062996300 -0.53906924902490
 1  11.50511011921192 -0.03271290459046  3.47091212991299
 1  10.34727170487049  1.28493405650565  2.55588311251125
 1  10.24481210241024 -0.63319163366337  2.37834407560756
 1  13.40900780268027  1.20082870707071  0.64706877167717
 1  12.36737935113511  2.38914835263526  1.15607031273127
 1  13.15369120622062  1.29141362046205  2.27687416901690
 1  13.22308312781278  0.01556494689469 -2.86547899979998
 1  11.98517558595860  1.30257234813481 -2.26744467936794
 1  13.36808764136414  0.82647870077008 -1.34023950935094
 1 -5.23719594349435  3.07088147494749 -0.94085549634963
 1  10.12751400200020 -0.28327698529853 -2.29028136393639
 1  15.20752359755975 -0.76640645504550  0.62763136243624
 1  8.18518036883689  1.97355968316832 -0.57573485068507
 1 -2.25479056325633  4.38366481618162  0.24536036573657
 1 -2.16884564886489  4.19812703750375 -1.62600570967097
 1 -3.72319870497050  4.83535171697170 -0.86860666216622
 1 -2.67718733883388  0.47318953095310 -0.16473942854285
 1  6.88068081798180 -2.12329189128913  0.47703018771877
 1  8.31995721022102 -1.80658538333833 -0.50803157725773
 1  8.06769669126913 -1.33424575297530  1.11475523642364
 1  6.33669881698170  1.74921872727273 -0.27872989268927
 1 -0.63168452545255  2.92469651315132 -0.25174508600860
 1  4.94844083048305 -0.97975447214721  0.46119880098010
 1 -0.10501942514251 -0.10502231513151  0.52328493959396
 1  3.89243841174117  1.74655029122912 -0.62597482248225
 1  1.72163903910391  2.22617840974097 -0.53134583298330
 1  1.28156699149915 -1.50970757495750  0.31548054365437
 1  2.94598592339234 -1.91279758125813 -0.39573734373437
 1  2.75507220362036 -1.44650887988799  1.34466775337534

