%nproc=3
%Mem=2GB
# td=(NStates=1) CAM-B3LYP/6-31G(d,p) 

TD

0 1
<<<<<<< HEAD
 8 -11.62945961356136  0.12897354575458 -1.65405256885689
 8 -12.97499833563356 -2.26992530053005  1.40155584058406
 8  10.52289780968097 -1.06984687258726 -2.09025275157516
 8  14.55762912961296 -1.17063578507851 -0.22993748114811
 6 -11.11560972817282 -0.16950090479048 -0.43905332973297
 6 -11.66980327002700 -1.26390757065707 -1.30930977127713
 6 -11.68435047804780  0.48675535833583  0.69844949995000
 6 -13.04827003070307 -1.80741089898990 -0.97006864086409
 6 -13.23814227222722  0.16433898629863  0.76291097899790
 6 -13.47979441294129 -1.35756729452945  0.47102586988699
 6 -10.80284587328733 -2.00002542004200 -2.16131845014501
 6 -9.60823026682668  0.06283341714171 -0.42508946704670
 6 -11.10169614701470  0.13752815681568  2.11340640774077
 6 -11.58612899319932  2.05392049514951  0.69551764346435
 6 -8.69106252795279 -0.86166420762076  0.06559529852985
 6 -7.26927491709171 -0.75830767686769  0.05424312461246
 6 -6.45255927082708 -2.00168885768577  0.29737197349735
 6 -6.66953261496150  0.49541037093709 -0.06140469566957
 6 -5.23610355195520  0.80747278397840 -0.05349968016802
 6  11.95956520342034  0.12242227172717  1.22217174527453
 6  11.53588087818782 -0.57787394259426 -1.35538941864186
 6  12.67370459855986 -1.25994022372237  1.37535226862686
 6  13.32970765746575 -1.79304383778378  0.19192315671567
 6  12.36964189888989 -1.86484099309931 -1.05684964746475
 6  11.05645253315332  0.14383913181318 -0.01165398509851
 6  11.09390079497950  0.44307094909491  2.45910825102510
 6  13.01873499019902  1.18297151795180  1.14985803680368
 6  12.37507381358136  0.38016688998900 -2.21588553635364
 6 -4.78961545724572  2.06434894089409 -0.26298114701470
 6  9.89704089158916  0.64178498129813 -0.06232740944094
 6 -3.36499165756576  2.38750750445045 -0.25428568926893
 6  8.66408619461946  0.94515084888489 -0.24086842684268
 6 -2.95641732683268  3.90776223572357 -0.41995172727273
 6 -2.34800171527153  1.45074692339234  0.00683814911491
 6  7.47611715421542  0.20397098509851  0.00920173607361
 6  7.64034877137714 -1.29086603870387  0.44855477837784
 6  6.26351769976998  0.83249017931793 -0.08841277727773
 6 -0.94752888438844  1.86545566926693 -0.10580875597560
 6  4.94952655545555  0.16233534963496  0.18799016781678
 6  0.01418789778978  0.85182849274928  0.13943484068407
 6  3.77315672337234  0.84099444984498  0.00137266826683
 6  1.37027896869687  1.19633136083608  0.04284190329033
 6  2.41051895239524  0.31308060776078  0.27472082998300
 6  2.26889675137514 -1.08724290459046  0.56750534413441
 1 -13.14645644644464 -2.89935291309131 -0.99008423242324
 1 -13.60009523322332 -1.23814779897990 -1.96994344904490
 1 -13.83619142134213  0.54156122492249  1.65444812751275
 1 -13.48887828142814  0.78386351345134 -0.36264859925993
 1 -14.54237154125413 -1.42013072647265  0.66059766406641
 1 -10.38842745964596 -2.86903368616862 -1.76249154455445
 1 -11.06741695059506 -2.29540433183318 -3.24335262146215
 1 -10.01185336883688 -1.44137334593459 -2.21725333783378
 1 -9.13098175297530  0.89779191019102 -0.97976178627863
 1 -9.88157948554855  0.44010527462746  2.14886062886289
 1 -11.57047240814081  0.53198990059006  2.98055640574057
 1 -11.16347704140414 -0.91841871837184  2.43966475617562
 1 -11.89683222572257  2.62648877087709 -0.22946973097310
 1 -12.10323656305630  2.53584916041604  1.54820853265327
 1 -10.43871415351535  2.25529612011201  1.07174146764676
 1 -12.08966203870387 -2.35465833943394  1.49228370727073
 1 -8.91825266716672 -2.09211756945695  0.23749284818482
 1 -5.77885733183318 -2.33596692179218 -0.67956600100010
 1 -5.86041845714571 -2.11746697929793  1.33610200640064
 1 -7.24017412801280 -2.75850812381238  0.57175332613261
 1 -7.57482879397940  1.41169949904991  0.20257058055806
 1 -4.48218486318632 -0.02501388298830 -0.13704748044804
 1  13.51084676177618 -0.93068475587559  2.19212415301530
 1  11.91715689268927 -1.95178455845585  1.92918891859186
 1  13.63610596749675 -2.95950761576158  0.42010893679368
 1  12.95101253975398 -2.23719019751975 -1.84199729442944
 1  11.70997100530053 -2.60355947984798 -0.74262960506051
 1  11.63263287148715  0.11757212391239  3.45311034973497
 1  10.56492347004700  1.40396595969597  2.49107663186319
 1  10.22166978817882 -0.36956527102710  2.44329057025703
 1  13.90026692859286  1.18659728392839  0.40636470127013
 1  12.56949956315632  2.23262270007001  0.99891459715972
 1  13.49882571967197  1.45130961006101  2.08312479407941
 1  12.55656647614762  0.17097048744875 -3.18676112801280
 1  11.99358642704270  1.42362445334533 -2.10227816271627
 1  13.11062189478948  0.68446449934993 -1.61309679507951
 1 -5.39138136203620  2.98916330313031 -0.38966037683768
 1  9.87378862946295 -0.52014067166717 -2.27152948874888
 1  15.49177202240224 -1.33817363176318  0.31267986728673
 1  8.43891574237424  1.89869219641964 -0.43771104830483
 1 -2.33213829802980  4.31904835453545  0.58285411511151
 1 -2.07391615591559  4.00626785158516 -1.11391450055005
 1 -4.06354273937394  4.31040922272227 -0.50568036953695
 1 -2.56575619571957  0.48406061806181  0.19718676407641
 1  6.80126287618762 -2.03235279737974 -0.11203871917192
 1  8.80770598509851 -1.55683040784078  0.07921714761476
 1  7.61109103070307 -1.51812414081408  1.52919668056806
 1  6.05638078517852  1.81761556695670 -0.61163318301830
 1 -0.53422477947795  2.94676872037204 -0.30729064056406
 1  5.08544453085308 -0.74668116481648  0.73223590469047
 1 -0.21883080628063 -0.25060687358736  0.14322693379338
 1  3.76874604250425  2.00504614081408 -0.14613683868387
 1  1.71089796499650  2.33268906080608 -0.17923062146215
 1  1.11483031783178 -1.21337794199420  0.48587758335834
 1  2.94175550035003 -1.77632393389339 -0.08619638963896
 1  2.71378807520752 -1.30339456845685  1.70347363396340
=======
>>>>>>> 6a1b998aacd80a23911c140f266e48a14f2d523d

