%nproc=3
%Mem=2GB
# td=(NStates=1) CAM-B3LYP/6-31G(d,p) 

TD

0 1
 8 -11.87406407400740  0.27518816721672 -1.49537670127013
 8 -13.03951478727873 -2.35193350135014  1.51189687468747
 8  10.72130765066507 -0.99098898679868 -2.12467619391939
 8  14.49688305500550 -1.02851157265727 -0.04940942834283
 6 -11.13115128232823 -0.14017797249725 -0.34236366076608
 6 -11.78613490319032 -1.18358953885389 -1.19430827112711
 6 -11.83396543954395  0.30852753555356  1.01420107510751
 6 -13.06451165486549 -1.87097725562556 -0.84302593659366
 6 -13.29548800680068  0.01166371877188  0.86289097699770
 6 -13.52128856235623 -1.45922746054605  0.61328009530953
 6 -10.94805039373937 -1.88646406390639 -2.26147846614661
 6 -9.65080452425243  0.06713384718472 -0.38954591269127
 6 -11.12826880428043  0.00809521352135  2.33380844794479
 6 -11.79747012731273  1.90900600370037  0.94699279097910
 6 -8.64196761846185 -0.75363340454045  0.10269900890089
 6 -7.25770375997600 -0.56370821692169  0.02455015531553
 6 -6.41253526842684 -1.84310299909991  0.11350358665867
 6 -6.67817347904790  0.69596042594259 -0.09598815401540
 6 -5.29653959555956  0.89878191489149 -0.04701903210321
 6  11.90472971987199  0.05024505400540  1.36557608570857
 6  11.71454874497450 -0.57319347454745 -1.21103498319832
 6  12.73980120822082 -1.29562379207921  1.62747748114811
 6  13.36329101580158 -1.77136166956696  0.33376734113411
 6  12.45138007270727 -1.81539604860486 -0.94398836133613
 6  11.10523741164116  0.05894064196420  0.02440962126213
 6  11.04642604750475  0.19588623062306  2.60638297849785
 6  12.81961507820782  1.18401162196220  1.38793184418442
 6  12.52979928612861  0.42812168546855 -1.89100304810481
 6 -4.77771426712671  2.17206971297130 -0.44022887178718
 6  9.91950313781378  0.56220702350235  0.00532935623562
 6 -3.36460161856186  2.50699945364536 -0.42319257995800
 6  8.70025981198120  0.90124645844584 -0.22774711471147
 6 -3.00432211731173  3.84523598309831 -0.76693642574257
 6 -2.34621153625363  1.53283513221322 -0.27223975867587
 6  7.50559010151015  0.20811139913991 -0.02344152825283
 6  7.66362109860986 -1.32157911001100  0.07947787068707
 6  6.33115446344634  0.72683961426143 -0.18349228522852
 6 -0.88211234273427  1.75787491119112 -0.24003217831783
 6  5.06096769956996  0.11756087218722 -0.16553518471847
 6  0.05513199219922  0.82051536143614  0.01094199139914
 6  3.85043445114511  0.84181453185319 -0.20861833083308
 6  1.37619956075608  1.12895462316232 -0.10035241614161
 6  2.58358625912591  0.29179847954795  0.07862122002200
 6  2.48532839453945 -1.11182536283628  0.20572916651665
 1 -12.83274507530753 -3.16894987278728 -0.70732595659566
 1 -14.00225544924492 -1.65498948314831 -1.41903835853585
 1 -13.84229203140314  0.37445451425143  1.87368005070507
 1 -13.79919931353135  0.40251537863786  0.01176884248425
 1 -14.55774307840784 -1.84117283068307  0.58306991129113
 1 -10.57037565446545 -2.74672145494550 -1.79789508490849
 1 -11.53214342324232 -2.08467325872587 -3.03561184738474
 1 -10.17611979547955 -1.30684989358936 -2.64338595109511
 1 -9.36464511931193  1.04480661166117 -0.54336814691469
 1 -10.16031735933593  0.73691495559556  2.32981872467247
 1 -11.86952231313131  0.11169787138714  3.09458780888089
 1 -10.77230792449245 -1.09101597809781  2.68213900360036
 1 -12.19457199969997  2.37715383738374  0.01506472247225
 1 -12.18231447084708  2.25556113161316  1.93101681348135
 1 -10.73291357345735  2.34209479998000  0.82900719421942
 1 -12.03970704320432 -2.49742261586159  1.15956043494349
 1 -8.98138898079808 -1.75055341304130  0.31763086198620
 1 -5.30370981708171 -1.66751007610761 -0.78516656105611
 1 -5.92250466576658 -1.85007023962396  1.10413881008101
 1 -7.06765687628763 -2.80586285928593 -0.15068891809181
 1 -7.32022333343334  1.61976030513051 -0.13007268376838
 1 -4.54746139083908  0.17442606100610  0.03649987428743
 1  13.48582425952595 -1.30101178857886  2.54544948554855
 1  11.93132830983098 -1.90368974897490  1.88375437513751
 1  13.67694005090509 -2.81041270627063  0.48334526042604
 1  12.92082952145214 -2.05753223172317 -1.94174726942694
 1  11.80709071727173 -2.68203732763276 -0.80619596169617
 1  11.81005061326133  0.06077644434443  3.46130116881688
 1  10.18376535423542  1.21110667376738  2.47955547974798
 1  10.35790341154115 -0.74487280178018  2.67808404960496
 1  13.58644554645465  1.22934155835584  0.54151821662166
 1  12.48282089528953  2.29054849264927  1.22598730443044
 1  13.42455829292929  1.33189766886689  2.34635111671167
 1  12.96755757525753 -0.01909851945195 -2.88176062796280
 1  11.69544661306131  1.25987807870787 -2.14200213511351
 1  13.46292712531253  0.95341139403940 -1.47850333573357
 1 -5.54218644254425  2.90207459425943 -0.79214062486249
 1  9.95213646424643 -0.35983464106411 -2.06392872867287
 1  15.31021386658666 -1.12197201160116  0.71312991229123
 1  8.60419227002700  1.93462578977898 -0.40819809700970
 1 -2.44569965416542  4.30454690439044  0.08031386108611
 1 -2.44791355565557  4.16761398619862 -1.66689979907991
 1 -3.73056944204420  4.51212939473947 -0.92435223672367
 1 -2.57581720182018  0.53925613761376  0.05767281268127
 1  6.79407215711571 -1.75510507260726  0.16337882258226
 1  8.33653886838684 -1.46483120792079 -0.57640841494149
 1  8.07471739333933 -1.65470779917992  0.97999176007601
 1  6.02528767586759  1.91995580098010 -0.08711073077308
 1 -0.74001535853585  2.85729977347735 -0.47836774827483
 1  4.83511949834983 -0.91173767046705  0.09734241534153
 1 -0.22219114231423 -0.25008682158216  0.27446005710571
 1  4.09075824372437  1.93556919311931 -0.28826105110511
 1  1.64650152535254  2.20878667056706 -0.38179087748775
 1  1.59470830563056 -1.59518612281228  0.73695269086909
 1  2.51824314911491 -1.64800110161016 -0.87992576257626
 1  3.35445214161416 -1.42291652065207  0.99934322092209

