%nproc=3
%Mem=2GB
# td=(NStates=1) CAM-B3LYP/6-31G(d,p) 

TD

0 1
 8 -11.60857752535254  0.08058870727073 -1.71288845244524
 8 -13.30834166996700 -2.17124543254325  1.60187587258726
 8  10.54356987688769 -1.15134502240224 -2.19136286258626
 8  14.61889525622562 -0.76200492199220 -0.22896738413841
 6 -11.02987115431543 -0.18528248294829 -0.46394581898190
 6 -11.64556084578458 -1.25457663756376 -1.31170001030103
 6 -11.77432947594759  0.47333401620162  0.65311496649665
 6 -12.92366757045705 -1.92205236313631 -0.95120675467547
 6 -13.26152461046105  0.07375992839284  0.66833152105211
 6 -13.60957739123912 -1.39902143994399  0.41899066636664
 6 -10.78723431213121 -2.19521493899390 -2.14978729702970
 6 -9.54146359015902  0.08348548234823 -0.42243920202020
 6 -11.24661063846385  0.03502790679068  2.15549061616162
 6 -11.67792817311731  1.98838394149415  0.59932802450245
 6 -8.63133655535554 -0.79560760196020  0.05429416841684
 6 -7.21963995359536 -0.58583042914291  0.35686338663866
 6 -6.32216623152315 -1.67868655745575  0.74475671197120
 6 -6.56908256995700  0.61913274317432 -0.10576913211321
 6 -5.18186812841284  0.88063009970997  0.12059772957296
 6  11.89283853075308  0.02403243274327  1.28981850995100
 6  11.74330162026203 -0.63546970217022 -1.34121800150015
 6  12.79831705980598 -1.21207543724372  1.43341807520752
 6  13.57372205890589 -1.64731926532653  0.13939790419042
 6  12.56890182488249 -1.74876938593859 -0.99243320582058
 6  11.08572546044604 -0.02104735683568 -0.04251707140714
 6  10.91547295219522 -0.04263762176218  2.55676801700170
 6  12.75644876157616  1.27624084488449  1.32786583758376
 6  12.33903020922092  0.55092396569657 -1.99277322512251
 6 -4.71105760146015  2.20795330133013 -0.14205905480548
 6  9.86622781028103  0.43454425722572 -0.04874605130513
 6 -3.34668982738274  2.54471322502250 -0.25507576827683
 6  8.69376916291629  0.82169850365037 -0.14222856285629
 6 -2.98720040514051  3.96658811831183 -0.66869660176018
 6 -2.28203511861186  1.62474432313231 -0.02984551925193
 6  7.46988653115312  0.09149973797380 -0.01720090419042
 6  7.56713144964496 -1.35767271937194  0.00411033393339
 6  6.24506585458546  0.62223915421542 -0.02952688868887
 6 -0.89305343684368  1.91580070377038 -0.16873504860486
 6  4.95693729652965  0.14921403750375  0.12499386818682
 6  0.06058253725373  0.97273058295830  0.02997389458946
 6  3.77711711941194  0.81767211761176  0.09323185418542
 6  1.39054099489949  1.25305703340334 -0.05362774367437
 6  2.40904880538054  0.33608290799080  0.16690004790479
 6  2.24404426612661 -1.21623580388039  0.22778137173717
 1 -12.85642744354435 -2.98552152995300 -0.87651287528753
 1 -13.54328955265527 -1.70504448864886 -1.90896735143514
 1 -13.54603240544054  0.36282335113511  1.69889257195720
 1 -13.88978837243724  0.68323345044504 -0.03703603800380
 1 -14.59015631973197 -1.59255796919692  0.18849045334533
 1 -10.36627524442444 -3.16247303010301 -1.60823611901190
 1 -11.30745095399540 -2.52698749014901 -3.18577686388639
 1 -9.92417460096010 -1.75724493309331 -2.51063267576758
 1 -9.35156381118112  1.06575870687069 -1.00340415051505
 1 -10.16982831043104  0.05634689878988  2.03215895869587
 1 -11.81711707260726  0.72659936153615  2.82048039813981
 1 -11.32460315401540 -1.03651052755276  2.42961375107511
 1 -11.91763430593059  2.25154127612761 -0.44942172617262
 1 -12.49907614701470  2.40202577807781  1.31317502930293
 1 -10.80506078817882  2.45969656015602  0.82879717321732
 1 -12.24098717121712 -2.47321019461946  1.29309378827883
 1 -8.94570541244124 -1.75245360306031  0.66564566346635
 1 -5.59039848594859 -2.06638996409641 -0.06244428882888
 1 -5.99789220452045 -1.43176840944094  1.76267466366637
 1 -6.77103721432143 -2.60340261326133  1.03741989278928
 1 -7.30873218431843  1.37341567066707 -0.17870754725473
 1 -4.33511015571557 -0.01070245184518  0.46640286458646
 1  13.56753243034303 -0.99207089448945  2.26055099569957
 1  12.05220039703970 -2.18125750575058  1.58198419811981
 1  13.89446180308031 -2.81187285228523  0.44474140004000
 1  12.95010244874487 -2.32726920542054 -1.96935002970297
 1  11.81364137233723 -2.51962108600860 -0.73981932403240
 1  11.46947655585559  0.02420278697870  3.37692273097310
 1  10.23863084078408  0.78271383448345  2.29673719791979
 1  10.28775639683968 -1.04206252075208  2.25082132333233
 1  13.25115201710171  1.35738436263626  0.26866093089309
 1  12.22992560576058  2.02316175397540  1.50585529122912
 1  13.60682651975197  0.99866434553455  1.97447392899290
 1  12.87744856435644  0.04484787518752 -2.93953640554055
 1  11.63761082948295  1.26795888678868 -2.53985192009201
 1  13.25533636623662  1.18216426932693 -1.43156864226423
 1 -5.50345256915692  2.93906829362936 -0.25949736053605
 1  9.85372662326233 -0.58882754035404 -2.48386072187219
 1  15.13437628282828 -0.77873768816882  0.56987558685869
 1  8.57266911771177  1.81463379057906 -0.10043732093209
 1 -2.62402748694869  4.49589603930393  0.27991382108211
 1 -2.13880264456446  3.99559678447845 -1.42655576467647
 1 -3.84678106320632  4.54233241504150 -0.99450925242524
 1 -2.57448706880688  0.58269048104810  0.15984302970297
 1  6.68971172107211 -2.07108667076708 -0.19369688498850
 1  8.39850506500650 -1.71338606340634 -0.59756053015302
 1  8.07330725232523 -1.67762009040904  0.96469022992299
 1  6.34703985108511  1.94010781618162 -0.24384640434043
 1 -0.68016937393739  2.92098614211421 -0.08300821232123
 1  4.73781976837684 -0.92424892159216  0.13599628072807
 1 -0.35477440064006 -0.12577439033903  0.18189080018002
 1  3.71947111501150  1.85898153435344  0.04491226622662
 1  1.59201607680768  2.30986677857786 -0.19794249264926
 1  1.11420025482548 -1.35942254645464 -0.07351835623562
 1  2.75917724252425 -1.72211851335133 -0.58003577357736
 1  2.34286098249825 -1.62547677667767  1.30109339593959

