%nproc=3
%Mem=2GB
# td=(NStates=1) CAM-B3LYP/6-31G(d,p) 

TD

0 1
 8 -11.75045171277128  0.34118476687669 -1.39900706430643
 8 -12.83026386218622 -2.48848715671567  1.39899558455846
 8  10.79754527442744 -1.14491437933793 -2.18800252655266
 8  14.45683905060506 -0.91283000450045  0.09279479207921
 6 -11.06117428462846 -0.16317027172717 -0.18666809120912
 6 -11.74492078177818 -1.05622680258026 -1.24057289758976
 6 -11.75516755975598  0.25794247704770  1.17375703070307
 6 -13.07065226892689 -1.60709086698670 -0.89886152015202
 6 -13.18991744974497 -0.11777922552255  1.16633132103210
 6 -13.43523995749575 -1.58166970477048  0.57131589888989
 6 -10.95970155885589 -1.87425284278428 -2.27508982728273
 6 -9.59989943374337  0.00165729952995 -0.31931888998900
 6 -10.97719369676968 -0.20048564456446  2.36230129722972
 6 -11.72208258855886  1.87046214931493  1.13514160586059
 6 -8.59523294499450 -0.80286832803280  0.07749648864886
 6 -7.09857784738474 -0.65767761386139  0.01676937723772
 6 -6.17891190609061 -1.83071175997600  0.13989622592259
 6 -6.56092175387539  0.68062889278928 -0.17140569576958
 6 -5.21347128872887  0.97840987768777 -0.43971830203020
 6  11.84739398629863  0.00931096059606  1.46255578367837
 6  11.73026031613161 -0.68174432963296 -1.17332121182118
 6  12.51949917801780 -1.23509773947395  1.57359209260926
 6  13.36137082378238 -1.70951548494849  0.41224518891889
 6  12.49386432113211 -1.90312482148215 -0.84559852235224
 6  11.10441732963296 -0.07653290539054  0.05252243254325
 6  10.99829123402340  0.26983362536254  2.69430177037704
 6  12.69957307400740  1.26539976077608  1.42094514551455
 6  12.49280558675868  0.45880475377538 -1.98344229202920
 6 -4.71889838553855  2.29035154115412 -0.53784863376338
 6  9.88506969446945  0.40996179897990 -0.11804298099810
 6 -3.37533269166917  2.63491224492449 -0.51012127282728
 6  8.63220300630063  0.82733906770677 -0.18492283228323
 6 -3.02937462256226  4.12729418891889 -0.72320205230523
 6 -2.38735565066507  1.68227007570757 -0.40161269596960
 6  7.45052459495950  0.10016060406041 -0.13884306840684
 6  7.48317305380538 -1.33001995409541  0.24529445234523
 6  6.21661300930093  0.68710564086409 -0.18403233923392
 6 -0.98587271877188  1.82856197989799 -0.42335051015101
 6  4.93442504530453  0.17595671177118 -0.06654528572857
 6  0.01048752775278  0.84765807570757 -0.26378548134813
 6  3.80378978667867  0.87226757715772 -0.13298076707671
 6  1.30124206500650  1.16959868756876 -0.21572395329533
 6  2.44387228772877  0.35810511021102 -0.08958560066007
 6  2.20918077977798 -1.08321250155015  0.22522111571157
 1 -13.26200800160016 -2.55363834163416 -1.20022524652465
 1 -13.80271549524952 -1.09812379657966 -1.72817927262726
 1 -13.54937273947395 -0.21854478567857  2.22470515321532
 1 -14.13122251585158  0.52310743784378  0.72813047864786
 1 -14.42014931903190 -1.94667338073807  0.89260086438644
 1 -10.57427604450445 -2.86009279207921 -1.98826412181218
 1 -11.49137934683468 -1.89139393079308 -2.97823610981098
 1 -10.14507669116912 -1.15601481008101 -2.50757236973697
 1 -9.28398705350535  1.02510464146415 -0.90657446754676
 1 -9.92559388698870  0.27183844794479  2.69397514031403
 1 -11.53816917781778 -0.13490678907891  3.44227257735774
 1 -10.90689138283828 -1.22478935543554  2.41937272697270
 1 -12.19706224872487  2.32000812281228  0.20576379237924
 1 -12.30284652405241  2.12537811331133  2.08162187398740
 1 -10.69189947204720  2.27974856535654  1.31216551005100
 1 -11.83908698119812 -2.52179505310531  1.31550602950295
 1 -8.82081292319232 -1.73444180188019  0.46080517941794
 1 -5.73277272337234 -2.08486181128113 -0.73621166556656
 1 -5.30308272357236 -1.80629586218622  0.84592298849885
 1 -6.75684579517952 -2.71404367736774  0.17832398319832
 1 -7.37806911801180  1.60978930803080 -0.35737541404140
 1 -4.51888853355335  0.18166678507851 -0.17165094079408
 1  13.35807148424843 -1.31064275167517  2.51080602120212
 1  11.75041021802180 -1.98296767676768  1.74731073077308
 1  13.62240459735974 -2.66643830883088  0.54809173507351
 1  13.00509794829483 -2.50482696119612 -1.70747384208421
 1  11.70920092829283 -2.59427855175518 -0.71479682178218
 1  11.68052766096610  0.20529089578958  3.53036807550755
 1  10.36598357605761  1.33634919801980  2.56283380758076
 1  10.31753937513751 -0.49837815231523  2.83268951015102
 1  13.47461436333633  0.91354997919792  0.84684874967497
 1  12.20044265746575  2.23342278007801  1.02052675837584
 1  13.06642247934793  1.46960143924392  2.41185766736674
 1  13.00540135963596 -0.11376798639864 -2.78612106400640
 1  12.11819888828883  1.39176126702670 -2.09091702660266
 1  13.42154298689869  0.63314936783678 -1.26981246664666
 1 -5.48530075397540  3.02391677847785 -0.43110452125213
 1  10.31099234983498 -0.27412607020702 -2.74931726752675
 1  15.07317016221622 -0.95023483788379  0.90030863016302
 1  8.30910276107611  1.85385771297130 -0.66895417261726
 1 -2.37780286448645  4.72051850155016 -0.07463163346335
 1 -2.36153491779178  4.14040126492649 -1.62707581668167
 1 -4.05563194829483  4.73277145894590 -0.96571637313731
 1 -2.71572119221922  0.61516372837284 -0.13994694929493
 1  6.56343909380938 -2.14650421252125 -0.21146866216622
 1  8.63031824632463 -1.69936466126613 -0.12665343944394
 1  7.28326824842484 -1.42158448684868  1.47018077897790
 1  6.20363551065106  1.70774457985799 -0.20706272597260
 1 -0.63111446844684  2.85312935643564 -0.50252016351635
 1  4.86873285968597 -0.95412190889089  0.29781246234623
 1 -0.57117604080408 -0.19883169606961  0.04891750285029
 1  3.85404457235724  1.99996563276328 -0.26107833283328
 1  1.68530540574057  2.23086887878788 -0.39163186158616
 1  1.17868670347035 -1.50657726192619  0.40858985458546
 1  2.79705102990299 -1.86899320082008 -0.45232300230023
 1  2.78620531693169 -1.32060628962896  1.04353764036404

