%nproc=3
%Mem=2GB
# td=(NStates=1) CAM-B3LYP/6-31G(d,p) 

TD

0 1
<<<<<<< HEAD
 8 -11.66224289188919  0.39970061846185 -1.57535469906991
 8 -13.20802163796380 -2.58340664866487  1.31435712071207
 8  10.63861938183818 -1.19761964986499 -1.97581130743074
 8  14.53750711741174 -0.96783550505051 -0.18503299069907
 6 -11.02689085628563 -0.07159111381138 -0.35233465786579
 6 -11.68072436213621 -1.01563274317432 -1.21088992929293
 6 -11.80286232923292  0.40639732253225  0.91927158215822
 6 -13.05163036673667 -1.66485664356436 -0.99089072307231
 6 -13.32698115611561 -0.08533598119812  0.91382607050705
 6 -13.60109654315431 -1.43671520932093  0.45806457375738
 6 -10.78259384808481 -1.90568598609861 -2.27084940324032
 6 -9.58928837263726  0.13055018881888 -0.35730268836884
 6 -11.06522249964996 -0.13341893789379  2.20441550865087
 6 -11.58798917921792  1.88739384248425  1.03661175287529
 6 -8.64828825052505 -0.75083312451245  0.11352009100910
 6 -7.22649063866387 -0.66950879697970  0.16626432673267
 6 -6.45142915781578 -1.92552124092409  0.28435067136714
 6 -6.49454511621162  0.53031386128613  0.00395183998400
 6 -5.13575351695170  0.77067910461046 -0.02700703090309
 6  11.91115036193619  0.16754678417842  1.30998052615262
 6  11.66532382248225 -0.66887304250425 -1.22819669936994
 6  12.75043227132713 -1.18773300300030  1.52136687008701
 6  13.37048173487349 -1.72937747114711  0.26633059745975
 6  12.40065500020002 -1.97726223522352 -0.87637159965997
 6  11.08841572947295  0.06983173107311  0.05368254855486
 6  11.05678708360836  0.33023966596660  2.49562190239024
 6  12.72284540124012  1.39640286108611  1.17311036203620
 6  12.46059236543654  0.27368624192419 -2.18602255005501
 6 -4.74860135583558  2.15682818881888 -0.30203505240524
 6  9.90696188368837  0.53717452025203 -0.09744092079208
 6 -3.39098425682568  2.47136589028903 -0.42088234893489
 6  8.64198398439844  0.97164349814981 -0.11577591759176
 6 -3.10664234933493  3.96771823132313 -0.65012474457446
 6 -2.29852676777678  1.58676052475248 -0.20139267396740
 6  7.50332987548755  0.15376596459646  0.02543335923592
 6  7.71829656615662 -1.39949690179018  0.23495341824182
 6  6.30514186218622  0.67463439373937 -0.13519745574557
 6 -0.90310444194419  1.88038716241624 -0.24161233633363
 6  4.97230883368337  0.06665578167817  0.12920428922892
 6  0.06612309130913  0.95092840274027 -0.08910801360136
 6  3.79700910861086  0.78175852625263 -0.16428389738974
 6  1.42051399219922  1.22613434113411 -0.24110649154915
 6  2.45891379187919  0.31793109280928  0.03005636353635
 6  2.27662752445244 -1.11006518681868  0.52645123872387
 1 -13.23582538333833 -2.70026300410041 -1.24531975597560
 1 -13.92823804750475 -1.14653863806381 -1.60995745044504
 1 -13.72191999419942  0.16486355515552  2.04087677037704
 1 -13.80607000060006  0.64021914901490  0.27102476807681
 1 -14.71090839493949 -1.47905661906191  0.11595319961996
 1 -11.02202081898190 -3.07145392819282 -1.82932822822282
 1 -11.28868907780778 -1.69153394479448 -3.30303859005901
 1 -9.53616580008001 -1.56179538813881 -2.06212782528253
 1 -9.19394804960496  1.21525365636564 -0.53479728982898
 1 -9.96739806740674  0.17168843294329  2.22508825162516
 1 -11.71529689058906  0.10105680728073  2.96009435953595
 1 -11.38036873057306 -1.21609848634863  2.10826161586159
 1 -11.80883342584258  2.42036815881588  0.09452266826683
 1 -12.03144938433843  2.41457703320332  1.86249996179618
 1 -10.52053233533353  2.13169375987599  1.07438173167317
 1 -12.25082815531553 -2.84414728832883  0.97280175907591
 1 -9.00541138303830 -1.79685804350435  0.51360045894589
 1 -6.01415086118612 -1.91244456955696 -0.82342038643864
 1 -5.56912932823282 -1.77225245784578  1.00152854905491
 1 -6.83002311291129 -2.70643291629163  0.61648779957996
 1 -7.15594690579058  1.44824315341534 -0.05571524802480
 1 -4.47739438413841  0.07860647904790  0.07208343264326
 1  13.41552722982298 -0.77831951935193  2.32505744634463
 1  12.03862903990399 -1.95418479847985  1.93016901660166
 1  13.65379773667367 -2.64427609260926  0.67538446434643
 1  12.83983142164216 -2.22178865736574 -1.79307240194019
 1  11.75311531973197 -2.66369549344935 -0.53082842494249
 1  11.64705431363136  0.64981534823482  3.54182922162216
 1  10.50270724842484  1.30582614571457  2.36389391359136
 1  10.16218383958396 -0.47954626912691  2.60236647784779
 1  13.45273217511751  1.38929755395540  0.28122218701870
 1  12.00583319651965  2.40930036783678  1.15850055575558
 1  13.45610144724472  1.46998147724773  2.10885736733673
 1  12.67143796329633 -0.07575418501850 -3.11254370627063
 1  11.84478154655466  1.12702479337934 -2.39595753065307
 1  13.33360419301930  0.66417247014701 -1.75188067346735
 1 -5.47033925782578  2.92220660746075 -0.47344875567557
 1  9.85043629422942 -0.72512116971697 -2.15431776757676
 1  15.01860470567057 -0.78013782818282  0.70382898219822
 1  8.47707955875588  1.92748507570757 -0.43069034623462
 1 -2.39179426362636  4.45553200290029 -0.01944611491149
 1 -2.59547831213121  4.05654287908791 -1.66989009810981
 1 -3.94531091619162  4.52714089588959 -0.61835163666367
 1 -2.46317593769377  0.43678589058906 -0.00802375697570
 1  6.76920967086709 -2.03701326342634  0.21681416611661
 1  8.59369458395840 -1.70850557535754 -0.30650142424242
 1  8.27014693629363 -1.68023035143514  1.18528228912891
 1  6.21785693279328  1.65686949234923 -0.33371539123912
 1 -0.62109346634663  2.83448749224923 -0.53087299879988
 1  4.73083907030703 -1.05174167086709  0.65679836093609
 1 -0.12267119031903  0.05433362046205  0.60940355145514
 1  4.03485265316532  1.83004864106411 -0.35352757775778
 1  1.55124199939994  2.28541433333333 -0.44854755315532
 1  1.16666550135013 -1.45450205440544  0.42986198179818
 1  2.68862018681868 -1.81580788228823 -0.43791156115612
 1  2.67181387778778 -1.27239146814681  1.26944023062306
=======
>>>>>>> 6a1b998aacd80a23911c140f266e48a14f2d523d

