%nproc=3
%Mem=2GB
# td=(NStates=1) CAM-B3LYP/6-31G(d,p) 

TD

0 1
<<<<<<< HEAD
 8 -11.71080774837484  0.09433008140814 -1.43193035663566
 8 -12.92300313611361 -2.50139844784478  1.55279096409641
 8  10.62637815771577 -0.90041992989299 -2.07751147744774
 8  14.40992435913591 -1.10223894539454  0.01674718731873
 6 -11.00438860606061 -0.11561551625163 -0.30635005940594
 6 -11.62123841354135 -1.16144732463246 -1.14862370267027
 6 -11.70557260026002  0.34361104390439  1.06011566656666
 6 -12.98530373407341 -1.84840499839984 -0.80086172017202
 6 -13.17714617261726 -0.12380982858286  0.95493018091809
 6 -13.49636607010701 -1.59141067886789  0.59337810511051
 6 -10.86159174787479 -2.03964938243824 -2.19816213451345
 6 -9.57096654045404  0.16233336713671 -0.34069102720272
 6 -11.04067004440444 -0.11564716071607  2.28535360246025
 6 -11.67212759305930  1.80936603970397  0.91666975867587
 6 -8.60718414011401 -0.76182422362236 -0.05568682968297
 6 -7.24582257185719 -0.57864971107111 -0.10219251895190
 6 -6.30772478737874 -1.85905459425943  0.04837707400740
 6 -6.67588325002500  0.76467729762976 -0.20127868306831
 6 -5.23785372697270  0.98389042574257 -0.27373170337034
 6  11.88903815071507  0.07257728722872  1.36092562066207
 6  11.69013630373037 -0.62446860206021 -1.16370024972497
 6  12.64304153225322 -1.29114334403440  1.68270300370037
 6  13.23348803550355 -1.91694622802280  0.44272823722372
 6  12.37888282298230 -2.03400790979098 -0.79576353885389
 6  11.12814970287029  0.00878562646265  0.04993217351735
 6  10.88694009890989  0.37899454145415  2.44933727392739
 6  12.88071118781878  1.23476669746975  1.37568061906191
 6  12.56177248344834  0.38183705700570 -2.04209815761576
 6 -4.76872336803680  2.30311281728173 -0.37450229912991
 6  9.90253144064406  0.42708351115111  0.00347917121712
 6 -3.35254041244124  2.66497525122512 -0.42911317201720
 6  8.68052783878388  0.87869420322032 -0.21429576957696
 6 -3.04547623272327  4.16648810831083 -0.47775750785079
 6 -2.30443735883588  1.77283913261326 -0.36827936263626
 6  7.46058560106011  0.07755834383438 -0.17462664676468
 6  7.75342007850785 -1.41560851295130 -0.00813089018902
 6  6.24890623862386  0.75573250355035 -0.14911884788479
 6 -0.91815594709471  1.96264538823882 -0.36499467456746
 6  4.93777538033803  0.14054317041704 -0.11896052725273
 6 -0.00158367936794  0.91227453735374 -0.14492359515952
 6  3.70571997969797  0.87369772017202 -0.19983745274527
 6  1.33816575737574  1.24547627532753 -0.14343672457246
 6  2.39580748124812  0.36038533823382 -0.03810045214521
 6  2.17459732143214 -1.06488066836684  0.33283187678768
 1 -12.88529032983298 -2.85552853065306 -0.87113233723372
 1 -13.72330755445545 -1.63041702590259 -1.44964141884188
 1 -13.49652745494549  0.03758082688269  2.03544622732273
 1 -13.75145453905390  0.71343647074707  0.22451011661166
 1 -14.55231253535353 -1.67434614801480  0.62458406270627
 1 -10.32852146904690 -2.92984976777678 -2.00841613701370
 1 -11.53371358025803 -2.29404419581958 -3.13158144434443
 1 -10.04573675717572 -1.38185739433943 -2.43391500400040
 1 -9.37798645344535  1.19388151915191 -0.71054486458646
 1 -9.92552387998800  0.44634589868987  2.39851559435944
 1 -11.70844620552055  0.00298700030003  3.28957730783078
 1 -10.79848054175418 -1.15355223172317  2.45032582228223
 1 -12.46404894739474  2.24463058505851  0.26466968296830
 1 -12.03181942134214  2.39718529402940  1.91711542334233
 1 -10.64763504560456  2.16633722422242  0.79276356985699
 1 -11.96039911241124 -2.42765563916392  1.32864734363436
 1 -9.09881072297230 -1.63208156585659  0.15815491439144
 1 -5.48247769386939 -1.72216554165417 -0.66931497589759
 1 -5.75488790409041 -1.79523475607561  1.10472886908691
 1 -6.84210432103210 -2.89157143014301  0.12133828462846
 1 -7.14861617271727  1.51536986608661 -0.17916759325933
 1 -4.48704534923492  0.24003262166217 -0.06403017871787
 1  13.51302697979798 -1.29577126452645  2.39303424402440
 1  11.99239441644164 -2.03215259525953  2.04142014171417
 1  13.50529288618862 -2.95663732873287  0.87869479537954
 1  12.84461189968997 -2.54288076657666 -1.48561165586559
 1  11.57629763796380 -2.62160128402840 -0.68878422052205
 1  11.47349695789579  0.47149751645165  3.42143718241824
 1  10.36041301900190  1.23046860996100  2.17633515771577
 1  10.17259488068807 -0.49214752925293  2.43524976617662
 1  13.71062796469647  0.96944556875688  0.72315638043804
 1  12.47621023422342  2.23484292209221  0.99956466216622
 1  13.19477531463146  1.33003748284828  2.48099458105811
 1  12.84002482198220 -0.09885649524953 -2.93330578247825
 1  11.84901196959696  1.36688877977798 -1.87910584548455
 1  13.36046687928793  0.69020507340734 -1.49997548294829
 1 -5.59100132403240  2.98445283208321 -0.48096950775078
 1  10.15516676727673 -0.08750740834083 -2.30655299109911
 1  15.24149699489949 -1.53676349074907  0.47333593289329
 1  8.62297414821482  2.00411273847385 -0.42198947614762
 1 -2.44130921512151  4.24236068576858  0.63242907260726
 1 -2.16490525482548  4.38599582438244 -1.39214232333233
 1 -3.89304568966897  4.79955813761376 -0.46738654015402
 1 -2.68515813591359  0.83733594559456 -0.05299825442544
 1  6.78252100200020 -1.99961952405241 -0.06012352765277
 1  8.28407362186219 -2.05267999279928 -0.72448322242224
 1  8.21701162276228 -1.68365069346935  0.92015577647765
 1  6.24104925202520  1.88672247764776 -0.04156617631763
 1 -0.60768212521252  3.00743478697870 -0.51589150065006
 1  4.89618560496050 -0.96099259595960  0.03223590469047
 1 -0.36656557975798 -0.11441325422542  0.04662727382738
 1  3.82936210411041  1.95516115231523 -0.37605983098310
 1  1.41927880308031  2.36910270217022 -0.24460715911591
 1  1.16208504330433 -1.42377898209821  0.51053004860486
 1  2.63560488528853 -1.82511881338134 -0.42180995099510
 1  2.79524622102210 -1.46845107410741  1.24601788838884
=======
>>>>>>> 6a1b998aacd80a23911c140f266e48a14f2d523d

