%nproc=3
%Mem=2GB
# td=(NStates=1) CAM-B3LYP/6-31G(d,p) 

TD

0 1
 8 -11.64507117471747  0.07741839023902 -1.59855701930193
 8 -12.87661849764977 -2.52371067906791  1.43416910191019
 8  10.43989950985099 -0.89164905280528 -2.05598932523252
 8  14.48874224092409 -1.24019274077408 -0.13657814521452
 6 -11.00124829202920 -0.21279523422342 -0.37369679407941
 6 -11.50536682638264 -1.29129030893089 -1.16604544484448
 6 -11.87266930993099  0.38266494929493  0.86293594859486
 6 -12.85368057175718 -1.98362852075208 -0.95569720372037
 6 -13.30075853385339 -0.11233868146815  0.83067775567557
 6 -13.47396382988299 -1.62799433723372  0.44951371867187
 6 -10.59830541924192 -2.14477989548955 -2.06175849414941
 6 -9.51364080788079  0.04509164296430 -0.40203716181618
 6 -11.10649662706271  0.12936734073407  2.24343941104110
 6 -11.77641802210221  1.95903100620062  0.69086717841784
 6 -8.56054947664767 -0.77122516371637  0.16487522652265
 6 -7.15116310591059 -0.61447329342934  0.31198889918992
 6 -6.27510152505250 -1.73808249704971  0.62512474877488
 6 -6.53593925562556  0.62974380428043 -0.15273382858286
 6 -5.16770671227123  0.96048808550855 -0.03261759195920
 6  11.82589183608361 -0.11821179167917  1.36293582168217
 6  11.52862015211521 -0.60204635983598 -1.27338121782178
 6  12.56701392949295 -1.56215044474447  1.48927366076608
 6  13.29811449814982 -2.07565209860986  0.14916888128813
 6  12.31442637733773 -1.93184769376938 -1.09284324682468
 6  11.04675156305630  0.00775552345235 -0.01076389608961
 6  10.86252765766577  0.04155079707971  2.57197953815382
 6  12.80443356005600  1.11673489428943  1.34171722272227
 6  12.43486979317932  0.47608648194819 -2.02905685348535
 6 -4.70667716341634  2.22292479847985 -0.31636648554855
 6  9.88662985048505  0.58076887968797  0.05367419071907
 6 -3.32056721512151  2.65780453415342 -0.43419368006801
 6  8.63949373537354  1.03770010381038 -0.00651499149915
 6 -3.14763644874487  4.13461492099210 -0.71876160826083
 6 -2.25017193229323  1.73351520022002 -0.28657119181918
 6  7.40700024252425  0.25770635863586  0.02742355825583
 6  7.64995973247325 -1.21191814391439  0.29889981288129
 6  6.20705205320532  0.80694762506251 -0.14273820982098
 6 -0.94862899439944  2.13974309800980 -0.32598077317732
 6  4.90719232203220  0.19645876197620  0.00059142794279
 6  0.13506998599860  1.11144445434543 -0.17069617241724
 6  3.75576498419842  0.97440779117912  0.08293082408241
 6  1.50379232003200  1.39076080378038 -0.12407478837884
 6  2.43194109460946  0.47599689938994 -0.01584822692269
 6  2.23402326402640 -1.03192737303730  0.09897849144914
 1 -12.72124392519252 -3.14426740454045 -0.89224444844484
 1 -13.66776199989999 -1.65239922412241 -1.63721017571757
 1 -13.75836363856386 -0.01076400760076  1.80976365906591
 1 -13.88581797539754  0.51071619871987  0.23527119271927
 1 -14.48330563466347 -1.96790550395039  0.44154575887589
 1 -10.23273189008901 -2.81630841364136 -1.30876617201720
 1 -11.21381159005901 -2.69596438783878 -2.76937522372237
 1 -9.77181936543654 -1.64505371397140 -2.69617122962296
 1 -9.40520917571757  0.99553168416842 -0.83900771087109
 1 -10.11278260586059  0.49324058815882  2.29933567636764
 1 -11.66383174407441  0.75106180778078  2.98382673277328
 1 -10.97310800450045 -1.09536641314131  2.74657544724472
 1 -12.27626016851685  2.32764888688869 -0.24983176717672
 1 -12.27013325272527  2.32165774127413  1.48883259505951
 1 -10.68458874097410  2.51234182468247  0.82513680718072
 1 -11.92958603110311 -2.31926480008001  1.27173165206521
 1 -9.00147098899890 -1.82925128282828  0.69256835573557
 1 -5.90106955305531 -2.29897322242224 -0.28047609200920
 1 -5.39630204550455 -1.61779701230123  1.19659805600560
 1 -6.65090520112011 -2.61685395839584  1.16288243904390
 1 -7.09902121322132  1.58602693179318 -0.36875655215522
 1 -4.43489013371337  0.21223984238424  0.37961418571857
 1  13.42854853195320 -1.35314700210021  2.23459840044004
 1  11.75068024502450 -2.34687406740674  1.79734573427343
 1  13.55699805670567 -3.03250491549155  0.58747567346735
 1  12.54868230673067 -2.35466194469447 -2.03762685738574
 1  11.50877088528853 -2.74183330723072 -0.88353369546955
 1  11.54948455665567 -0.03815344864486  3.51119615831583
 1  10.36708368606861  1.06974253735374  2.48534605880588
 1  10.10370799199920 -0.67226554105411  2.74729097029703
 1  13.64730163206321  0.83455207940794  0.68016208100810
 1  12.22195480868087  1.93532297009701  1.34900960666067
 1  13.49672550965096  1.12704718381838  2.34646112771277
 1  12.70659147864786 -0.06218282788279 -3.07899035093509
 1  11.64098116651665  1.24733682458246 -2.37704563946395
 1  13.30433126572657  0.97545359825983 -1.51925741114111
 1 -5.59993221712171  3.12711709850985 -0.53627503830383
 1  9.76273752435243 -0.13568222582258 -2.09387172297230
 1  15.21801464666467 -1.39369918431843  0.56442504180418
 1  8.67111896269627  2.11494382158216  0.02808553135314
 1 -2.72493757795780  4.75641209090909  0.27897372707271
 1 -2.49195796009601  4.00505773057306 -1.65726883598360
 1 -4.05919230433043  4.67469565136514 -1.14978477997800
 1 -2.39604922502250  0.58279049104910 -0.25308826342634
 1  6.78589133903390 -1.82471203330333 -0.43575109040904
 1  8.54544975947595 -1.53273799859986 -0.14357513161316
 1  7.75080500210021 -1.47422975137514  1.48237199809981
 1  6.24062921002100  1.74798860426043 -0.50200221992199
 1 -0.65521687868787  3.12663670717072 -0.34879479097910
 1  4.95107109350935 -0.85686218291829  0.23711639273927
 1 -0.23258218141814 -0.00291210411041 -0.29576696559656
 1  3.68741790969097  1.96366200240024 -0.25956818181818
 1  1.70260713591359  2.44458024992499 -0.12362506090609
 1  1.23487232203220 -1.18130473467347  0.16495549114911
 1  2.50033135793579 -1.71976827832783 -0.68606637663766
 1  2.53107980438044 -1.47259148814881  1.09912319891989

