%nproc=3
%Mem=2GB
# td=(NStates=1) CAM-B3LYP/6-31G(d,p) 

TD

0 1
 8 -11.79938660626063  0.30574122252225 -1.45505266886689
 8 -12.93815465126513 -2.52228053605361  1.44045973097310
 8  10.56582210211021 -1.19998988688869 -2.03318704500450
 8  14.57901126782678 -1.11128985048505 -0.10434492189219
 6 -11.06186435363536 -0.11085504020402 -0.24102352675268
 6 -11.58748503820382 -1.11866304620462 -1.18773761406141
 6 -11.77211925492549  0.28023470627063  1.07646730173017
 6 -12.95387059075908 -1.71211136903690 -0.93291492549255
 6 -13.23646210421042 -0.03370081768177  0.97147183508351
 6 -13.49977641114111 -1.63638517631763  0.52771153845385
 6 -10.89085467416742 -1.87015243274327 -2.37092941124112
 6 -9.49807925172517  0.13115024882488 -0.48195515361536
 6 -11.02251822922292 -0.20140573657366  2.24489955705571
 6 -11.75182556285628  1.85047015011501  1.15511360306031
 6 -8.57496091779178 -0.74808284948495  0.03992273127313
 6 -7.14009199879988 -0.62270411651165  0.07097479777978
 6 -6.34621863676368 -1.71307999679968  0.38209044534453
 6 -6.62902856455645  0.67360819071907 -0.04005256045605
 6 -5.21020096169617  0.88957099379938 -0.10026435663566
 6  11.90888013491349  0.02284231373137  1.35606513461346
 6  11.58936622672267 -0.67085324052405 -1.16034991469147
 6  12.61831906000600 -1.26777100680068  1.48450318371837
 6  13.44772945964596 -1.81761629502950  0.29096306070607
 6  12.36969190389039 -1.93456796579658 -0.80920488298830
 6  11.07398428632863  0.04234898279828  0.05685286558656
 6  11.01930333523352  0.31428807080708  2.63820616081608
 6  12.85906902360236  1.23381660246025  1.42857590859086
 6  12.46041234743474  0.43423229652965 -1.98500244804480
 6 -4.74974146984698  2.15055756175618 -0.45624047294729
 6  9.86229741724172  0.46530733353335  0.00495931923192
 6 -3.30365552395240  2.49758851255126 -0.50234049474947
 6  8.64719450545054  0.94302063586359 -0.19154349434943
 6 -3.04816650175018  4.05393685318532 -0.69571930403040
 6 -2.34610152525253  1.66731858055806 -0.23281581628163
 6  7.41138068056806  0.17413800180018 -0.07023620772077
 6  7.59096383288329 -1.25588254035404  0.20771069396940
 6  6.16106745474547  0.91464839513951 -0.13986792279228
 6 -0.96796092759276  1.90604972867287 -0.35150332543254
 6  4.92732433523352  0.18286740284028  0.02786415521552
 6  0.03845032403240  0.90334364426443 -0.29307841064106
 6  3.75813522122212  0.87746809720972 -0.21068853785379
 6  1.35781772257226  1.20413214091409 -0.34862724362436
 6  2.39750765126513  0.37629692939294 -0.13760040214021
 6  2.26338620032003 -1.15596977727773  0.26578517211721
 1 -12.82532433323332 -2.92391536933693 -1.03600882488249
 1 -13.73004822852285 -1.47572155635564 -1.60049650435043
 1 -13.67529533173317 -0.06764969616962  1.91069375207521
 1 -13.62508190179018  0.57398252535254  0.20563822942294
 1 -14.62105941004100 -1.73519223262326  0.46229783408341
 1 -10.77723634053405 -2.89484626742674 -2.04961025642564
 1 -11.50388059695970 -1.73829862126213 -3.11597988418842
 1 -10.02395457895789 -1.33016222482248 -2.59398101060106
 1 -9.16447510231023  1.11288341934193 -0.98824263436344
 1 -9.95835716331633  0.19567083118312  2.28104384718472
 1 -11.63253861476147 -0.14584788318832  3.28816716681668
 1 -10.82440313401340 -1.19183606010601  2.14668545824583
 1 -12.24562710521052  2.32839896189619  0.13492670867087
 1 -12.24043028242824  2.37401297679768  2.00175388718872
 1 -10.68409869196920  2.18797938843884  1.23493778727873
 1 -12.03703677617762 -2.91377425102510  1.15334981388139
 1 -9.01479232113211 -1.58488684638464  0.65493459235924
 1 -5.75833527962796 -2.26095942104210 -0.51152919731973
 1 -5.52798521382138 -1.51359659225923  1.11494989118912
 1 -6.95267537813781 -2.60121239423942  0.77122327312731
 1 -7.37346865796580  1.59971830093009 -0.37372704920492
 1 -4.49716636133613  0.11551016941694 -0.08738251395139
 1  13.43783946104610 -1.04606629402940  2.27224216481648
 1  12.16351152815282 -2.19433881388139  1.85012101180118
 1  13.83784614151415 -2.60897256225623  0.50474740064006
 1  12.65359279777978 -2.21701818031803 -1.68716181088109
 1  11.72447245544554 -2.68960808470847 -0.31188653075308
 1  11.65356496469647  0.29311967866787  3.57527256595660
 1  10.41478845654565  1.27740330343034  2.56770429462946
 1  10.35483310451045 -0.51596991149115  2.87798403960396
 1  13.69634653655365  1.18399702390239  0.76611067586759
 1  12.42065467866787  2.08420785858586  1.33036774247425
 1  13.14380021712171  1.32165664476448  2.47214369596960
 1  12.60672149164916 -0.28531514111411 -2.99217166906691
 1  11.72454952335234  1.23960605150515 -2.26456439133913
 1  13.44274510711071  0.75183123602360 -1.46691217661766
 1 -5.37766999089909  2.94561894869487 -0.48881029182918
 1  10.37588883948395 -0.10256891449145 -2.34769710551055
 1  15.10819366456646 -1.30949076347635  0.56529512881288
 1  8.62129398019802  1.74696702390239 -0.58986626382638
 1 -2.24706979117912  4.32182863256326  0.10941677137714
 1 -2.59363812811281  4.18533575837584 -1.63013612271227
 1 -3.96721310641064  4.67825600740074 -0.67104690619062
 1 -2.59969959005901  0.55143735573557 -0.12209516411641
 1  6.80267301720172 -1.73499306140614  0.04097658235824
 1  8.50300551505151 -1.57852257705771 -0.24862563666367
 1  7.73394331593159 -1.49712204060406  1.22145590649065
 1  5.96211135823582  1.94357816321632 -0.41844386408641
 1 -0.69263062006201  2.90476451995200 -0.63424333583358
 1  4.84694068046805 -0.80863736043604  0.52957563866387
 1 -0.31708063126313 -0.14319613251325  0.20418302940294
 1  4.02169133703370  1.85213084928493 -0.46430865586559
 1  1.71557843304330  2.30432622452245 -0.50310300870087
 1  1.24222305710571 -1.52572917711771  0.22243123872387
 1  2.88177950275028 -2.04219052055205 -0.26922469246925
 1  2.81183788018802 -1.03606783578358  1.21565485208521

