%nproc=3
%Mem=2GB
# td=(NStates=1) CAM-B3LYP/6-31G(d,p) 

TD

0 1
<<<<<<< HEAD
 8 -11.68110477807781  0.29896054445445 -1.54164132773277
 8 -12.78188902470247 -2.57555586358636  1.27159284428443
 8  10.51343686358636 -1.21171105900590 -2.04136786308631
 8  14.44229759645965 -1.19898862036204 -0.10957544494449
 6 -10.98923709090909 -0.03329728442844 -0.32107153155316
 6 -11.54209049874988 -1.09940112001200 -1.23313215351535
 6 -11.79441148414841  0.30878756155616  1.02579223422342
 6 -12.91967717141714 -1.75113527142714 -1.08852048604861
 6 -13.32275073307331 -0.22566001360136  0.94321900980098
 6 -13.41497793129313 -1.62605414321432  0.39236800410041
 6 -10.69607519621962 -1.78572398989899 -2.27948026632663
 6 -9.51819126292629  0.16702383618362 -0.38049500760076
 6 -11.14991096849685 -0.25183077907791  2.33778884598460
 6 -11.85061544184418  1.81736683978398  1.01336942864286
 6 -8.60453387508751 -0.71006904810481  0.17778651765177
 6 -7.22001999159916 -0.55499734583458  0.23560126042604
 6 -6.55217923282328 -1.82428111691169  0.46599883618362
 6 -6.51570723242324  0.64782561246125 -0.11859041424142
 6 -5.13538347994800  0.89585162186219 -0.05375970617062
 6  11.91030027692769  0.08819884938494  1.25421494959496
 6  11.64534182428243 -0.73097925312531 -1.30973485318532
 6  12.57807503560356 -1.27185141484148  1.60714544794479
 6  13.21597628432843 -1.92502703610361  0.26773073747375
 6  12.31004593929393 -1.98747325632563 -0.87507146964696
 6  11.14114100200020  0.04003875177518  0.07315449574957
 6  11.00831223612361  0.47821446344634  2.57698003820382
 6  12.97867098379838  1.27608082888289  1.15595864686469
 6  12.43900020622062  0.21628050135013 -2.12178612641264
 6 -4.66399289498950  2.15261776777678 -0.41862671157116
 6  9.88885007250725  0.50717151995200 -0.07860903760376
 6 -3.32635779417942  2.53161191489149 -0.43068332903290
 6  8.65532531853185  1.00358669246925 -0.15537987798780
 6 -3.06726841194119  4.00959241874187 -0.55027475957596
 6 -2.33697061216122  1.60391223992399 -0.19981251595160
 6  7.43725326782678  0.27333792179218  0.03911472737274
 6  7.61486622312231 -1.21583853595360  0.43810373327333
 6  6.22732408040804  0.84500143044304 -0.20213414941494
 6 -0.98419255075508  1.89775889958996 -0.46932510761076
 6  4.89266086888689  0.27686680278028 -0.01541017221722
 6 -0.04782830383038  0.97112042194219 -0.07339644244424
 6  3.72693210091009  0.93298364876488 -0.16079354835484
 6  1.42510445124512  1.21122284998500 -0.12670505140514
 6  2.45240314081408  0.37053635333533  0.02668602650265
 6  2.25236509820982 -1.04070825112511  0.31387998159816
 1 -12.87931973277328 -2.78126110391039 -1.14516974097410
 1 -13.66137136083608 -1.32601658585859 -1.70548700340034
 1 -13.74540234243424 -0.35314824602460  2.14446712941294
 1 -14.07690708430843  0.51779690679068  0.36313397899790
 1 -14.35656296039604 -1.89664837823782  0.52544414871487
 1 -10.47148576547655 -2.70766754955496 -2.03367866326633
 1 -11.42787299619962 -2.09271406280628 -3.08401668786879
 1 -9.79277146064606 -1.36686589518952 -2.58328994149415
 1 -9.11611026582658  1.08649078007801 -0.99660347044704
 1 -9.90571189878988  0.00090135423542  2.26169191199120
 1 -11.57286264716472  0.38039474107411  3.24386273637364
 1 -11.54512520622062 -1.31227810431043  2.49018980868087
 1 -12.35047759025903  2.29312543454345  0.01446466246625
 1 -12.32586882628263  2.27576315181518  1.80191390319032
 1 -10.70752103420342  2.22139272977298  0.97177147064707
 1 -12.05704877737774 -3.09838271187119  0.77073155205521
 1 -8.99423026492649 -1.48979733743374  0.69796889578958
 1 -5.47800724682468 -1.99034235933593 -0.16092413681368
 1 -6.04668708400840 -1.81910714331433  1.42256065226523
 1 -7.33423353395340 -2.67016928992899  0.38822497329733
 1 -7.09852116321632  1.51790011911191 -0.41389106560656
 1 -4.41870851555155  0.06831544994499  0.22238846314631
 1  13.39274495159516 -1.10844253165317  2.41580652125212
 1  11.76653183018302 -2.09294867486749  1.75532153185319
 1  13.54808716561656 -2.88918058305831  0.66287321322132
 1  12.99100653915391 -2.30180665916592 -1.80274336903690
 1  11.41707171537154 -2.76538566246625 -0.66597193929393
 1  11.60099970817082  0.28706907360736  3.50614565326533
 1  10.74056103380338  1.44396996009601  2.40795832003200
 1  10.35599322052205 -0.19740805530553  2.60199644084408
 1  13.95548245014501  0.95534415861586  0.66011007580758
 1  12.50931354455446  2.25811524932493  0.71059576527653
 1  13.24888072517252  1.56420089918992  2.30186666826683
 1  12.92854367386739 -0.25748235783578 -3.05353780568057
 1  12.17994506290629  1.07667975887589 -2.39064699959996
 1  13.24890572317232  0.51864791769177 -1.47300278567857
 1 -5.32127435133513  3.18085247204720 -0.55751716251625
 1  10.08557980858086 -0.39185784338434 -2.42774511031103
 1  14.94670751595159 -1.28216803120312  0.62884148344834
 1  8.47198904970497  2.15992832003200 -0.60252752995300
 1 -2.40731581578158  4.57540399009901  0.15288111781178
 1 -2.48405717001700  4.23682090689069 -1.47879098819882
 1 -3.93180956605661  4.47718590039004 -0.50964076557656
 1 -2.40835045514552  0.55942815481548 -0.29679263386339
 1  6.71416416631663 -1.78701826392639  0.34892737743774
 1  8.47559277377738 -1.68448317311731 -0.21069184328433
 1  8.02342226382638 -1.48507083548355  1.46621038193819
 1  6.22466761386139  2.01183498889889 -0.29390140984098
 1 -0.56488784578458  2.73799784328433 -0.84448435993599
 1  4.94576056245625 -0.71531802850285  0.29546222732273
 1 -0.35220414361436 -0.10563237613761  0.16138874997500
 1  3.87379654755476  2.01789742594259 -0.31147337233723
 1  1.71644852005201  2.23704949684969 -0.13151584998500
 1  1.19217805260526 -1.33369997419742  0.33728272387239
 1  2.67030835563556 -1.70023632513251 -0.32714048404841
 1  2.84775147154716 -1.42310653965397  1.14279756635664
=======
>>>>>>> 6a1b998aacd80a23911c140f266e48a14f2d523d

