%nproc=3
%Mem=2GB
# td=(NStates=1) CAM-B3LYP/6-31G(d,p) 

TD

0 1
<<<<<<< HEAD
 8 -11.73528019561956  0.35028567696770 -1.46006316991699
 8 -12.76529736553655 -2.55227353535354  1.40751643664366
 8  10.69239475937594 -1.06575646354635 -2.02441616791679
 8  14.47359072577258 -0.97186590809081  0.09449496209621
 6 -11.07919608680868  0.02840888618862 -0.32189161356136
 6 -11.63130942064206 -1.04187536743674 -1.10774961526153
 6 -11.81044308730873  0.49050573337334  1.05591524652465
 6 -13.03947915161516 -1.71219137703770 -0.89175080908091
 6 -13.22241069906991 -0.14119156675668  1.01811649954995
 6 -13.37514394789479 -1.61607314511451  0.61093986128613
 6 -10.82365795449545 -1.79576499399940 -2.20412273057306
 6 -9.56059550335033  0.14755188898890 -0.37990494859486
 6 -11.00608658605861 -0.19327492349235  2.24326939403940
 6 -11.86722710301030  1.94992009510951  0.98666675837584
 6 -8.72196561826183 -0.75287332853285  0.06005474447445
 6 -7.22717070667067 -0.50623246934693  0.13217091739174
 6 -6.43196721162116 -1.81420010881088  0.38695093139314
 6 -6.62008767046705  0.67801863176318 -0.03909246444644
 6 -5.33924386598660  0.99217125382538 -0.11901623182318
 6  11.77396664356436  0.06191622112211  1.35823535163516
 6  11.70039732983298 -0.52891904710471 -1.22492637233723
 6  12.49627685578558 -1.27488171787179  1.45423015641564
 6  13.33816850355035 -1.75990052345235  0.41941590599060
 6  12.44839977467747 -1.78995350435044 -0.84949891239124
 6  11.01534842274227  0.03498824672467 -0.01617443714371
 6  10.75256666156616  0.07364400640064  2.53852619281928
 6  12.74966808350835  1.20877409820982  1.49332238323832
 6  12.58186449264926  0.48907778107811 -1.94328827662766
 6 -4.69711620732073  2.21591409740974 -0.44644949384939
 6  9.80667185468547  0.55030583338334 -0.11401257795780
 6 -3.28599375777578  2.40513926762676 -0.51145140584058
 6  8.64768455445545  1.00801713551355 -0.28921326132613
 6 -2.91697338243824  3.82868432793279 -0.86195592769277
 6 -2.30204711981198  1.43110495919592 -0.38605113981398
 6  7.46573611611161  0.18257884588459 -0.10057924202420
 6  7.73990872737274 -1.29312626472647  0.15531545444544
 6  6.23960530853085  0.72778970927093 -0.25417935393539
 6 -0.90751488298830  1.72769189288929 -0.32340051515152
 6  5.01812341514151  0.12448156425643 -0.10089872107211
 6  0.06650312931293  0.82857616751675 -0.05944504730473
 6  3.76079548724872  0.79760011041104 -0.14598206720672
 6  1.41386332713271  1.18869059675968 -0.16706908780878
 6  2.51785968646865  0.21364066376638 -0.00017665976598
 6  2.30261012271227 -1.25737991829183  0.18929752335234
 1 -13.07983978477848 -2.82988596639664 -1.31042626662666
 1 -13.65495071877188 -0.97445142934293 -1.58573502820282
 1 -13.67882568476848 -0.09954288548855  1.98346102880288
 1 -13.89345873947395  0.50305543264326  0.25634329992999
 1 -14.55254255835584 -1.62181089448945  0.64579618391839
 1 -10.75812442934293 -2.97002378517852 -2.05504079947995
 1 -11.44558476737674 -1.59608439983998 -3.09557784398440
 1 -9.78373055655566 -1.46901611021102 -2.39805141764176
 1 -9.31458011281128  1.12566469746975 -0.92436624672467
 1 -9.86995832343234 -0.02652138803880  2.37603334613461
 1 -11.24003936483648  0.36926362796280  3.17871622172217
 1 -11.06952764646465 -1.20167704420442  2.40146093579358
 1 -12.19623216571657  2.30790691269127  0.04309752575257
 1 -12.59990623002300  2.20729630513051  1.83937764956496
 1 -10.78525880798080  2.43565415591559  0.95059935343534
 1 -11.86971004350435 -2.83331620522052  1.16183066196620
 1 -8.89221006290629 -1.73447180488049  0.35940503940394
 1 -6.26595604170417 -2.35042836793679 -0.56001404580458
 1 -5.54396681198120 -1.54999023162316  0.95659405560556
 1 -7.16507661826183 -2.51468374137414  0.99579573037304
 1 -7.13852516361636  1.63547187628763 -0.19147882438244
 1 -4.36703334803480  0.23270188858886 -0.15720949664966
 1  12.98878455555556 -1.28157984538454  2.51700664126413
 1  11.60242541954196 -2.05214459445945  1.50510651035104
 1  13.63457581448145 -2.93046471147115  0.56197312321232
 1  13.06676411491149 -2.08604508300830 -1.76411950665066
 1  11.75532554075408 -2.54345346924692 -0.92849819191919
 1  11.45973558175818 -0.16065569886989  3.38798383708371
 1  10.36866384408441  1.08899446254625  2.49244676887689
 1  10.01084870607061 -0.55939425392539  2.53861010221022
 1  13.51179808170817  1.25883450765077  0.76698076287629
 1  12.39479209240924  2.12777221502150  1.36219092479248
 1  13.36405224232423  1.21564604370437  2.22659914151415
 1  13.03653447294730  0.18020141054105 -2.86704915681568
 1  11.78258532693269  1.37846993789379 -2.33984191909191
 1  13.34904573717372  1.13042909580958 -1.60270575597560
 1 -5.36505872977298  3.06774116091609 -0.68544995579558
 1  10.06723797439744 -0.26263492109211 -1.98113044884488
 1  15.05073791899190 -0.67031684608461  0.87780637993799
 1  8.44474632543254  2.16240856805681 -0.54641191839184
 1 -2.36749183338334  4.33889033873387 -0.05213938423842
 1 -2.23736250055006  3.76737396219622 -1.74863797289729
 1 -3.86004238933893  4.50835901770177 -1.07333713521352
 1 -2.45257487758776  0.44999721172117 -0.07988094269427
 1  6.72873562346235 -1.77806736883688  0.20763324802480
 1  8.40756597109711 -1.82862758755876 -0.57651842594259
 1  7.84930485208521 -1.43739606800680  1.24503826472647
 1  6.18883403050305  1.82449625502550 -0.25110713041304
 1 -0.68674003100310  2.71893593709371 -0.49974988648865
 1  4.82143813021302 -1.00421691839184  0.16985966706671
 1 -0.21665058825883 -0.13682549544954  0.21619423052305
 1  3.75154432233223  1.78536417261726 -0.49223144814482
 1  1.61094796999700  2.14205999789979 -0.41202390079008
 1  1.20437927272727 -1.46315291949195  0.35824482008201
 1  2.63158448324832 -1.91420772227223 -0.68899666966697
 1  2.79843654005401 -1.38818304730473  1.11513480008001
=======
>>>>>>> 6a1b998aacd80a23911c140f266e48a14f2d523d

