%nproc=3
%Mem=2GB
# td=(NStates=1) CAM-B3LYP/6-31G(d,p) 

TD

0 1
 8 -11.77471413901390  0.49373002140214 -1.37455461906191
 8 -12.68517935373537 -2.78536684468447  1.13352903790379
 8  10.59037455735574 -1.20785067296730 -1.95600932723272
 8  14.56052941964196 -0.99343806530653 -0.19757424482448
 6 -11.09046721392139 -0.06461041574157 -0.20151957635764
 6 -11.60925721542154 -0.98335951585159 -1.24399323962396
 6 -11.81485352835283  0.21576825962596  1.10991064606461
 6 -12.93725892959296 -1.61958211611161 -1.06471810581058
 6 -13.38921737973797 -0.38875632323232  1.18693338123812
 6 -13.39750618411841 -1.73355489328933  0.39595836313631
 6 -10.89206479517952 -1.57881329882988 -2.46389870817082
 6 -9.56503594739474  0.26355348914891 -0.30475743384338
 6 -11.18022399979998 -0.27762335833583  2.30993606070607
 6 -11.99275965626563  1.68008311141114  1.28211630333033
 6 -8.67082050375037 -0.69113715491549  0.02990172917292
 6 -7.26142413201320 -0.53676552265227  0.04145184548455
 6 -6.42537655255525 -1.72498118691869  0.58209044534453
 6 -6.58761442314231  0.74338516841684 -0.13244179937994
 6 -5.23520346194619  1.08210024672467 -0.15310964116412
 6  12.04433368026803  0.19680971047105  1.24147367546755
 6  11.67555484558456 -0.67149330453045 -1.21013489318932
 6  12.79485671377138 -1.13450768046805  1.55325005840584
 6  13.42363705040504 -1.81443597699770  0.34755872027203
 6  12.46902183688369 -2.01457596659666 -0.74139810231023
 6  11.11020790869087  0.03377812571257  0.07698487878788
 6  11.08632003690369  0.39090573257326  2.48569090929093
 6  12.99098221492149  1.37208042884288  1.24741779277928
 6  12.49986629282928  0.17867674097410 -2.09986393419342
 6 -4.75350184588459  2.27286979297930 -0.45998084698470
 6  9.92985417291729  0.47780858365837 -0.01204238093809
 6 -3.37262242064206  2.62269102280228 -0.57405766646665
 6  8.64550433643364  0.84621095489549 -0.12317665766577
 6 -3.02882456755676  3.99687114661466 -0.98162789488949
 6 -2.33176009110911  1.71990383908391 -0.25693822852285
 6  7.43365290779078  0.08157874587459  0.07500831673167
 6  7.60620535703570 -1.39157610971097  0.38233815671567
 6  6.23055440344034  0.60533746404640 -0.26517045304530
 6 -0.92770690219022  1.94893401710171 -0.35295347044704
 6  4.94661626442644  0.14541365746575  0.00375174397440
 6 -0.09458297929793  0.92155546544654 -0.17656675947595
 6  3.75753516121612  0.79364971537154 -0.18902637163716
 6  1.33529547034703  1.19452117981798 -0.15835821672167
 6  2.41527942844284  0.29850915061506  0.04495785368537
 6  2.16257611931193 -1.10600478077808  0.48156675027503
 1 -12.99328112891289 -2.67439041684168 -1.34907013101310
 1 -13.81183640734073 -1.04565855005501 -1.67248370307031
 1 -13.72843064526453 -0.51552448364836  2.24189687238724
 1 -14.13565295889589  0.26325145224522  0.74182184778478
 1 -14.31380868496850 -2.03193190659066  0.53355495979598
 1 -10.57982659955996 -2.79798658145815 -2.24418971437144
 1 -11.66850705960596 -1.54583937533753 -3.24458274447445
 1 -10.08046022952295 -0.91059026762676 -2.65230684318432
 1 -9.28526718151815  1.23893602460246 -0.57805161526153
 1 -10.18474980258026  0.04317558165817  2.26542228502850
 1 -11.60601596249625  0.16908360996100  3.20525887598760
 1 -11.12118281198120 -1.35035191169117  2.47259804950495
 1 -12.33736627912791  2.08501462346235  0.23037625362536
 1 -12.75937217661766  2.02065764126413  2.03425713751375
 1 -10.86871715381538  2.10028061856186  1.50139443294329
 1 -11.67942101460146 -2.90225309890989  0.79335381428143
 1 -9.09098994089409 -1.70840919861986  0.25296439533953
 1 -5.66571601770177 -2.04651797689769 -0.23223126752675
 1 -5.83676609190919 -1.45805103770377  1.59415781198120
 1 -6.93767387798780 -2.75181745474547  0.65857200800080
 1 -7.32876418751875  1.64282261136114 -0.28673835033503
 1 -4.71631827652765  0.21356997539754  0.30249647394739
 1  13.64338001510151 -0.91968365576558  2.39335427602760
 1  12.19916509350935 -1.88413779377938  2.19284528422842
 1  13.70619297619762 -2.78944060906091  0.70485741164116
 1  12.81017845634563 -2.48463494199420 -1.63867696239624
 1  11.63638364656466 -2.78677780168017 -0.42870821292129
 1  11.54554416261626  0.30590095679568  3.37569260796080
 1  10.73048002570257  1.45146070917092  2.52072959715972
 1  10.29959758095810 -0.45799411391139  2.36490273147315
 1  13.66507340924092  1.09348797299730  0.34972903770377
 1  12.50869348254825  2.17174661246125  1.04023872957296
 1  13.62487832493249  1.44542902200220  2.10022650425042
 1  12.87257807730773 -0.51503811341134 -2.78434088598860
 1  11.95055212361236  0.87076916781678 -2.48396633153315
 1  13.50750158275827  0.40236628952895 -1.70865635103510
 1 -5.49669189308931  3.07732211901190 -0.63772518331833
 1  9.95833708430843 -0.61571022862286 -2.00412274807481
 1  15.02326517171717 -0.81515132953295  0.56956555585559
 1  8.45637748854886  1.87395972317232 -0.93296057325733
 1 -2.28093317751775  4.47632408210821 -0.24314848514852
 1 -2.53956272057206  3.97958518331833 -2.03179628872887
 1 -3.81967835293529  4.64314249604960 -1.00965076657666
 1 -2.70415003510351  0.70509272127213  0.18333537893789
 1  6.59360211011101 -1.89927949004900  0.33458594329433
 1  8.48777399189919 -1.92523724852485 -0.11508228232823
 1  8.11917183878388 -1.59741206960696  1.41490525142514
 1  6.25680082718272  1.66599040444044 -0.50030204990499
 1 -0.48851020802080  2.86996103960396 -0.83396330783078
 1  4.87765375177518 -0.87433393009301  0.59948262936294
 1 -0.56443536673667 -0.07938975187519  0.12090470157016
 1  3.82523169106911  1.82402803900390 -0.56489871487149
 1  1.61149802500250  2.31875766766677 -0.64792749114912
 1  1.14541337613761 -1.40904750895089  0.67367636323632
 1  2.36603792859286 -1.74227052855286 -0.48750652065207
 1  2.78091478787879 -1.36141037003700  1.40653393999400

