%nproc=3
%Mem=2GB
# td=(NStates=1) CAM-B3LYP/6-31G(d,p) 

TD

0 1
<<<<<<< HEAD
 8 -11.60258692629263  0.24396504490449 -1.56689385298530
 8 -12.92683351915191 -2.35258356635664  1.29024470947095
 8  10.55163068296830 -1.08200808870887 -2.10689441574157
 8  14.47419078577858 -1.07010573207321 -0.23006749414941
 6 -10.94188235543554 -0.26919087378738 -0.33563298769877
 6 -11.66433272297230 -1.17318849874988 -1.22077091739174
 6 -11.68867091009101  0.36009269206921  0.89858951395140
 6 -13.08474367806781 -1.67696785468547 -0.99819145314531
 6 -13.20409886788679 -0.02226967456746  0.82703739163916
 6 -13.57923435693569 -1.40557209500950  0.39072784008401
 6 -10.77441303000300 -2.09305472297230 -2.15925824412441
 6 -9.56426587038704  0.00799793359336 -0.39723668176818
 6 -10.99262523992399 -0.03608920492049  2.23382844994499
 6 -11.59710009030903  1.93752885598560  0.82601069276928
 6 -8.56960038173817 -0.84226226742674 -0.00985224622462
 6 -7.23265125472547 -0.73139498559856  0.18204590489049
 6 -6.23510752565257 -1.84223291209121  0.41888412471247
 6 -6.57831349304930  0.58301913181318 -0.01319987518752
 6 -5.18144808640864  0.83980601730173 -0.10223455365537
 6  11.86046529342934  0.08891892139214  1.28474800290029
 6  11.56726401650165 -0.70782693789379 -1.23953783348335
 6  12.67736496459646 -1.21918614831483  1.48067280068007
 6  13.36542122882288 -1.83892842624262  0.18606257065707
 6  12.36961189588959 -1.91610611961196 -0.94274823732373
 6  11.05595248314831 -0.07984323642364  0.05477265756576
 6  10.92966437133713  0.23745038703870  2.45668800900090
 6  12.76473959065907  1.30597381818182  1.23079613061306
 6  12.46834314051405  0.37584645794579 -2.05947989578958
 6 -4.78477497319732  2.11080358635864 -0.30381523042304
 6  9.86669785728573  0.42812361516152 -0.05777695439544
 6 -3.40402556095610  2.44464321802180 -0.30632089278928
 6  8.62406219221922  0.90170650445045 -0.17788212821282
 6 -3.06336802190219  3.87430889038904 -0.60624035613561
 6 -2.32605952105211  1.63157500620062 -0.14994752945295
 6  7.41545108760876  0.17048763676368  0.07114793069307
 6  7.61675641214121 -1.29426637873787  0.36282620552055
 6  6.20332168016802  0.73650058035804 -0.02917685368537
 6 -1.02783691519152  2.03950307400740 -0.19089726482648
 6  4.99998160096010  0.09545866196620  0.10262163096310
 6 -0.01451497249725  1.14463777367737  0.00682157935794
 6  3.83118252595260  0.84122447284728 -0.07647511651165
 6  1.40702264306431  1.37277900560056 -0.18490087098710
 6  2.48953685418542  0.45372467216722  0.08438179607961
 6  2.22064192589259 -1.04847902820282  0.40067866146615
 1 -13.25219702050205 -2.70228320612061 -1.14920014401440
 1 -13.82525774947495 -1.28012199639964 -1.59205566026603
 1 -13.41291909410941  0.21182825162516  1.96582926562656
 1 -13.78107750135013  0.70807593469347  0.22503016861686
 1 -14.70906821092109 -1.49393810721072  0.59440104440444
 1 -10.50931954885488 -2.97724450725073 -1.65590088548855
 1 -11.40396060496050 -2.20074486588659 -3.14804309050905
 1 -9.85774795829583 -1.55192440104010 -2.15014662716272
 1 -9.48127678247825  0.92372450345034 -0.67231104120412
 1 -9.83348467606761  0.00851211531153  2.19477522032203
 1 -11.52581794269427  0.33870057165717  3.02066041614161
 1 -11.16645733943394 -1.14724160066007  2.41881267096710
 1 -12.13797634013401  2.33351947394739 -0.10156694069407
 1 -11.91470771017102  2.49711528702870  1.72018573037304
 1 -10.43746402850285  2.36657724822482  0.61689598309831
 1 -12.00970404290429 -2.26264913851385  1.29662414131413
 1 -9.02737357925793 -1.90797915561556  0.27136623552355
 1 -5.62794224032403 -2.09436276137614 -0.45464350875088
 1 -5.38565098039804 -1.70703593619362  1.12418081428143
 1 -6.76190630123012 -2.80881315431543  0.72530868166817
 1 -7.23576488758876  1.43949227832783 -0.55286496299630
 1 -4.44011065576558  0.16605522392239  0.35707193149315
 1  13.43579925702570 -0.97698938633863  2.45359029962996
 1  11.90262543954396 -1.81273065306531  1.72251825152515
 1  13.62446480338034 -2.89850151515151  0.57908483438344
 1  12.86846428492849 -2.28723520202020 -1.92699579427943
 1  11.68383839203920 -2.67548667256726 -0.95080042214221
 1  11.68721833003301  0.15973634033403  3.45058009670967
 1  10.29859683738374  1.32801836493649  2.32906043024302
 1  10.19341696289629 -0.53302161666167  2.48780502170217
 1  13.65797269916992  1.08819744394439  0.54152821762176
 1  12.25146775997600  2.31397083488349  0.83175788148815
 1  13.30222605970597  1.28885336443644  2.21882836443644
 1  12.81392221172117  0.01883527392739 -3.15927837973797
 1  11.82305937433743  1.29465155605561 -2.35676361126113
 1  13.42223305590559  0.73916996989699 -1.52742822822282
 1 -5.71298352225222  2.75883026982698 -0.59667107790779
 1  10.02472372297230 -0.39442810041004 -2.22647498329833
 1  14.94296714191419 -0.61766158055806  0.68838743804380
 1  8.62181403220322  2.05088741594159 -0.27295457265727
 1 -2.99772485668567  4.50796724642464  0.41556738643864
 1 -2.39706847114711  4.11829905470547 -1.46816992609261
 1 -4.13554994009401  4.36100428222822 -0.84925472697270
 1 -2.42175179527953  0.65163737573757  0.15046209160916
 1  6.64986773667367 -1.84282384448445  0.44210669536954
 1  8.20316553105311 -1.78466319111911 -0.45237601170117
 1  8.11715163676368 -1.55650797919792  1.24521828272827
 1  6.11539668676868  1.85125893129313 -0.27810983068307
 1 -0.66282763976398  3.02938698219822 -0.61556146764677
 1  5.12618860526053 -0.90993749044904  0.41593427452745
 1 -0.36015493869387  0.10933912101210  0.16987959905991
 1  4.00294946284628  1.71610724692469 -0.38379060406041
 1  1.64641151635163  2.34063985588559 -0.33983668206821
 1  1.04926376117612 -1.37877448164816  0.50606960256026
 1  2.59279060386039 -1.60898720022002 -0.50244801480148
 1  2.86544324072407 -1.23606783578358  1.21837512411241
=======
>>>>>>> 6a1b998aacd80a23911c140f266e48a14f2d523d

