%nproc=3
%Mem=2GB
# td=(NStates=1) CAM-B3LYP/6-31G(d,p) 

TD

0 1
<<<<<<< HEAD
 8 -11.66864353195320  0.27896854525453 -1.43091025462546
 8 -12.90602143794379 -2.55531383938394  1.14954063906391
 8  10.57830335023502 -1.10576046394639 -2.06246997329733
 8  14.45658902560256 -1.16313503500350 -0.06970145754575
 6 -10.95977414461446 -0.15318927362736 -0.31878130253025
 6 -11.60147643734373 -1.13049422932293 -1.31887072737274
 6 -11.86292833583358  0.22619930273027  0.99046870187019
 6 -12.98604380808081 -1.75463562146215 -1.12815444944494
 6 -13.35405386338634 -0.20595804340434  0.94208889678968
 6 -13.50172660616062 -1.61313285108511  0.29704847214721
 6 -10.67448303700370 -1.85041045854585 -2.20701301960196
 6 -9.53890333413341  0.11709884368437 -0.23348030613061
 6 -11.15602157955795 -0.17929352535254  2.27226229332933
 6 -11.83760414071407  1.79226432953295  0.97574566626663
 6 -8.59958338003800 -0.79546758795880  0.11011975097510
 6 -7.15184317391739 -0.59253109920992  0.25308300860086
 6 -6.34587860276028 -1.85235392419242  0.58722095839584
 6 -6.60469613131313  0.68266909680968 -0.00563911911191
 6 -5.12945288688869  1.01356339303930 -0.06453078327833
 6  11.93299254615462  0.06529655915592  1.24306383448345
 6  11.59184647474748 -0.71398755395540 -1.27256113581358
 6  12.56852408050805 -1.32114634433443  1.44253898729873
 6  13.27174186088609 -1.90595512891289  0.34132809720972
 6  12.32975791049105 -2.07992250125013 -0.80804476697670
 6  11.14449133703370  0.06857160506051 -0.05034785448545
 6  11.00392179707971  0.42078872087209  2.47873021322132
 6  12.86629974667467  1.26585980678068  1.33072612361236
 6  12.59680598679868  0.11863073637364 -2.16537048484848
 6 -4.70549704540454  2.28811131713171 -0.30596544544454
 6  9.91422260976098  0.50755155795580 -0.17085826252625
 6 -3.41494665306531  2.68114686838684 -0.38849911061106
 6  8.68373815981598  0.96039237303730 -0.22819715971597
 6 -3.08548023312331  4.06364782428243 -0.79167889999000
 6 -2.40551746684668  1.75239708840884 -0.09667220192019
 6  7.44687422992299  0.17675826382638 -0.08727791189119
 6  7.65259999649965 -1.31485843794379  0.35454537743774
 6  6.25284663266327  0.82601953225323 -0.22121605760576
 6 -1.02182631413141  2.04376350005001 -0.23091126622662
 6  4.94532613541354  0.14143325942594  0.08448981778178
 6 -0.04091761276128  1.05603891379138 -0.08788789158916
 6  3.81104051175118  0.89248959935994 -0.11691916091609
 6  1.45530747154715  1.25639736743674 -0.26537891879188
 6  2.49702760326033  0.37881718141814  0.01574493239324
 6  2.34866472817282 -1.03149733003300  0.47040563416342
 1 -13.20116191699170 -2.77700067786779 -1.25777100110011
 1 -13.58945416911691 -1.39815379957996 -1.77085354005401
 1 -13.84517231943194 -0.66376930813081  1.95450813351335
 1 -13.93408280188019  0.75140026712671  0.56951461706171
 1 -14.56705400950095 -1.73466217961796  0.45921752605261
 1 -10.66008462536254 -3.04845162796280 -1.81022631803180
 1 -11.20911112001200 -1.79023381478148 -3.31130941714171
 1 -9.69629181268127 -1.40233944254425 -2.35069668216822
 1 -9.19984863966397  1.04092622362236 -0.62971678177818
 1 -10.10077140474047  0.21085234933493  2.06659240204020
 1 -11.68394375527553  0.11359806140614  3.02296064616462
 1 -11.07382807650765 -1.28931580808081  2.36526731643164
 1 -12.11767430993099  2.23954007600760 -0.05481226522652
 1 -12.73906014541454  2.05104067956796  1.78698241004100
 1 -10.79809009110911  2.17252784328433  1.34307860136014
 1 -11.95096816931693 -2.98071094469447  0.67821230013001
 1 -9.02858370027003 -1.68142650035003  0.66632573147315
 1 -5.58008745484548 -2.18716204130413 -0.13696174057406
 1 -5.83960637593759 -1.65748098069807  1.42677107330733
 1 -6.85071518211821 -2.73335560856086  0.90159631043104
 1 -7.30607191829183  1.48847717681768 -0.00416009250925
 1 -4.43586023072307  0.32476109450945 -0.16814058975898
 1  13.22664834193419 -1.27275896329633  2.25666060666067
 1  11.67791296829683 -1.89262864286429  1.82656865656566
 1  13.76071842874287 -2.77197886288629  0.63671059695970
 1  12.91650908940894 -2.37595407390739 -1.77297039173917
 1  11.70041004920492 -2.73299242314231 -0.55110045214521
 1  11.43680328852885  0.59187955465547  3.42628766746675
 1  10.55796277397740  1.43845940904090  2.43424094829483
 1  10.32147976917692 -0.28349666416642  2.55419166036604
 1  13.53090999289929  1.37466609080908  0.26048011281128
 1  12.11006361956196  2.20018945674568  1.23107781348135
 1  13.49426526362636  1.26520099919992  2.23279976157616
 1  12.79941076057606 -0.25668227782778 -3.14203665556556
 1  12.14184125252525  1.21394348524853 -2.63032096699670
 1  13.47035786838684  0.43258931183118 -1.53778926432643
 1 -5.39912213611361  2.98059244604460 -0.79753116391639
 1  10.03620487108711 -0.28710736833683 -2.34034637043704
 1  14.95818866406641 -1.18968878327833  0.63942254155416
 1  8.53772562336234  2.03399572677268 -0.51764904210421
 1 -2.45620070427043  4.67118356805681  0.07615344504450
 1 -2.34035279957996  4.07731495629563 -1.65741885098510
 1 -3.86033241834183  4.72864104590459 -1.15639544104410
 1 -2.70527014711471  0.97228944094409  0.17686473187319
 1  6.53250600050005 -1.92797235933593  0.49841232593259
 1  8.22419763426343 -1.81532625742574 -0.35892666676668
 1  8.27858778037804 -1.51873420182018  1.43419718061806
 1  6.13315846294629  1.81269507490749 -0.55579759945995
 1 -0.70865222222222  3.10863490699070 -0.37837774927493
 1  4.80191617801780 -0.91067756445645  0.64094677577758
 1 -0.21096001920192 -0.05661747464746  0.40404301540154
 1  3.96301546944695  1.94268990519052 -0.30602282728273
 1  1.63548042324232  2.32387817971797 -0.62217491589159
 1  1.39392822762276 -1.50210681488149  0.37264626022602
 1  3.08593991879188 -1.73526982848285 -0.23665143514351
 1  2.62064876127613 -0.88429265826583  1.54724801140114
=======
>>>>>>> 6a1b998aacd80a23911c140f266e48a14f2d523d

