%nproc=3
%Mem=2GB
# td=(NStates=1) CAM-B3LYP/6-31G(d,p) 

TD

0 1
<<<<<<< HEAD
 8 -11.65886255385539  0.23308395679568 -1.45925308890889
 8 -13.21106194199420 -2.55669397739774  1.26789247424742
 8  10.46821234113411 -1.10686057395740 -2.02115584188419
 8  14.47583094979498 -1.09310803230323 -0.09334382178218
 6 -11.05354352155216 -0.20093404810481 -0.21791121552155
 6 -11.54592088178818 -1.12676385628563 -1.20161900220022
 6 -11.82364440744074  0.24129081188119  0.99635929092909
 6 -12.85963116681668 -1.82805296319632 -0.96250788478848
 6 -13.31897035503550 -0.12379982758276  0.88852354025403
 6 -13.64329076257626 -1.59026056385639  0.30875964326433
 6 -10.59770535923592 -1.80961637913791 -2.24551686998700
 6 -9.59526897069707  0.20544767856786 -0.26241319941994
 6 -11.22476845424542 -0.40263585958596  2.29989505660566
 6 -11.74365474577458  1.85378048114811  1.19636772847285
 6 -8.64923834553455 -0.66148418961896  0.27665640464046
 6 -7.16441443104311 -0.48450029612961  0.20653835413541
 6 -6.33338735363536 -1.65279396819682  0.74514675097510
 6 -6.68265392709271  0.71569239913991 -0.18200675587559
 6 -5.25244518611861  0.95209724642464 -0.19111344154415
 6  11.99996924382438  0.06053608310831  1.38754828292829
 6  11.57073436353635 -0.74002015721572 -1.29013289298930
 6  12.66895412351235 -1.33602783248325  1.57084181758176
 6  13.40594528122812 -1.84555908930893  0.29252321672167
 6  12.46041097579758 -1.97389189818982 -0.94123808630863
 6  11.18221510941094  0.00031477937794  0.09455663596360
 6  10.99006041094109  0.23412005400540  2.58029036923692
 6  12.93876699339934  1.24072729352935  1.37834088508851
 6  12.40398670487049  0.24730360366037 -2.03058700650065
 6 -4.69346584228423  2.17522002800280 -0.41782663156316
 6  9.91305249274928  0.54575537833783 -0.06679785648565
 6 -3.38398355675568  2.55684443814381 -0.46761702240224
 6  8.68372815881588  0.96715304910491 -0.15948028802880
 6 -3.02520420552055  4.02901436093609 -0.61856158825883
 6 -2.33110002510251  1.58157000570057 -0.38163069776978
 6  7.50749029152915  0.21420200820082 -0.03069225332533
 6  7.56718145464546 -1.22726967906791  0.50734065696570
 6  6.25023637163716  0.91270820112011 -0.19622355835584
 6 -0.95058919041904  1.87866699039904 -0.49233740884088
 6  4.99843144594459  0.23539265536554 -0.06310494169417
 6  0.04132061106111  0.97256056595660 -0.27489659245925
 6  3.75648505620562  0.92179252965297 -0.30828829782978
 6  1.39021096189619  1.26702843054305 -0.28048042894289
 6  2.55486338683868  0.37889718941894 -0.14800144224422
 6  2.31963182488249 -1.16468064836484  0.06060465406541
 1 -12.53791559235924 -2.73082606040604 -1.05198042204220
 1 -13.47000222392239 -1.40978496269627 -1.78295475017502
 1 -13.83921172337234 -0.24401733293329  2.00817350005001
 1 -13.89706910051005  0.55601072817282  0.27716538213821
 1 -14.66605390949095 -1.89533824722472  0.14061566586659
 1 -10.36606522342234 -2.72878966176618 -1.86058135353535
 1 -11.14943515241524 -1.97217200860086 -3.14821310751075
 1 -9.73520570407041 -1.08632784138414 -2.61584319681968
 1 -9.38685734053405  1.06363849484948 -0.88144195429543
 1 -10.22950427802780  0.06812807690769  2.50666640944094
 1 -11.88438379927993 -0.22162546094610  3.11502985308531
 1 -10.96395708940894 -1.56238311481148  2.36217700740074
 1 -11.83403594609461  2.24988111011101  0.26253946994699
 1 -12.43755999539954  2.45066064156416  1.84007771957196
 1 -10.73195347744775  2.10286087658766  1.46702099559956
 1 -12.32669574207421 -2.79345221882188  1.05425990489049
 1 -9.01560240214021 -1.55289364706471  0.80883998289829
 1 -5.65950539663966 -1.97999132423242 -0.12249029342934
 1 -5.80995341064106 -1.16839207180718  1.55632402860286
 1 -7.03275338593859 -2.28399067206721  1.21474762556256
 1 -7.41815312641264  1.50594892399240 -0.22098177467747
 1 -4.74323096779678 -0.08567994959496 -0.24425820152015
 1  13.34777045414541 -1.43516520392039  2.29519446004600
 1  11.78245342234223 -1.96461584158416  1.83897989768977
 1  13.68376073297330 -2.88445011001100  0.46391331723172
 1  13.02994043254325 -2.26387286578658 -1.73836693139314
 1  11.80965097329733 -2.64696382028203 -0.42682802490249
 1  11.76204581278128  0.15634600130013  3.26490152885289
 1  10.60097707540754  1.28339390249025  2.42100962516252
 1  10.31540916211621 -0.50977929242924  2.48080432163216
 1  13.88857575947595  1.19278790299030  0.68056212101210
 1  12.29924253745375  2.09390882868287  1.22024673037304
 1  13.25652148924892  1.25280976007601  2.35440192179218
 1  12.98477929742974 -0.23230984058406 -2.88678113001300
 1  11.79625669406941  0.96439853075308 -2.39034696959696
 1  13.28182901550155  0.64342039493949 -1.42940842624262
 1 -5.23379560346035  3.11228561536154 -0.55962737353735
 1  9.79954120472047 -0.42958161576158 -1.98558089388939
 1  15.43858670387039 -1.62498231263126  0.45876447574758
 1  8.65440729152915  2.02813514071407 -0.31846912411241
 1 -2.85577066126613  4.69886633633363  0.44322015171517
 1 -2.16896566086609  4.41000822562256 -1.20051316041604
 1 -3.99918630373037  4.43522170397040 -1.25113491499150
 1 -2.61955157525753  0.72466467846785 -0.02187514211421
 1  6.54007675757576 -1.73090265236524  0.79787227192719
 1  8.21845706020602 -1.90403512831283 -0.15853662776278
 1  8.05453537513751 -1.17387971637164  1.60091385228523
 1  6.43323847094709  1.96287009240924 -0.44431645134513
 1 -0.60261161816182  2.87552159565957 -0.89137904940494
 1  5.06176216261626 -0.89011550825083  0.24347702880288
 1 -0.60281920512051  0.08048623572357  0.14259687078708
 1  3.73500266816682  1.97002263846385 -0.48235046004600
 1  1.71077795299530  2.27006279817982 -0.44319701810181
 1  1.40202903770377 -1.36432303650365 -0.01973297769777
 1  2.78841016581658 -1.74654095559556 -0.66261403140314
 1  2.52787948434843 -1.33334756375638  1.11889517611761
=======
>>>>>>> 6a1b998aacd80a23911c140f266e48a14f2d523d

