%nproc=3
%Mem=2GB
# td=(NStates=1) CAM-B3LYP/6-31G(d,p) 

TD

0 1
 8 -11.80577724532453  0.22329297769777 -1.55872303590359
 8 -12.78376921272127 -2.42264057205721  1.40091577657766
 8  10.59922544244425 -1.12080196809681 -2.05188891519152
 8  14.41852521922192 -0.85720444194419 -0.02930741814181
 6 -11.05807397459746 -0.20935489018902 -0.40700012441244
 6 -11.75358164786479 -1.20104128402840 -1.23171201150115
 6 -11.67924996799680  0.46415309810981  0.94330398539854
 6 -13.01124632833283 -1.71812197009701 -0.87606924092409
 6 -13.15772423042304 -0.05641308890889  1.09582427032703
 6 -13.37766419991999 -1.39033057085709  0.54853362066207
 6 -11.02036762546255 -2.06849226672667 -2.24899721802180
 6 -9.55707515131513  0.03489062286229 -0.55262222032203
 6 -10.90847682508251 -0.15197079307931  2.12773784088409
 6 -11.75764614491449  1.97510261336134  0.91316940864086
 6 -8.63239666136614 -0.78860690189019  0.01852059105911
 6 -7.20826881648165 -0.64973681978198  0.15127282758276
 6 -6.39470348524852 -1.83632232103210  0.48659089538954
 6 -6.63887954965497  0.64665549544955 -0.05507406260626
 6 -5.25663560516052  0.86170820752075 -0.11658598879888
 6  11.88193744064406 -0.06743671417142  1.35264479257926
 6  11.67533482358236 -0.63005916111611 -1.23232711241124
 6  12.68013524162416 -1.31850608030803  1.53673840724072
 6  13.42950763746375 -1.83976851025102  0.22805677007701
 6  12.47300223492349 -1.90375488448845 -0.98613257575758
 6  11.12668955685569 -0.18707395949595  0.08127530783078
 6  11.00475188008801  0.26514315631563  2.62395473567357
 6  12.92278539523952  1.18661188198820  1.22910596159616
 6  12.53272957915792  0.35959483278328 -2.03628757655766
 6 -4.77229372507251  2.17620012601260 -0.22444729362936
 6  9.88701988948895  0.34054485728573  0.13897272057206
 6 -3.46467162556256  2.51194994869487 -0.42138239893989
 6  8.69572935893589  0.91269760356036 -0.06725106510651
 6 -3.13489517461746  3.95959741924192 -0.43303303540354
 6 -2.36093300840084  1.69216106480648 -0.27603013771377
 6  7.39948949144915  0.22780336833683 -0.06720590469047
 6  7.53226796329633 -1.28553550565057  0.23618354125413
 6  6.21104245224522  0.87257418771877 -0.17379131513151
 6 -0.97655178667867  1.92904202790279 -0.52596077117712
 6  4.99852145494549  0.24775389148915  0.07367873667367
 6  0.06996347534753  1.06615992589259 -0.16176527932793
 6  3.77621702940294  0.87680803120312 -0.21288875787579
 6  1.44658659945995  1.25428715641564 -0.26208858975898
 6  2.50879878037804  0.42354165386539 -0.04322096419642
 6  2.19551941364136 -1.09346352665267  0.18807740134013
 1 -13.03024482528253 -2.81003398119812 -0.82544776877688
 1 -13.68792401610161 -1.14374835903590 -1.51663811851185
 1 -13.48571637383738  0.11736880568057  2.11318400110011
 1 -13.79019841344134  0.76013114021402  0.49468713431343
 1 -14.44271157525752 -1.63303201660166  0.44478608290829
 1 -10.94115273217322 -3.21894867766777 -1.78144343974397
 1 -11.67297750665067 -2.18774356575658 -3.26196448264827
 1 -9.95560774427443 -1.96531574017402 -2.43113472597260
 1 -9.29387804260426  0.95773790479048 -0.81283509360936
 1 -9.70234156175618  0.15082634673467  2.38004374717472
 1 -11.43702906380638  0.14883158475848  3.21163951405140
 1 -11.04675536923692 -1.16583345984598  2.24086487618762
 1 -11.87446998949895  2.23370949294930 -0.27345412941294
 1 -12.75896213561356  2.32878845434543  1.34599831163116
 1 -10.83935421752175  2.39728031853185  1.36813110661066
 1 -12.01827489999000 -2.88763163676368  1.06709118801880
 1 -9.23307414931493 -1.65496385408541  0.38103720262026
 1 -6.05312475857586 -2.31800512561256 -0.54611265566557
 1 -5.44550696599660 -1.40716594919492  1.01410980718072
 1 -6.91640175077508 -2.71583385638564  0.98024417521752
 1 -7.28616992809281  1.51328965806581 -0.32531220772077
 1 -4.45610225492549  0.05320393879388 -0.09367314301430
 1  13.47128280538054 -1.25613730113011  2.28765370597060
 1  12.09301447844785 -2.10591997199720  1.88766476617662
 1  14.01234359125912 -2.61367303230323  0.45746267216722
 1  13.05441287978798 -2.27630410891089 -1.83716681138114
 1  11.84644465266527 -2.74085320922092 -0.74157950005000
 1  11.60010961916192  0.31017138383838  3.62928796749675
 1  10.46673365106511  1.24655021812181  2.48274579877988
 1  10.33066068726873 -0.59999831433143  2.95502174337434
 1  13.48960586248625  0.94893351755176  0.45921998679868
 1  12.34541715491549  2.10238967676768  1.01645635133513
 1  13.40326616371637  1.46063054215422  2.20641712331233
 1  12.43171399089909  0.02641603200320 -3.05552800470047
 1  11.81155822422242  1.37012910381038 -2.02611054595459
 1  13.51509234183418  0.23654970787079 -1.61240672607261
 1 -5.61958418231823  2.94859924672467 -0.36620803160316
 1  9.92684393499350 -0.31589024662466 -2.36117845364536
 1  15.07058990419042 -0.88915873027303  0.76141474077408
 1  8.84441629242924  2.02959528672867 -0.20756803400340
 1 -2.35170025422542  4.02742919261926  0.33557938763876
 1 -2.48894765906591  4.03641086588659 -1.27567067616762
 1 -4.03021940704070  4.78267644944494 -0.28728853035304
 1 -2.75594521462146  0.59022123412341 -0.03560651525153
 1  6.73815656555656 -1.93609317141714  0.06805929062906
 1  8.40801601610161 -1.60990571537154 -0.28536931103110
 1  7.69830975257526 -1.47391972037204  1.33166692759276
 1  6.27327247434743  1.93103690909091 -0.54864688438844
 1 -0.58232958995900  2.82625666916692 -1.03607351885189
 1  4.82303829022902 -0.78443494019402  0.20475315641564
 1 -0.31985090829083  0.03015120222022  0.07168978007801
 1  3.82104127202720  1.99037467366737 -0.57269949494949
 1  1.91588846404640  2.37007279917992 -0.58386108450845
 1  1.23359219401940 -1.28893549774977  0.29555855145515
 1  2.75280660546055 -1.67117341884188 -0.49832760276028
 1  2.51584828122812 -1.60267449644964  1.19292257885789

