%nproc=3
%Mem=2GB
# td=(NStates=1) CAM-B3LYP/6-31G(d,p) 

TD

0 1
<<<<<<< HEAD
 8 -11.82608927652765  0.25988663706371 -1.43665082868287
 8 -12.75258609440944 -2.47084539253925  1.50608629362936
 8  10.75175069496950 -1.19228911681168 -2.10067379367937
 8  14.59531289798980 -1.01683040454045 -0.16688117551755
 6 -11.15415358255825 -0.15202915761576 -0.34540396479648
 6 -11.69784607430743 -1.13345452535254 -1.24168300860086
 6 -11.81984402740274  0.33016969976998  0.93781343634363
 6 -13.03193839753975 -1.87584774267427 -0.77642927692769
 6 -13.26355481348135 -0.06887433503350  0.91383607150715
 6 -13.49381581508151 -1.50183172097210  0.61698046534653
 6 -10.88472406110611 -1.91274669216922 -2.15585790409041
 6 -9.64464390819082  0.09547668146815 -0.41859881798180
 6 -11.11599757715772 -0.03260885688569  2.21077614471447
 6 -11.81550193049305  1.95003010611061  0.86447453915392
 6 -8.71859528122812 -0.79110715191519  0.02754149314931
 6 -7.31326931653165 -0.60439228532853  0.04527222752275
 6 -6.45571958685869 -1.92590127892789  0.35346758305831
 6 -6.75208086978698  0.60536136603660 -0.27728628382838
 6 -5.32855279687969  0.92829486618662 -0.16282061226123
 6  12.04292353925393  0.04190421992199  1.45031455955596
 6  11.74338162826283 -0.65788194339434 -1.19198307800780
 6  12.87843507160716 -1.28578280798080  1.60775550895090
 6  13.56444113081308 -1.78806333973397  0.26187015141514
 6  12.47282221692169 -1.93717822682268 -0.86896085858586
 6  11.15084197209721 -0.07097234933493  0.17798497879788
 6  11.08810021492149  0.21814845684568  2.66207854805481
 6  12.96729984668467  1.32175539633963  1.30430348134813
 6  12.61429773597360  0.41299017231723 -1.95518946674667
 6 -4.83148964466447  2.19973247924792 -0.34991984088409
 6  9.86293748124812  0.37531833463346 -0.00231140784078
 6 -3.43337849624963  2.60761951565157 -0.37978823952395
 6  8.68129791579158  0.86258259205921 -0.17655199519952
 6 -3.15935762086209  4.08506996649665 -0.49077880998100
 6 -2.42498941404140  1.67877972667267 -0.27750028472847
 6  7.42257179967997  0.06554714271427  0.02288310421042
 6  7.64616935343534 -1.35182213431343  0.09444936783678
 6  6.23307465546555  0.76825375567557 -0.04020795679568
 6 -0.91012514401440  1.88808793249325 -0.22802097719772
 6  4.92094369716972  0.25642475857586 -0.00793942514251
 6 -0.00352387338734  0.91008431833183 -0.19113821662166
 6  3.79271867956796  0.87327767816782 -0.26025349434944
 6  1.36055799659966  1.32591431913191 -0.14262664356436
 6  2.39272717321732  0.44450375007501 -0.21063770587059
 6  2.21125098679868 -1.02777695799580  0.00231882548255
 1 -12.71423322412241 -2.92356533433343 -1.10840606460646
 1 -13.84700992469247 -1.49996398059806 -1.63250970567057
 1 -13.57828563076308  0.11556862566257  2.04425710841084
 1 -13.88598799239924  0.70730585768577  0.36976464206421
 1 -14.52484978907891 -1.78862757615762  0.60438204250425
 1 -10.25422403930393 -2.72904968776878 -1.55826112151215
 1 -11.44684489338934 -2.45937072847285 -2.95567385358536
 1 -10.10907309080908 -1.20473968256826 -2.63347495999600
 1 -9.46950560536054  1.12616474747475 -0.78384219431943
 1 -10.08388971657166  0.24762602670267  2.07763350615061
 1 -11.58968432933293  0.76103280488049  2.91611996209621
 1 -11.32544323802380 -1.03273014951495  2.45472626232623
 1 -12.11515405790579  2.34277039903990 -0.26313309730973
 1 -12.49117535693569  2.41624720022002  1.51718543034303
 1 -10.72928321042104  2.22658324882488  1.21625591909191
 1 -11.81527459996000 -2.56126900050005  1.09750422932293
 1 -8.80151099299930 -1.76162452015202  0.22987208610861
 1 -5.93049249534953 -2.21662498759876 -0.44389243364336
 1 -5.62127454275428 -1.85644087668767  1.05029342554255
 1 -7.19028913951395 -2.67622989598960  0.66545269606961
 1 -7.40591190229023  1.46148447754776 -0.47221689818982
 1 -4.53683032773277  0.01472009040904  0.07535375967597
 1  13.57035271237124 -1.09088077547755  2.34291923252325
 1  12.12926810381038 -1.92470185018502  1.83792979267927
 1  13.94448680558056 -2.75828749374938  0.53282020792079
 1  13.00669810831083 -2.34694117261726 -1.77807090179018
 1  11.69644965316532 -2.63101222512251 -0.59557489958996
 1  11.76019562776278  0.21568193489349  3.58805384408441
 1  10.68974595229523  1.22992855595560  2.80651817601760
 1  10.42307992919292 -0.53945225972597  2.59303554475448
 1  13.78533543544354  1.14068269246925  0.53120718551855
 1  12.55672828602860  2.23168260606061  1.12568727442744
 1  13.43183902100210  1.57917239633963  2.43590007160716
 1  12.89818063756376 -0.10040665026503 -2.98936138803880
 1  11.94817188558856  1.25991808270827 -2.04904283918392
 1  13.36086691929193  0.84971102400240 -1.34699018441844
 1 -5.79973219711971  2.86908129492949 -0.55521693249325
 1  9.91466271687169 -0.53106176377638 -2.03615595139514
 1  15.23344618981898 -1.09922973737374  0.47284588388839
 1  8.62232408320832  1.90253258045805 -0.38028530573057
 1 -2.48478356255626  4.46877332703270  0.27762359205921
 1 -2.64507327162716  4.21856908170817 -1.52377548664866
 1 -4.05925231033103  4.59514769656966 -0.44181398289829
 1 -2.88286790689069  0.69658187018702 -0.05289824442444
 1  6.69943269316932 -2.05672523462346 -0.06628414371437
 1  8.37491270577058 -1.66827155195520 -0.52295306940694
 1  7.93977389898990 -1.42454478287829  1.32293605450545
 1  6.26900204730473  1.92009581498150 -0.47739975967597
 1 -0.44838619561956  2.85831987548755 -0.26490640214021
 1  4.90086607300730 -0.86428292499250 -0.02748006690669
 1 -0.33829275247525 -0.23523533643364 -0.01553894279428
 1  3.89886905480548  2.02570820702070 -0.24752697769777
 1  1.51670854605461  2.47354314621462 -0.15523822222222
 1  1.22072090689069 -1.62274887908791 -0.13284428882888
 1  2.98891021582158 -1.52354865636564 -0.54842261226123
 1  2.48277497389739 -1.35449967896790  1.03068635523552
=======
>>>>>>> 6a1b998aacd80a23911c140f266e48a14f2d523d

