%nproc=3
%Mem=2GB
# td=(NStates=1) CAM-B3LYP/6-31G(d,p) 

TD

0 1
<<<<<<< HEAD
 8 -11.63506017361736  0.20699134753475 -1.57238440204020
 8 -13.24995583138314 -2.26693500150015  1.39389507450745
 8  10.65407092699270 -1.02368225612561 -2.20316404270427
 8  14.55480884758476 -1.11544026552655 -0.10783527092709
 6 -11.01538970617062 -0.16344029872987 -0.38501792619262
 6 -11.59176546624662 -1.15413659355936 -1.26054489478948
 6 -11.69984202720272  0.45483216601660  0.86165582058206
 6 -12.99539474317432 -1.75921607950795 -0.98562019601960
 6 -13.22643110111011  0.09826237863786  0.76096078397840
 6 -13.57450388388839 -1.28670020782078  0.42521128842884
 6 -10.79644523322332 -2.05975139263926 -2.20002232053205
 6 -9.58513795759576  0.09058619241924 -0.34093105120512
 6 -11.14191016841684 -0.11017661366137  2.12618768586859
 6 -11.58360874117412  1.95614071717172  0.81243933563356
 6 -8.68358177987799 -0.76821486268627  0.08494723372337
 6 -7.31207919751975 -0.70905275137514  0.06828452875288
 6 -6.36800081498150 -1.88587727652765  0.36788902520252
 6 -6.66077173887389  0.59548037793779 -0.13962251745175
 6 -5.22894283588359  0.82520455715572 -0.04910924112411
 6  11.94165341224122  0.15888591809181  1.26395592369237
 6  11.68286557665767 -0.55580173537354 -1.42089596929693
 6  12.71960918901890 -1.19749397909791  1.51475620902090
 6  13.33964865156516 -1.79546407980798  0.24054801920192
 6  12.43975891059106 -1.88872338133813 -0.92431639413941
 6  11.15327221512151  0.06771151905191  0.01492867316732
 6  10.90312171707171  0.46531317331733  2.44806714691469
 6  13.00088320502050  1.24272749354935  1.13199625062506
 6  12.54268057425743  0.37242611591159 -2.17918186598660
 6 -4.81357785348535  2.08733123912391 -0.35080992989299
 6  9.91502268976898  0.48680948374837 -0.15815699239924
 6 -3.37206236463646  2.48031678537854 -0.28856911761176
 6  8.60712049804980  0.95799213301330 -0.24063840384038
 6 -3.02402408750875  3.96423788328833 -0.51126085818582
 6 -2.39670658575858  1.45697754645465 -0.08776131083108
 6  7.46742628512851  0.08056864486449  0.00142095799580
 6  7.71464620112011 -1.35466241834183  0.41071099399940
 6  6.24464581258126  0.81066799709971 -0.02425636163616
 6 -1.03735786728673  1.75066419011901 -0.08696687178718
 6  4.95235683848385  0.15629474557456  0.17100846964696
 6  0.03568004700470  0.78499180908091  0.11178207540754
 6  3.80819022672267  0.86987733813381  0.11805433643364
 6  1.37618955975598  1.09183091079108  0.01023864296430
 6  2.48102600310031  0.31648094779478  0.07727108500850
 6  2.30156001770177 -1.13565774607461  0.39478807240724
 1 -13.18408020882088 -3.01518449624963 -0.78103332733273
 1 -13.65669089278928 -1.19149313351335 -1.66602305700570
 1 -13.71456925912591  0.37459452825283  1.71906458915892
 1 -13.54022341594159  0.75757088418842 -0.14380671507151
 1 -14.61223852795279 -1.44259297269727  0.49900150445044
 1 -10.55253387028703 -3.11822860566057 -1.94521981738174
 1 -11.51621183008301 -2.20412520392039 -3.15620390659066
 1 -9.80199238273827 -1.60592980158016 -2.49104071657166
 1 -9.30817947274728  0.99629176017602 -0.94485829592959
 1 -10.11669299689969  0.22173343744374  2.42180792359236
 1 -11.90423578447845 -0.03155645404540  3.00633898399840
 1 -10.89848054175418 -1.25132200870087  2.25792658235824
 1 -11.88829137163716  2.39753587558756 -0.18438522252225
 1 -12.31551779117912  2.19827540304030  1.57206091789179
 1 -10.58364864696470  2.51098168866887  1.08115240874087
 1 -12.30109318181818 -2.62550542414241  1.17232171107111
 1 -9.13990483238324 -1.54502285998600  0.69305840474047
 1 -5.92516196229623 -2.18152147724772 -0.50551859625963
 1 -5.76272868816882 -1.44179941254125  1.33751214741474
 1 -6.88753886448645 -2.79034130713071  0.48712486328633
 1 -7.26620793189319  1.47011534063406 -0.42276195269527
 1 -4.58812545724572 -0.01495287688769  0.36214243854385
 1  13.33096877397740 -1.08133982138214  2.40612555315532
 1  11.92314749174917 -1.85158453845385  1.84631063076308
 1  13.67063942084208 -2.81249291429143  0.48065499139914
 1  13.05476291479148 -2.16237271577158 -2.01483457815782
 1  11.65486549474948 -2.63453257715772 -0.74240958305831
 1  11.58822843104310  0.69707007370737  3.30868590729073
 1  10.45909288698870  1.53659922302230  2.25923344754475
 1  10.25544316551655 -0.57928624312431  2.54464070527053
 1  13.74807170907091  1.01757038123812  0.30339440424042
 1  12.38914152735274  2.05981541934193  1.01663636933693
 1  13.72941877897790  1.27534201330133  2.16470295189519
 1  12.53369418891889 -0.16026263586359 -3.23054550645064
 1  12.02410947934793  1.42966505740574 -2.46887482238224
 1  13.48442927552755  0.69573562646265 -1.75828131353135
 1 -5.48069029292929  2.82555694249425 -0.55270668146815
 1  10.08553980458046 -0.25355401300130 -2.20391272707271
 1  15.01558440364036 -1.02418223262326  0.67860645994599
 1  8.36479833063306  2.03043537073707 -0.48764604180418
 1 -2.50661574577458  4.53091954165417  0.28753458315832
 1 -2.33844260856086  4.18700592539254 -1.39903301240124
 1 -3.86373275837584  4.65248343014301 -0.60492029352935
 1 -2.71874149424943  0.47376958895890  0.11603864926493
 1  6.83908665856586 -1.83623318541854  0.09106159085909
 1  8.39256447094709 -1.72813753855386 -0.32228300240024
 1  8.12473239483948 -1.38261058945895  1.38476223712371
 1  6.39067421452145  1.89801360676068 -0.27589960966097
 1 -0.68685004200420  2.77763180668067 -0.21355126662666
 1  4.91593758015801 -0.77093359005901  0.44262694379438
 1 -0.26014493769377 -0.13731554445445  0.18317092819282
 1  3.73248241614161  1.90971660786079 -0.08036026102610
 1  1.73248012321232  2.07681347324732 -0.06989968836884
 1  1.24869370417042 -1.39818642284228  0.43917291289129
 1  2.52136346114611 -1.79547584908491 -0.55219298929893
 1  2.84583127952795 -1.42658688768877  1.36991027762776
=======
>>>>>>> 6a1b998aacd80a23911c140f266e48a14f2d523d

