%nproc=3
%Mem=2GB
# td=(NStates=1) CAM-B3LYP/6-31G(d,p) 

TD

0 1
 8 -11.63947061466147  0.30083073147315 -1.44183134673467
 8 -12.83881471727173 -2.53859216721672  1.36493217821782
 8  10.53027854775478 -1.03379326722672 -2.13276700300030
 8  14.42317568426843 -1.06393511501150  0.06414192679268
 6 -11.06172433963396 -0.09153310801080 -0.29931935633563
 6 -11.64563085278528 -1.14505568546855 -1.30787962826283
 6 -11.72028407140714  0.40001668446845  0.93521317631763
 6 -12.90794599829983 -1.74660481838184 -0.98660029402940
 6 -13.16778523652365 -0.19139658725873  0.89879456735674
 6 -13.52674910841084 -1.60213175097510  0.44358312561256
 6 -10.78520410911091 -1.88809422692269 -2.31295361366137
 6 -9.53813325712571  0.12154928872887 -0.35668262636264
 6 -11.03130910831083 -0.17357295329533  2.21777684478448
 6 -11.75292567286729  1.89019412251225  0.97034512621262
 6 -8.62068549024903 -0.73821186238624  0.23842258125813
 6 -7.13353134273427 -0.63093493959396  0.17605530583058
 6 -6.39793380828083 -1.72227091589159  0.80316255255526
 6 -6.51457711941194  0.65017584748475 -0.13001155635564
 6 -5.17949789138914  0.89604164086409 -0.04285861606161
 6  11.81605085198520  0.02446247574757  1.34248377647765
 6  11.58810610071007 -0.61283743894389 -1.27231111081108
 6  12.48504573267327 -1.32549677937794  1.48455318871887
 6  13.23215790249025 -1.91402593599360  0.30799476387639
 6  12.44995993069307 -1.89411392039204 -0.92482644514451
 6  11.01043793169317  0.08985373327333  0.00782796309631
 6  10.85462686758676  0.33433007500750  2.52762510271027
 6  12.93014613131313  1.16681990279028  1.30010306130613
 6  12.53303961016102  0.42486135943594 -2.02114606240624
 6 -4.63193968966897  2.15084759075908 -0.31755660456046
 6  9.81413260076008  0.46439724252425 -0.01664284098410
 6 -3.35239039743974  2.56688544224422 -0.43591385208521
 6  8.60671045704570  0.97232356615662 -0.09467380738074
 6 -3.02817450255026  4.02765422492249 -0.77129686178618
 6 -2.30035695079508  1.70720256895690 -0.28310084478448
 6  7.36380592309231  0.13193378137814 -0.06482566666667
 6  7.66160089658966 -1.38986593869387  0.11383130603060
 6  6.19707105510551  0.67083401370137 -0.14335827182718
 6 -0.92611674317432  1.91632075577558 -0.42727090219022
 6  4.99669127192719  0.08093720982098 -0.00395902710271
 6  0.03643012201220  0.98810212011201 -0.21703080588059
 6  3.76508591629163  0.85597594799480 -0.15583305230523
 6  1.41113305410541  1.22521424912491 -0.21822420332033
 6  2.49657755825583  0.34683398309831 -0.04280092219222
 6  2.23331319301930 -1.16776095639564  0.18224681828183
 1 -12.80767256805681 -2.70269324712471 -1.10207543154315
 1 -13.60346557025703 -1.28752273647365 -1.55613206790679
 1 -13.37215501770177 -0.14173710491049  1.89737241994199
 1 -13.89875926952695  0.48865399249925  0.10231789738974
 1 -14.60255755985598 -1.87978669206921  0.61930353465347
 1 -10.35766438333833 -2.78429521232123 -1.93818911431143
 1 -11.27627783668367 -2.08743353475348 -3.25586387258726
 1 -9.58704088758876 -1.11540074867487 -2.46751836433643
 1 -9.16231488628863  1.00402253325332 -0.92861667176718
 1 -10.01827315491549  0.27605886998700  2.62534827762776
 1 -11.74714007490749  0.03009971157116  3.00133848394839
 1 -11.06977767146715 -1.28065494199420  2.24763555325532
 1 -12.28900144264427  2.07289341134113 -0.03230001400140
 1 -12.55592183158316  2.38926450195020  1.71415512731273
 1 -10.79858014011401  2.29021961246125  1.08983327682768
 1 -11.79451252375237 -2.39582245584558  1.50725520442044
 1 -8.94485532743274 -1.61141949964996  0.67366646554655
 1 -5.67764721082108 -1.92745607070707  0.23569552515251
 1 -6.06010842614261 -1.48361359395940  1.76016441264126
 1 -6.87411752235224 -2.59326159915992  0.91484763556356
 1 -7.15278658975898  1.39628795789579 -0.60845052155215
 1 -4.50031667636764  0.05255387378738  0.19404562886289
 1  13.00773645074507 -1.33738542594259  2.36431137173717
 1  11.56160133713371 -1.85901528152815  1.67619361906191
 1  13.44161651855186 -2.95659732473247  0.68904583048305
 1  13.15085252375238 -2.29774625312531 -1.80416351105110
 1  11.64745475367537 -2.57673679757976 -0.45320066216622
 1  11.48062767096710  0.38481884858486  3.40567560626063
 1  10.35941291899190  1.16363192629263  2.62126965116512
 1  10.21438906010601 -0.54747306180618  2.88270451165117
 1  13.48348525042504  1.16938556275628  0.35070913571357
 1  12.37642025522552  2.25994543234323  1.39286399209921
 1  13.55833167026703  1.14425890499050  2.16246272787279
 1  12.79182000150015  0.03809720012001 -3.07590004190419
 1  11.87090415881588  1.09268135903590 -2.21666960186019
 1  13.49566039863986  0.63016906980698 -1.64600008540854
 1 -5.22270449434944  3.02764715151515 -0.65479689048905
 1  9.89850110071007 -0.22411106870687 -2.00176251205121
 1  14.78381122632263 -0.71598141254125  0.97147574687469
 1  8.47643949474948  2.27343967116712  0.01624434723472
 1 -2.22505758995900  4.43760020972097 -0.09315348564856
 1 -2.74058282258226  4.14786201100110 -1.83880698979898
 1 -3.99657604270427  4.70084826662666 -0.57549735123512
 1 -2.45694531463146  0.76305851785179 -0.02965592019202
 1  6.60406315621562 -1.87138670077008 -0.04098161346135
 1  8.45843105760576 -1.70025475027503 -0.63873464756476
 1  8.00950087168717 -1.39695202360236  1.18245200610061
 1  6.28312345944594  1.70128393379338 -0.34542656235624
 1 -0.69466082308231  3.01809585308531 -0.53408331983198
 1  4.95000098649865 -1.00691718841884  0.43708638973897
 1 -0.15909483268327 -0.08760057295730 -0.15858324722472
 1  3.83120228812881  1.97277291349135 -0.31219344434443
 1  1.65932280748075  2.27105289718972 -0.18475117351735
 1  1.19727856265627 -1.46659326352635  0.22577157275728
 1  3.14021534633463 -1.62554885638564 -0.34291206120612
 1  2.55051174757476 -1.43206743574357  1.23919720632063

