%nproc=3
%Mem=2GB
# td=(NStates=1) CAM-B3LYP/6-31G(d,p) 

TD

0 1
 8 -11.60309697729773  0.06164681308131 -1.58000516411641
 8 -12.89570040584058 -2.50538884688469  1.45890157515752
 8  10.60810633053305 -0.87571745964596 -2.17003072937294
 8  14.45645901260126 -1.22277099859986 -0.12825731313131
 6 -11.03223139033903 -0.19037299199920 -0.30323974837484
 6 -11.58054434413441 -1.23552473237324 -1.22680152045205
 6 -11.79531157415741  0.41102778557856  0.86707636263626
 6 -12.88531373507351 -1.95801595949595 -0.86823845784578
 6 -13.27617607560756 -0.14780222782278  0.87109179707971
 6 -13.47276370987099 -1.62133367116712  0.41974074137414
 6 -10.66326191489149 -2.08406382388239 -2.14354667296730
 6 -9.58347779157916  0.06759389318932 -0.43933089118912
 6 -11.01101707910791 -0.05472106810681  2.18472353945395
 6 -11.80090047034703  1.89390449354935  0.69766785848585
 6 -8.58277169886989 -0.76316435763576  0.12005074407441
 6 -7.28857684728473 -0.49032087818782  0.33072077237724
 6 -6.27516153105311 -1.60369905870587  0.58079031533153
 6 -6.64266992869287  0.77310814071407  0.03019446424642
 6 -5.22501244284428  1.03158519521952 -0.02458678887889
 6  11.94250349724973 -0.09956992749275  1.39088861696170
 6  11.66426371647165 -0.57754390959096 -1.21325520522052
 6  12.53014024212421 -1.42810704040404  1.50133486688669
 6  13.24286897359736 -1.94736927032703  0.23057702210221
 6  12.37222215691569 -1.99128363736374 -0.96639060156016
 6  11.08542543044304 -0.07326257835784  0.02870005030503
 6  10.90087149204921  0.19983662566257  2.57663000320032
 6  12.92226534323432  1.11482470327033  1.41312436343634
 6  12.53951025722572  0.43368224152415 -1.92756670447045
 6 -4.72674917061706  2.23222572857286 -0.25085993489349
 6  9.88582977047705  0.47751855465547 -0.09473064976498
 6 -3.36621177957796  2.60685943964396 -0.32737299799980
 6  8.71034082008201  0.95775210901090 -0.22512685268527
 6 -3.05214689978998  4.00375183468347 -0.68437816991699
 6 -2.36458337343734  1.73496534523452 -0.15296783148315
 6  7.43530307280728  0.23951453945395  0.05953676957696
 6  7.46854159065907 -1.19856680878088  0.42375229812981
 6  6.21078242624262  0.80639757005701 -0.13260719671967
 6 -0.89815394689469  1.96823594729473 -0.17150532563256
 6  4.85557716051605  0.19189830593059 -0.12928155935594
 6  0.03066954595460  0.94609791969197 -0.18125722852285
 6  3.78064747244724  0.95978632903290 -0.17296476547655
 6  1.38848078887889  1.32512424012401 -0.28540092099210
 6  2.49644754525452  0.40982028172817 -0.10912755485549
 6  2.19421928362836 -1.02820700100010  0.08836743034303
 1 -12.68029983078308 -3.00924390219022 -1.15384060806081
 1 -13.73306853055306 -1.71280526472647 -1.60744719941994
 1 -13.85434323652365  0.24459152795279  1.95933861656166
 1 -13.73691308490849  0.48733386048605  0.06347401300130
 1 -14.49987729182918 -1.76722543594359  0.43632523682368
 1 -10.40549916681668 -2.96492327512751 -1.68002329772977
 1 -11.43122333123312 -2.43938873027303 -2.93794208040804
 1 -9.89476165966597 -1.51887109570957 -2.30103171567157
 1 -9.33008166296630  0.98966109710971 -0.90939474957496
 1 -10.13292462006201  0.48092935703570  2.24661040384038
 1 -11.47889325022502  0.48047474907491  3.04571292139214
 1 -11.01465215891589 -1.20227710421042  2.16569735943594
 1 -12.10050259275928  2.29966608860886 -0.30169695369537
 1 -12.48460469986999  2.33359893539354  1.37394110591059
 1 -10.59110939303931  2.29611020152015  0.72831712521252
 1 -12.01257432993299 -2.89732260586059  1.36472095099510
 1 -9.04451529342934 -1.83520187788779  0.32992209110911
 1 -5.81751119721972 -2.16768009310931 -0.21560960536054
 1 -5.65365778107811 -1.30043527612761  1.50911930813081
 1 -6.85234534513451 -2.59137141014101  0.81479763056306
 1 -7.23218452955295  1.59972830193019 -0.27979765626563
 1 -4.67746439113911  0.18348696709671 -0.02344612031203
 1  13.25001067816782 -1.66080776817682  2.55478041864186
 1  11.78388356535654 -2.21281066106611  1.64930092979298
 1  13.53554591149115 -3.10960262526253  0.34476140204020
 1  12.94786222472247 -2.17654413291329 -2.03058615331533
 1  11.56191619981998 -2.72115123902390 -0.78385372747275
 1  11.40424003220322  0.47795816251625  3.60251529022902
 1  10.41391836953695  1.24378994209421  2.39827735193519
 1  10.07684530573057 -0.71096941144114  2.84921116231623
 1  13.53919082098210  0.82848147234724  0.36768083288329
 1  12.55368798199820  2.33606304410441  1.33050775647565
 1  13.59776561366137  1.05668014711471  2.22910939253925
 1  12.51410222972297  0.09890328072807 -3.00263271517152
 1  12.00164723312331  1.53195528642864 -1.85959389428943
 1  13.67600843344334  0.33554960786079 -1.60813629902990
 1 -5.41962418631863  3.05271965876588 -0.48566997779778
 1  10.07740899149915 -0.01752040964096 -2.21097343314331
 1  15.06187903310331 -1.25886570097010  0.52452105140514
 1  8.55839769056906  2.00601292849285 -0.61167844504450
 1 -2.67305238943894  4.53110956065607  0.21144697439744
 1 -2.44475323962396  3.90126735153515 -1.66503961306131
 1 -3.80456684178418  4.64309249104910 -0.90583038453845
 1 -2.62275189528953  0.86095830783078  0.13688073347335
 1  6.46274902480248 -1.78977853995400  0.04464694939494
 1  8.15230044454445 -1.65211993679368 -0.37251802590259
 1  7.89324924652465 -1.47783011141114  1.33558731963196
 1  6.22051719881988  1.73087689308931 -0.70849286898690
 1 -0.43311466846685  2.95373941744174 -0.28098801030103
 1  4.78945493189319 -0.83148964566457 -0.01403872277228
 1 -0.47940686388639 -0.04199601250125  0.38236084718472
 1  3.92833200110011  2.14219985618562 -0.42317454245424
 1  1.58821569676968  2.46815260716072 -0.37576027442744
 1  1.05284411921192 -1.33688029222922 -0.00746175057506
 1  2.98068939373937 -1.62125842734273 -0.60141791179118
 1  2.74428112451245 -1.28952318131813  1.00195348194820

