%nproc=3
%Mem=2GB
# td=(NStates=1) CAM-B3LYP/6-31G(d,p) 

TD

0 1
<<<<<<< HEAD
 8 -11.60993766136614  0.34746539493949 -1.49170633423342
 8 -12.90057089288929 -2.65454376237624  1.09502518751875
 8  10.63725924582458 -1.21254114201420 -2.08226195249525
 8  14.50574394109411 -1.05525424692469 -0.04526901430143
 6 -11.05266343354335 -0.07965191989199 -0.36907633203320
 6 -11.57465375507551 -1.09198037793779 -1.29407824812481
 6 -11.78408045104510  0.29997668046805  0.95163481848185
 6 -12.90859606330633 -1.65912607050705 -1.12274390839084
 6 -13.30886934493449 -0.22204965256526  0.87637232513251
 6 -13.52185861936194 -1.61568310611061  0.23981274857486
 6 -10.61519710841084 -1.85639105660566 -2.24553687198720
 6 -9.49833927772777  0.19964709850985 -0.28259521762176
 6 -11.12551852925293 -0.32328792479248  2.23043811091109
 6 -11.76386676697670  1.81457656075608  1.06248434013401
 6 -8.65645906760676 -0.62251029222922  0.29374811381138
 6 -7.13171116071607 -0.44090593669367  0.37552525282528
 6 -6.27827184208421 -1.58248693749375  0.89262149844985
 6 -6.64141980368037  0.79609043894389 -0.01371992719272
 6 -5.25332527412741  1.03570560726073 -0.03880821102110
 6  11.87012625952595  0.12672270177018  1.29572910101010
 6  11.69580687078708 -0.64210036523652 -1.22047592729273
 6  12.47760498859886 -1.14901913161316  1.49998473187319
 6  13.37188187488749 -1.77842237563756  0.44075804020402
 6  12.46395132983298 -1.88830333933393 -0.81523548604861
 6  11.04439132703270  0.03741848974898 -0.02949576927693
 6  10.93936534143414  0.37816445844584  2.48822116231623
 6  12.85641875857586  1.37941116191619  1.20486353735374
 6  12.54406071227123  0.26157503080308 -2.17860180798080
 6 -4.81657815351535  2.36135864186419 -0.21486633553355
 6  9.82225341284128  0.47415821862186 -0.13374455115512
 6 -3.43241840024002  2.63268202190219 -0.37196745744574
 6  8.57708749474947  0.85593192699270 -0.30169450945095
 6 -2.97949963506351  4.01523298279828 -0.90414014611461
 6 -2.37400431553155  1.65077692639264 -0.10606314101410
 6  7.45851539403940  0.02402299029903 -0.05358454255426
 6  7.78680341684168 -1.35949290139014  0.15671559445945
 6  6.16235758375838  0.55084201450145 -0.15428936493649
 6 -0.94728886038604  1.86476560026003 -0.15485366046605
 6  4.85617722052205  0.00674979107911 -0.00289892109211
 6  0.02462894189419  0.91869517941794 -0.04527363016302
 6  3.75355476317632  0.75833618401840 -0.12542001100110
 6  1.35483742454245  1.09277100480048 -0.21735411631163
 6  2.40061796229623  0.27406670637064 -0.08609525162516
 6  2.17669753145315 -1.17263144344434  0.26047464106411
 1 -13.00338213901390 -2.55812879067907 -1.29807503150315
 1 -13.52955817951795 -1.41968595279528 -1.91173762846285
 1 -13.74883268546855 -0.13241617281728  1.90699338203820
 1 -13.77727712131213  0.37802292939294  0.11753941954195
 1 -14.60746805090509 -1.99140785418542  0.20591219551955
 1 -10.38323694059406 -2.91002778557856 -1.96126142154215
 1 -10.94184439333933 -2.05122991439144 -3.29951823802380
 1 -9.52775495899590 -1.35770497909791 -2.24884649714972
 1 -9.13084173897390  1.13794592559256 -0.72445625572557
 1 -10.21040236783678 -0.02813154905491  2.25680142294229
 1 -11.54446980788079  0.28557525912591  3.13971232133213
 1 -11.36238693239324 -1.46253312981298  2.33806459615962
 1 -12.36335887838784  2.25374149614961  0.31573478947895
 1 -12.57086332573257  2.06658223372337  1.80824453625363
 1 -10.88954923702370  2.11897248774878  1.41193548704870
 1 -11.76702977547755 -2.72537541114111  1.09763424232423
 1 -8.98205904780478 -1.46371472917292  0.70234933383338
 1 -5.64479392549255 -1.92664598969897  0.14383633923392
 1 -5.55370778607861 -1.25942117471747  1.66022441864186
 1 -6.76082619321932 -2.47783005600560  1.29660581138114
 1 -7.52952426352635  1.48574690379038  0.04374469796980
 1 -4.61556820152015  0.15575419381938 -0.03800757645765
 1  13.16510218731873 -0.87152884028403  2.25141008160816
 1  11.70008518551855 -1.98024740474047  1.88874487418742
 1  13.51365372227223 -2.83090475547555  0.76107303320332
 1  13.24919235773577 -2.38281475997600 -1.61905500020002
 1  11.89583959215922 -2.75285440934093 -0.65892123422342
 1  11.64030363856386  0.65888625532553  3.33072811151115
 1  10.35689266696670  1.34082964606461  2.40749827402740
 1  9.99760738193819 -0.50714902940294  2.64685092629263
 1  13.73816071797180  1.22484110831083  0.45615968076808
 1  12.33622623582358  2.20558999679968  1.03044775047505
 1  13.23207904500450  1.56479095819582  2.29643612521252
 1  12.78745956545655 -0.25038164776478 -3.05343779567957
 1  11.99667673607361  1.16378846974697 -2.48013594849485
 1  13.47667850045005  0.67132318521852 -1.52811829722972
 1 -5.58588081198120  2.99869425622562 -0.64236564736474
 1  10.17059831043104 -0.39340799839984 -2.43870620642064
 1  14.96738958415841 -0.61202101650165  0.81136973627363
 1  8.45365721652165  1.91012333953395 -0.42283956115612
 1 -2.10167525172517  4.49694614431443 -0.10663483378338
 1 -2.46549531383138  4.00684790959096 -1.77735084418442
 1 -3.74716110121012  4.77640582238224 -0.86577637913791
 1 -2.62540216031603  0.64275648764876  0.19610665606561
 1  6.89394214411441 -2.16236579867987  0.12232471717172
 1  8.67786300080008 -1.69735446024602 -0.39963073717372
 1  8.43569349094910 -1.44064639303930  1.09199296019602
 1  5.93012815991599  1.72124592999300 -0.30629264896490
 1 -0.63321467846785  2.95997004050405 -0.39219913141314
 1  4.71154714111411 -1.07449394609461  0.14238691979198
 1 -0.54721364456446 -0.06120793369337  0.03472608370837
 1  3.83911307920792  1.89635527172717 -0.23148537353735
 1  1.73478035323532  2.14603039493949 -0.34263696209621
 1  1.08027686248625 -1.38443504770477  0.60208920452045
 1  2.42429375417542 -1.84940124162416 -0.44173194319432
 1  2.90824752115212 -1.39355358435844  1.04244753135313
=======
>>>>>>> 6a1b998aacd80a23911c140f266e48a14f2d523d

