%nproc=3
%Mem=2GB
# td=(NStates=1) CAM-B3LYP/6-31G(d,p) 

TD

0 1
 8 -11.68175484308431  0.17768841724172 -1.68051521512151
 8 -12.98570940674067 -2.40121842984298  1.51469715471547
 8  10.54546006590659 -1.01903179107911 -2.02827655395540
 8  14.50116348304831 -1.03897261876188 -0.25293978137814
 6 -11.07665583278328 -0.15420937563756 -0.42972239663966
 6 -11.51378766846685 -1.20417159705971 -1.28465730603060
 6 -11.82943498649865  0.41912859565957  0.86830648564856
 6 -12.96318152185219 -1.87387754565457 -0.93895552955296
 6 -13.27846630463046 -0.08964641224122  0.89073376127613
 6 -13.47573400690069 -1.54786632443244  0.42818158545855
 6 -10.69826541524153 -2.05878129562956 -2.03017533583358
 6 -9.52183162696270  0.12135926972697 -0.37736469456946
 6 -11.13277925532553  0.13473787778778  2.23568863596360
 6 -11.89021940224022  1.93605870897090  0.61315940764076
 6 -8.60574399609961 -0.70177821902190  0.26781552055206
 6 -7.16859484908491 -0.55056690279028  0.37428512881288
 6 -6.28527254215421 -1.73330201900190  0.66245848214821
 6 -6.63397905960596  0.61897272717272 -0.03617217241724
 6 -5.28150809240924  0.88070010671067 -0.15482981318132
 6  11.87682692959296 -0.13889385988599  1.43818334643464
 6  11.59336662676268 -0.51885804100410 -1.17738161786179
 6  12.69970719881988 -1.41045527522752  1.46581131453145
 6  13.41975666236624 -1.90046457985799  0.10783474787479
 6  12.43918885358536 -1.86383089208921 -1.07337129962996
 6  11.04686157405741 -0.02254750685069  0.11541872217222
 6  11.10619202410241  0.05594223622362  2.66985932613261
 6  12.79811292799280  1.23274649544955  1.28313136413641
 6  12.35586189238924  0.53057193049305 -2.03783773157316
 6 -4.70334683038304  2.11834434043404 -0.46672152105211
 6  9.83060424792479  0.56450725352535  0.01248007130713
 6 -3.34390954935494  2.42009076277628 -0.56287654835484
 6  8.63943372937294  0.96011234503450 -0.01463580358036
 6 -2.99949163426343  3.94946640614061 -0.56037576967697
 6 -2.28210512561256  1.58595044374437 -0.38095062976298
 6  7.41159070157016  0.25952654065407 -0.05527471157116
 6  7.59157389388939 -1.22070902300230  0.23420334323432
 6  6.23323467146715  0.83263019331933 -0.01961589758976
 6 -0.95768990049005  1.84296342004200 -0.24524269936994
 6  4.87878948174817  0.12943205930593  0.06237760656066
 6  0.05333181218122  0.93895720562056 -0.21013011581158
 6  3.77998740644064  0.91864221462146  0.02637516851685
 6  1.47919986078608  1.26322805050505 -0.12945532643264
 6  2.52310021052105  0.31086038573857 -0.02640928302830
 6  2.39329919161916 -1.11141532183218  0.11264985858586
 1 -13.13393519431943 -2.86337931573157 -0.89782500650065
 1 -13.58460368406841 -1.29376336053605 -1.81484793949395
 1 -13.70069787198720 -0.02477540874087  1.91001368406841
 1 -13.90640003360336  0.52571769886989  0.25725339093909
 1 -14.45162246634663 -1.76281499489949  0.54878648294830
 1 -10.59490810771077 -3.01592837563756 -1.57035233063306
 1 -11.24905511441144 -2.27499229062906 -3.00759904610461
 1 -9.72224440794079 -1.35252446104611 -2.48043965646565
 1 -9.32124077887789  0.90831296229623 -1.00020383048305
 1 -10.02525385298530  0.45812707680768  2.12473821662166
 1 -11.54001936283628  0.56690339193919  3.03338168826883
 1 -11.20324101780178 -1.01252812931293  2.45112590229023
 1 -12.58750129262926  2.32456857885789 -0.34351113511351
 1 -12.20937717711771  2.43158873437344  1.58017172897290
 1 -10.79302958505851  2.24694528502850  0.49096338983898
 1 -12.04295736823682 -2.52653552715272  1.23373785268527
 1 -9.05793663556356 -1.64897325502550  0.65120421932193
 1 -5.65273471957196 -1.77610093519352 -0.13887193159316
 1 -5.79639205450545 -1.56295152775278  1.50592898909891
 1 -6.94373448404840 -2.67900017301730  0.76411256205621
 1 -7.24364567566757  1.38530685978598 -0.20533020952095
 1 -4.50006665136514 -0.00256163776378  0.10508673297330
 1  13.40102577967797 -1.29963165056506  2.24151909250925
 1  11.91291646864687 -2.17238661866187  1.87437343704371
 1  13.84558691559156 -2.83739540454045  0.22048897479748
 1  12.84701213971397 -2.37960443894389 -2.03960705540554
 1  11.58700870907091 -2.57101622552255 -0.80453579567957
 1  11.79513912211221  0.01769213591359  3.53049808850885
 1  10.35570254795479  0.91633719681968  2.59976750095010
 1  10.38589621082108 -0.75738405290529  2.57952419361936
 1  13.47910481238124  1.31914053825383  0.46140020482048
 1  12.11356396959696  2.14838427622762  1.45834053975398
 1  13.54375021212121  1.32199667876788  2.21781826342634
 1  12.29152997249725  0.11029441984198 -3.06929938183818
 1  11.64206127452745  1.35720781168117 -2.08538647354735
 1  13.26768760136014  0.89973602650265 -1.49299478487849
 1 -5.39124134803480  2.95536992379238 -0.54844625542554
 1  9.95860711131113 -0.21325998359836 -2.40506284208421
 1  15.18751159635964 -1.17246706110611  0.31963056235624
 1  8.49802165296530  1.97034936213621 -0.18423570077008
 1 -2.66799188338834  4.33158960866087  0.59180501020102
 1 -2.23594235853585  4.57274449924993 -1.23433654275428
 1 -3.88715510061006  4.68101628342834 -0.54989479097910
 1 -2.61266088618862  0.45373758575858 -0.14438739333933
 1  6.74252700260026 -1.83349291139114 -0.26438395369537
 1  8.39989520402040 -1.56851157595760 -0.32519329342934
 1  7.75264518611861 -1.46466879527953  1.24779854075408
 1  6.30135528262826  1.95610941634163 -0.25127714741474
 1 -0.74600595759576  3.00402444594459  0.00599068756876
 1  4.87754374077408 -0.98239473617362  0.33417609870987
 1 -0.23507243044304 -0.28007982088209 -0.50334772367237
 1  3.98373754165416  2.00074571077108 -0.11832405740574
 1  1.73840071527153  2.23918971087109  0.08863616521652
 1  1.24248308310831 -1.35291189538954  0.07691668726873
 1  2.51806313111311 -1.73884018551855 -0.77787555755576
 1  2.80578727512751 -1.60033426242624  1.14657794439444

