%nproc=3
%Mem=2GB
# td=(NStates=1) CAM-B3LYP/6-31G(d,p) 

TD

0 1
 8 -11.70375704330433  0.17235788418842 -1.54435159875988
 8 -12.97307814361436 -2.36265457345735  1.57064274927493
 8  10.63272879277928 -0.86016590449045 -2.12848657495750
 8  14.50683405010501 -1.15538425992599  0.00838635123512
 6 -11.04259242644264 -0.17789174387439 -0.23294271867187
 6 -11.61644793449345 -1.14961614151415 -1.27104594489449
 6 -11.83077512051205  0.38310499329933  0.97137679267927
 6 -12.98867407110711 -1.88523868176818 -0.83639527352735
 6 -13.33423188118812  0.05035758815882  0.86903159105911
 6 -13.55358179167917 -1.49577111491149  0.48933770107011
 6 -10.77510309900990 -1.93367878537854 -2.17680999929993
 6 -9.57938738253825  0.10155728952895 -0.30558751685169
 6 -11.10532651005100 -0.11194679067907  2.21545661276128
 6 -11.75907628792879  1.99811491459146  1.00254834653465
 6 -8.68014143584358 -0.74229227042704  0.20297903690369
 6 -7.23230121972197 -0.51498334443444  0.22718041834183
 6 -6.34802881778178 -1.76566525532553  0.54999723602360
 6 -6.62163782548255  0.68440927082708  0.02633407820782
 6 -5.26351629322932  0.88375041174117 -0.08702303250325
 6  11.96956620352035  0.03828385788579  1.38145767386739
 6  11.64107139723972 -0.45373152835284 -1.17422130183018
 6  12.60048727682768 -1.40999522922292  1.51042577597760
 6  13.32097678437844 -1.88642317571757  0.28543250765076
 6  12.47324225892589 -1.81142565156516 -0.95799976247625
 6  11.06552344024402  0.13159790769077  0.07829500980098
 6  11.06318772367237  0.20305694769477  2.66137847804780
 6  12.95972908960896  1.12490571137114  1.46131918291829
 6  12.59640594679468  0.56775564886489 -1.92482643044304
 6 -4.69231572727273  2.17446995299530 -0.32178702760276
 6  9.86275746324633  0.59936073887389  0.10062888618862
 6 -3.31982714111411  2.58436719041904 -0.48905916661666
 6  8.68688847484748  1.01680801460146  0.02608826882688
 6 -3.06583826892689  3.98058951845185 -0.76819655175518
 6 -2.38372528762876  1.62291414011401 -0.29774230893089
 6  7.50285982848285  0.14943553155316  0.08926974287429
 6  7.69824456095610 -1.30422737483748  0.20126004890489
 6  6.20772212021202  0.71576850715072  0.01536760076008
 6 -0.99155328682868  1.78189731343134 -0.52673084818482
 6  4.91260286308631  0.07852696879688 -0.15933456465647
 6  0.04667114611461  0.73361667156716 -0.29733883668367
 6  3.83509291699170  0.76234658505851 -0.30144761376138
 6  1.33691563236324  1.10941266896690 -0.50450283118312
 6  2.44698259875988  0.26626592629263 -0.29380602270227
 6  2.25013487518752 -1.26341052135214 -0.08416982338234
 1 -12.99799159996000 -2.91483446124612 -0.81362658665867
 1 -13.73324854855485 -1.61081506570657 -1.52005846054605
 1 -13.79516731893189  0.16322339113911  1.81295397809781
 1 -13.84280367396740  0.57450257735774  0.18983664926493
 1 -14.56000330443044 -1.76290500390039  0.45742734703470
 1 -10.58772738963896 -3.05466224902490 -1.75102039743974
 1 -11.30033024192419 -1.74593938533853 -3.13148143434343
 1 -9.70105228872887 -1.40236944554455 -2.18090970347035
 1 -9.38623727852785  1.08993112411241 -0.71243505360536
 1 -10.09040036763676  0.14158542264226  2.29442518531853
 1 -11.78563392429243  0.20266696829683  3.09264761486149
 1 -11.27430812451245 -1.37299417591759  2.17164795449545
 1 -12.13516605910591  2.44708083008301  0.04891810781078
 1 -12.32653889328933  2.60562613811381  1.85817952975298
 1 -10.80546082818282  2.25804639513951  1.11908620212021
 1 -12.04612768526853 -2.65525839943994  0.98048252715271
 1 -8.99249009090909 -1.76707506520652  0.56168526742674
 1 -5.47704715081508 -1.73981730683068 -0.33743178757876
 1 -5.93446586188619 -1.54089932253225  1.69473786998700
 1 -6.97764787538754 -2.71300357335734  0.33409956075608
 1 -7.17078838993899  1.69149747884789 -0.11920159665967
 1 -4.66639328402840 -0.01774315591559  0.08207443174317
 1  13.23917959505951 -1.53877556495650  2.32541748234823
 1  11.86431160816082 -2.12007138713871  1.74811081078108
 1  13.61965432233223 -2.94079574457446  0.19572649854985
 1  12.95179261776178 -1.91992847134713 -2.01810490519052
 1  11.66158616681668 -2.55275439933993 -0.93664900700070
 1  11.51560116831683  0.24273464016402  3.71631667036704
 1  10.57696467416742  1.14706026912691  2.70090761496150
 1  10.29728734993499 -0.45806412091209  2.72730897209721
 1  13.56057295919592  1.00558918311831  0.55299936473647
 1  12.45330794399440  2.19031846964696  1.50233493919392
 1  13.53576941404140  0.97289176827683  2.32223870547055
 1  13.11473229272927  0.18569195959596 -2.74216666856686
 1  12.00983805220522  1.41413350425043 -2.41143907880788
 1  13.57901873447345  0.76523257615762 -1.25765125052505
 1 -5.48960118401840  3.03956834363436 -0.54932634343434
 1  9.99048029862986 -0.15920457805781 -2.34682701850185
 1  15.03454629982998 -0.75900571497150  0.82541114041404
 1  8.53804565536554  1.98386071327133 -0.35203248044805
 1 -2.36030111431143  4.41635808550855  0.05680150985099
 1 -2.70058882318232  4.04580180498050 -1.67856096519652
 1 -3.93413979907991  4.34688287008701 -0.87199700120012
 1 -2.60083970407041  0.50462267426743 -0.31429438403840
 1  6.70980373027303 -1.79927949004901  0.10247273197320
 1  8.45791100560056 -1.64002872767277 -0.35441621572157
 1  8.10363028462846 -1.58638096649665  1.23538729962996
 1  6.11206635373537  1.87570137553755 -0.08872089178918
 1 -0.69251060806081  2.77587163066307 -0.71470138163816
 1  4.88179416581658 -0.90330682738274  0.01250393149315
 1 -0.32470139333933 -0.25249706260626 -0.20630801970197
 1  3.82986215411541  1.95344098029803 -0.35962818781878
 1  1.54372124732473  2.14466025792579 -0.48684138253825
 1  1.09840867566757 -1.52909951415141 -0.25424642904290
 1  2.96613793859386 -1.85614191569157 -0.85124289428943
 1  2.58340503690369 -1.67344157315732  0.91330461706171

