%nproc=3
%Mem=2GB
# td=(NStates=1) CAM-B3LYP/6-31G(d,p) 

TD

0 1
 8 -11.82253892149215  0.27228787718772 -1.61118828242824
 8 -13.19413024882488 -2.27555586358636  1.49171485648565
 8  10.59849536943694 -1.02096198409841 -2.07839156545655
 8  14.51518488518852 -1.05741446294629 -0.19063355075508
 6 -11.01474964216422 -0.12750670537054 -0.40502992739274
 6 -11.66533282298230 -1.08049922982298 -1.28977781808181
 6 -11.84342638563856  0.44322100490049  0.89742939793979
 6 -13.05983118681868 -1.73795395329533 -0.90841247524752
 6 -13.39038749674967 -0.01497894549455  0.92987767566757
 6 -13.65887232073207 -1.35562710051005  0.48407717501750
 6 -10.87325291399140 -1.97049246674667 -2.28717103540354
 6 -9.58590803460346  0.08212534633463 -0.46092305040504
 6 -11.06042201960196  0.07842224622462  2.15826089318932
 6 -11.71559193949395  1.95891099419942  0.87230532223222
 6 -8.70707412911291 -0.83376141734173 -0.01527278827883
 6 -7.30826881648165 -0.65457730383038  0.06670437073707
 6 -6.47923193809381 -1.83046173497350  0.39554179047905
 6 -6.68325398709871  0.55695652555256 -0.23323187838784
 6 -5.32879282088209  0.71610364706471 -0.24371870207021
 6  11.94367361426143  0.12745277477748  1.26360588868887
 6  11.71092838293829 -0.56562271747175 -1.36982086178618
 6  12.74390161826183 -1.26378060776078  1.34989972337234
 6  13.45710039673967 -1.80824535793579  0.17247121152115
 6  12.48912384708471 -1.84459896889689 -1.01195515801580
 6  11.22336922482248  0.07207195509551  0.05971315161516
 6  11.11305271017102  0.26771341334133  2.49327166736674
 6  12.97812092879288  1.23011623242324  1.26888993999400
 6  12.56792309850985  0.38016688998900 -2.19667361516152
 6 -4.76921341704170  2.02189469546955 -0.37798264716472
 6  10.04175536303631  0.50910171297130 -0.05305648234823
 6 -3.36316147454745  2.32053080678068 -0.36684694539454
 6  8.75449523552355  0.98292462626263 -0.12626696669667
 6 -3.00376206130613  3.74851631113111 -0.59691942404240
 6 -2.33568048314831  1.35751760046005 -0.12493502820282
 6  7.53314285678568  0.24013460146015  0.02910372627263
 6  7.70357509400940 -1.25923287538754  0.39295921882188
 6  6.25115646364636  0.84669159945995  0.01103716771677
 6 -1.01758589008901  1.72192131583158 -0.21843001810181
 6  4.98820042284228  0.27935705180518  0.02788415721572
 6 -0.01581510251025  0.83737704760476  0.02853375057506
 6  3.79088849654965  0.99142949334934  0.09280181118112
 6  1.37120906170617  1.08665039273927  0.07954557365737
 6  2.54086198669867  0.30010931063106  0.21832519041904
 6  2.42649251095109 -1.05396957725773  0.56787538113811
 1 -13.03019482028203 -2.63594657245725 -1.04772999699970
 1 -13.83549877357736 -1.20152413661366 -1.62683913861386
 1 -13.82391019321932  0.27737480628063  1.87497017971797
 1 -13.89785917951795  0.57031215831583  0.04525219081908
 1 -14.66135343944394 -1.73179189258926  0.63883548784878
 1 -10.80230884778478 -2.91211799459946 -1.96406170157016
 1 -11.67573778267827 -2.27051184258426 -3.16933521972197
 1 -9.85142732623262 -1.61227043564356 -2.77681929442944
 1 -9.14602325712571  0.90303243424342 -0.78496230633063
 1 -10.05091641924192  0.73648491259126  2.15592133493349
 1 -11.61361672257226  0.31436813841384  3.14543289338934
 1 -10.97000769446945 -1.06523339983998  2.35658644834483
 1 -11.97247979047905  2.58567468946895 -0.04032081608161
 1 -12.30806704610461  2.45741131663166  1.64470818261826
 1 -10.55977625972597  2.26850744124412  1.22614690819082
 1 -12.19731280378038 -2.27670054365437  1.39474395329533
 1 -9.08789963186319 -1.80507886558656  0.40817991689169
 1 -6.23364281038104 -2.58336166126613 -0.55556360076008
 1 -5.27018943424342 -1.78623385598560  1.04950334653465
 1 -7.02070218081808 -2.65938821182118  0.85072122292229
 1 -7.51973328442844  1.31415974507451 -0.32887256375638
 1 -4.67503414811481 -0.04215559715972 -0.14446822252225
 1  13.36046172327233 -1.14109579697970  2.33714865546555
 1  12.13493867086709 -1.84022340234023  1.68635463516352
 1  13.87310966786679 -2.81092275727573  0.30271719761976
 1  12.97246468496850 -2.24520099859986 -2.06551964666467
 1  11.55879588778878 -2.56861598549855 -0.63049839193919
 1  11.55551515971597  0.13100346704670  3.53490852955296
 1  10.59923690139014  1.09210477357736  2.51307883208321
 1  10.37556517771777 -0.45735404990499  2.61885812701270
 1  13.79749665156516  1.22424104830483  0.45812987778778
 1  12.29560217341734  2.02190162796280  1.12099680538054
 1  13.49708554565457  1.16962144124412  2.09073555515552
 1  12.82074289378938  0.07549093949395 -3.27633008490849
 1  12.22048911731173  1.36408849974997 -2.50954888978898
 1  13.63093392599260  0.65738179107911 -1.52909839523952
 1 -5.50561278517852  2.74259864666467 -0.59185059585959
 1  10.06178742934294 -0.18100675827583 -2.14780711651165
 1  15.26040888608861 -0.97672748714871  0.57842644194419
 1  8.52918476927693  2.17498982618262 -0.22700997819782
 1 -2.35795087928793  4.22350880058006  0.37968379807981
 1 -2.27181594589459  3.96945417021702 -1.44673778287829
 1 -3.99583596869687  4.36157433923392 -0.74533433493349
 1 -2.79088870897090  0.53148536053605  0.46762380778078
 1  6.76062881278128 -2.02462202430243  0.12867535223522
 1  8.51679689418942 -1.76144086888689 -0.09257003110311
 1  7.87342726432643 -1.39721204960496  1.27811157205721
 1  6.08674382148215  1.82959676507651  0.09879786008601
 1 -0.85685704270427  2.73768781228123 -0.62426233773377
 1  4.86887287368737 -0.89621611831183  0.32451513261326
 1 -0.26092501570157 -0.17606941984198  0.42303491459146
 1  3.57572674057406  2.12979861606161 -0.23611583658366
 1  1.70879775497550  2.10566635853585 -0.26952965136514
 1  1.28720755555556 -1.22907951215122  0.65730472607261
 1  2.45662698749875 -1.71264756625663 -0.23158092809281
 1  3.00786748314831 -1.44451868086809  1.34910819741974

