%nproc=3
%Mem=2GB
# td=(NStates=1) CAM-B3LYP/6-31G(d,p) 

TD

0 1
 8 -11.65638230583058  0.23794444284428 -1.49568673227323
 8 -12.81107194299430 -2.66682499049905  1.24054973997400
 8  10.39055457535754 -1.14949483738374 -2.04278800510051
 8  14.40258362506251 -1.40127884938494 -0.04540902830283
 6 -11.02238040524052 -0.13959791449145 -0.33988341274127
 6 -11.45961225092509 -1.10849202910291 -1.28340718101810
 6 -11.77557960096010  0.19354603740374  0.90468012301230
 6 -12.86646184988499 -1.85549570747075 -1.08916055005501
 6 -13.27032549054906 -0.35178262586259  0.97446213411341
 6 -13.47828426192619 -1.72226376417642  0.31526029332933
 6 -10.59141473017302 -1.76163158065807 -2.28945126342634
 6 -9.47773721752175  0.06796393019302 -0.42639959805981
 6 -11.07733371077108 -0.36997259325933  2.28983405050505
 6 -11.81232161246125  1.80142524562456  1.01486957865787
 6 -8.54737815951595 -0.69964800600060  0.13729246824682
 6 -7.12845083468347 -0.55254710081008  0.24267196749675
 6 -6.34936895179518 -1.73945263406341  0.72364460076008
 6 -6.53941960366037  0.63844467436744  0.01911335613561
 6 -5.18006794839484  1.00398243494349 -0.07119144934493
 6  11.87328657555756  0.00225025452545  1.23453298139814
 6  11.54716200630063 -0.80513666886689 -1.24655853555356
 6  12.56133336143614 -1.30402463216322  1.49855458885889
 6  13.19418410511051 -2.09126365976598  0.26334029842984
 6  12.27671260596060 -2.14681919091909 -0.82622658515852
 6  10.99435632353235 -0.08599385148515 -0.04643746344634
 6  11.16889829472947  0.38441508350835  2.54769710991099
 6  13.00618373507351  1.11093431423142  1.14145719671967
 6  12.39134544074407  0.15675454875488 -2.18936288408841
 6 -4.66435293099310  2.27418992499250 -0.45789063796380
 6  9.77115830333033  0.58125892869287 -0.11932310901090
 6 -3.39048420682068  2.71621037473747 -0.45999626032603
 6  8.61782156815682  1.05974230803080 -0.25775011501150
 6 -3.13844552965297  4.12430388988899 -0.79984971707171
 6 -2.30518743384338  1.61909375807581 -0.33431596629663
 6  7.47280682318232  0.24414500250025 -0.03571275537554
 6  7.64175891239124 -1.07089404150415  0.19315923882388
 6  6.26780812881288  0.93262019231923 -0.03611754775478
 6 -0.94381851335134  2.03758288198820 -0.45556373147315
 6  4.96709831263126  0.40634975107511  0.14310567936794
 6 -0.02110563156316  1.10874418431843 -0.12557165996600
 6  3.78045745344534  1.10733108350835 -0.01508897789779
 6  1.40561250205021  1.42379410711071  0.01301892099210
 6  2.43885178567857  0.56187548724873  0.15536889478948
 6  2.16187604930493 -0.90634481478148  0.56449504310431
 1 -12.75286708750875 -3.00818379617962 -1.26602182618262
 1 -13.68267349104910 -1.53739772397240 -1.67233368806881
 1 -13.64756255845585 -0.26417934913491  1.94901758445845
 1 -13.81741113471347  0.34254938203820  0.31030869646965
 1 -14.56335363946395 -2.16245495889589  0.27922952725272
 1 -10.48846746364636 -2.86055283808381 -1.98538383378338
 1 -11.20203041194119 -1.60950574197420 -3.16419470567057
 1 -9.67468965246525 -1.18388759735974 -2.42914452695270
 1 -9.23152180698070  1.11342347334733 -0.94747855795580
 1 -10.21644297189719  0.25187645174517  2.51592733553355
 1 -11.86637199809981 -0.20468376677668  3.06900525062506
 1 -10.53339403310331 -1.38183506000600  2.18534932463246
 1 -12.24566710921092  2.21724784678468  0.01817503350335
 1 -12.50402664206421  2.27697327282728  1.93304701650165
 1 -10.84198448054805  2.17967855835584  1.39210350385039
 1 -11.82304537703770 -2.48720159375938  1.41110558945895
 1 -8.80808165006501 -1.60208856655666  0.52460155905591
 1 -5.68404785088509 -2.24568789388939  0.07226918251825
 1 -5.60293270857086 -1.24301953455346  1.54373276947695
 1 -7.03907401800180 -2.44007628062806  1.00462661346135
 1 -7.05913722482248  1.61947027612761 -0.38794847134713
 1 -4.62106875157516  0.14286290469047  0.21424764906491
 1  13.39805548264827 -1.35394708210821  2.31547648824882
 1  11.81978715571557 -2.12766214621462  1.74801080078008
 1  13.14551690859086 -3.14233589858986  0.36926385228523
 1  12.86858429692969 -2.37093357185719 -1.69627272197220
 1  11.50147015521552 -2.92550167406741 -0.65527086918692
 1  11.56218582678268  0.34582494919492  3.60725576427643
 1  10.58265524322432  1.36286184928493  2.62316984118412
 1  10.16301392259226 -0.16509482398240  2.62028827002700
 1  13.96607350925093  0.76875549974998  0.35994005880588
 1  12.58339095229523  2.17342678047805  1.14379908560856
 1  13.32109794689469  1.08644312341234  2.18203468506851
 1  12.60260107960796 -0.35320192979298 -3.23837628952895
 1  11.89878694709471  1.21016310721072 -2.13928186308631
 1  13.50693152575258  0.32364841774177 -1.97738322372237
 1 -5.31773399729973  3.07587197399740 -0.57614902570257
 1  9.85542679327933 -0.36361501910191 -2.29106144194419
 1  14.95671851705170 -1.36503631803180  0.78217681698170
 1  8.42965481628163  2.06043837103710 -0.28583586078608
 1 -2.59464454865487  4.45698214791479  0.02467829752975
 1 -2.32688145244524  4.32806003080308 -1.61731484058406
 1 -3.84058044314432  4.72012019381938 -1.12642244374437
 1 -2.64038365846585  0.61058327032703 -0.27652060666067
 1  6.86404915481548 -1.73636319841984  0.06877936263626
 1  8.37633284778478 -1.25239996479648 -0.44255502960296
 1  8.04857477907791 -1.13186551495150  1.16726048694869
 1  6.51877702480248  2.00672447784779 -0.35551757145715
 1 -0.80543190019002  3.02592663616362 -0.56926683818382
 1  4.96502248864886 -0.68480497719772  0.36105878697870
 1 -0.55902482568257  0.15914410151015 -0.06809419831983
 1  4.02204137203720  2.22218785498550 -0.16272849784978
 1  1.64029090429043  2.47493328522852  0.21997929952995
 1  1.14997383218322 -1.25163176737674 -0.14101510591059
 1  3.11907323212321 -1.50786708820882  0.21608383838384
 1  1.91115781218122 -0.80217444644464  1.81318460506051

