%nproc=3
%Mem=2GB
# td=(NStates=1) CAM-B3LYP/6-31G(d,p) 

TD

0 1
<<<<<<< HEAD
 8 -11.68098476607661  0.15322597099710 -1.57901506510651
 8 -12.79242007780778 -2.38241654965497  1.45956164116412
 8  10.43284880478048 -0.93741362926293 -2.05168889518952
 8  14.36556992369237 -1.20107882938294 -0.17705219261926
 6 -11.07297546474647 -0.19603355805581 -0.32072149654966
 6 -11.64593088278828 -1.14578575847585 -1.19267810811081
 6 -11.79873191619162  0.37491417421742  0.84891454645465
 6 -13.01748695239524 -1.86018617651765 -0.83072470647065
 6 -13.17311576957696 -0.09920736833683  0.82665735363536
 6 -13.42968940244024 -1.63088462626263  0.58249701700170
 6 -10.77790337903790 -2.01672709020902 -2.14494681298130
 6 -9.55486493029303  0.05148228202820 -0.37117407550755
 6 -11.05341131853185  0.00203460746075  2.22059712681268
 6 -11.71238161846185  1.89575467856786  0.79207729942994
 6 -8.56832025372537 -0.76561460266027  0.05467420642064
 6 -7.13193118271827 -0.57736958305831  0.10777847814781
 6 -6.29373338823882 -1.74906359515952  0.49887212351235
 6 -6.55998165986599  0.61384221412141 -0.13873242844284
 6 -5.19606954855486  0.91304334103410 -0.14981931213121
 6  11.98540778767877  0.06260629012901  1.33819334743474
 6  11.44776206630663 -0.52292844804480 -1.20521440114011
 6  12.64401162926293 -1.35037926762676  1.52327706110611
 6  13.19584427112711 -1.91088562196220  0.19417338173817
 6  12.26802173687369 -1.82943745274527 -1.00196415891589
 6  11.05405229312931  0.03094784268427  0.13779095939594
 6  11.03775518041804  0.33084972697270  2.53324566476648
 6  13.04455757245725  1.20018323912391  1.24486753775378
 6  12.42310861706171  0.40952982628263 -2.03659760756076
 6 -4.70037653335334  2.13222572857286 -0.38453330223022
 6  9.88418960646065  0.54408521132113  0.13850267356736
 6 -3.32931809020902  2.53308206190619 -0.31520178087809
 6  8.66526631263126  0.91617795159516 -0.00066440644064
 6 -3.02563424852485  4.01731319081908 -0.69943967606761
 6 -2.31893880898090  1.70527237593759 -0.22202473717372
 6  7.41245078757876  0.11794238223822  0.03160397629763
 6  7.63991872837284 -1.41600855295530  0.19004892779278
 6  6.28248959695970  0.77368429872987  0.04471053505351
 6 -1.00296442794279  2.07303642734273 -0.32079025412541
 6  4.97841944474447  0.11134025012501  0.02226359515952
 6  0.02306878587859  1.09959326922692 -0.08306740954095
 6  3.69490889858986  0.84320467086709 -0.01279874887489
 6  1.44838677947795  1.29479120682068 -0.14633701460146
 6  2.43524142464246  0.33656295599560 -0.04748139023902
 6  2.18850871257126 -1.13647782808281  0.12095068866887
 1 -12.92290409120912 -2.99379235703570 -1.18609383338334
 1 -13.73243846754675 -1.47471145534553 -1.67055351005100
 1 -13.55391319351935  0.07288435723572  1.77744042674267
 1 -13.69363875747575  0.59659478657866  0.07012467806781
 1 -14.57945524962496 -1.78804751815181  0.65707731203120
 1 -10.64432304920492 -2.93726050885089 -1.81064636003600
 1 -11.31302151105110 -2.35661045244524 -3.00901918811881
 1 -9.94588677217722 -1.37439664826483 -2.36220783328333
 1 -9.23720237503750  0.97595972697270 -0.76484029412941
 1 -10.00869219681968  0.43449471357136  2.14468021082108
 1 -11.58145350625062  0.24391109270927  3.01705005510551
 1 -10.61256194989499 -1.13029990649065  2.27174796449645
 1 -12.27742028452845  2.19610573257326 -0.16527331133113
 1 -11.93429966936694  2.40448602410241  1.63118683048305
 1 -10.64162444454445  2.37440803130313  0.52296659015902
 1 -11.89163223572357 -2.60393326692669  1.15017949684968
 1 -9.08021886378638 -1.94512286998700  0.15666476537654
 1 -5.66747619371937 -2.10993431853185 -0.36607465186519
 1 -5.47681009630963 -1.65247047964796  1.20324872107211
 1 -6.96658676927693 -2.47534980798080  0.71202735353535
 1 -7.31124243534353  1.48094642374237 -0.37405708220822
 1 -4.25282192689269  0.10938955735574  0.00617684198420
 1  13.18807448454845 -1.48563025042504  2.48688362896290
 1  11.78204338133813 -2.13349272927293  1.55729172887289
 1  13.56520887778778 -2.78014967996800  0.55090201610161
 1  12.75718315681568 -1.95325180368037 -1.90834392909291
 1  11.57938794699470 -2.64191331523152 -0.85606094819482
 1  11.74142375057506  0.12035240194019  3.45667070577058
 1  10.43807078477848  1.28532409550955  2.38289581378138
 1  10.42959058025803 -0.48738705320532  2.43324956615662
 1  13.37666456835684  1.04702332653265  0.32922698749875
 1  12.66200881408141  2.15517495529553  1.22033673937394
 1  13.77224306140614  1.04458893799380  2.08726520812081
 1  12.36072689218922 -0.35092170177018 -2.93773622552255
 1  11.87790485888589  1.04873696459646 -2.20021795669567
 1  13.32600343294329  0.76253230613061 -1.61017650305031
 1 -5.39647187108711  2.97419180598060 -0.49920133093309
 1  9.90629187978798 -0.19694835243524 -2.20907324312431
 1  14.66654950015001 -1.10980079447945  0.65134373367337
 1  8.48343019381938  2.08168049524953 -0.06376365356536
 1 -2.37825290949095  4.45110155985599  0.12379820952095
 1 -2.16970573487349  3.97369459425943 -1.58046115521552
 1 -3.92212859795980  4.61965014681468 -0.98579838133813
 1 -2.62818243834383  0.74396660866087  0.03017006240624
 1  6.71052380228023 -1.90163972607261 -0.16280379567957
 1  8.51610682518252 -1.64811953675367 -0.35019579367937
 1  7.84853477507751 -1.71937426582658  1.39118287918792
 1  6.23247839493949  1.82922672807281 -0.08098011771177
 1 -0.73856521352135  3.05162920642064 -0.40485039653965
 1  5.17228321472147 -1.06600309700970  0.18190087118712
 1 -0.41090001320132  0.00315850295029  0.03505611671167
 1  3.73872304020402  2.01467710391039  0.07269504450445
 1  1.86285316051605  2.21607739963996 -0.33000569896990
 1  1.01031986678668 -1.50504710891089  0.15100409600960
 1  2.58869019381938 -1.78505480698070 -0.75528329832983
 1  2.62422911931193 -1.73772800180018  0.98346163276328
=======
>>>>>>> 6a1b998aacd80a23911c140f266e48a14f2d523d

