%nproc=3
%Mem=2GB
# td=(NStates=1) CAM-B3LYP/6-31G(d,p) 

TD

0 1
<<<<<<< HEAD
 8 -11.78856552415242  0.32372302070207 -1.41180834443444
 8 -12.99406024182418 -2.57076538453845  1.41476716171617
 8  10.42345786568657 -0.92231211911191 -2.07940166646665
 8  14.49017238393839 -1.17122584408441 -0.25048953635364
 6 -11.11594976217622 -0.09126308100810 -0.18407783218322
 6 -11.72891918161816 -1.13776495639564 -1.21965080538054
 6 -11.75808785178518  0.25791247404740  1.08962861786179
 6 -13.08945414911491 -1.70660081798180 -0.90253188718872
 6 -13.24049250725072 -0.13975142274227  1.10452514041404
 6 -13.49716615011501 -1.50598213601360  0.53456222352235
 6 -10.94609019771977 -1.82852827032703 -2.24459677797780
 6 -9.65678512231223  0.11121825562556 -0.40464742284228
 6 -11.07148312571257 -0.38300389638964  2.35031009810981
 6 -11.71141152145214  1.81164626772677  1.20161825352535
 6 -8.71270469216922 -0.74504254545455 -0.00936219721972
 6 -7.27403539313931 -0.53240508660866  0.03880158045805
 6 -6.44138815371537 -1.69571826062606  0.39728196449645
 6 -6.61069673137314  0.69178000790079 -0.24784333953395
 6 -5.26593653525353  0.88369040574057 -0.35509984018402
 6  12.10323957085709 -0.00157012751275  1.37039656775678
 6  11.62891018111811 -0.57792394759476 -1.24116799649965
 6  12.82589981808181 -1.39114334403440  1.50534526792679
 6  13.36392107880788 -1.91457599099910  0.14268823322332
 6  12.27755268996900 -1.94186869586959 -0.96161012351235
 6  11.11718860676068  0.08948369626963  0.05741292159216
 6  11.23358476337634  0.18943558555856  2.65044738493849
 6  13.20173329002900  1.14175739653965  1.36100915191519
 6  12.36990329652965  0.47449632293229 -2.00411435923592
 6 -4.76298279397940  2.10874338033803 -0.62594744364436
 6  9.91462264976498  0.58913971677168  0.19387821112111
 6 -3.34933009140914  2.49720847454746 -0.65304556525653
 6  8.67808759475948  0.96222255605561  0.19438509850985
 6 -3.08112979807981  3.96711817131713 -1.08296802890289
 6 -2.29377629272927  1.59730157885789 -0.53498603330333
 6  7.47520706320632  0.22380296829683  0.20617143304330
 6  7.65464020052005 -1.22218917101710  0.57553747664766
 6  6.20127147514751  0.75893282358236 -0.03184712071207
 6 -0.93686781828183  1.90150927462746 -0.53461163626363
 6  5.00444204700470  0.17669678577858  0.13809517831783
 6  0.07337381638164  0.93266657655766 -0.19139824262426
 6  3.81700110781078  0.94125447584758 -0.11559902890289
 6  1.46483842464246  1.28998072577258 -0.18736111701170
 6  2.52938083858386  0.38550785048505 -0.06570321242124
 6  2.23951381308131 -1.07665184548455  0.22942153575358
 1 -13.00729253005300 -2.72709568736874 -1.06536176017602
 1 -13.78104332803280 -1.28610259445945 -1.60848730343034
 1 -13.57017481968197 -0.09644257545755  2.24198688138814
 1 -13.89413880748075  0.51630675777578  0.55871353695370
 1 -14.52424972907291 -1.69654836823682  0.74632623692369
 1 -10.37288590549055 -2.70693747654766 -1.71189648504851
 1 -11.86550675957596 -2.19438422982298 -3.15665395159516
 1 -10.22788497199720 -1.11870107870787 -2.84094570707071
 1 -9.25212386718672  0.98340047104710 -0.91787559765977
 1 -10.14001532913291  0.10727199129913  2.36813255605560
 1 -11.55461082198220 -0.29813311171117  3.30463881398140
 1 -11.02657335103510 -1.54546142264226  2.23316410611061
 1 -12.37558010051005  2.33834995699570  0.42929614561456
 1 -11.95546178557856  2.16086166166617  2.11568528032803
 1 -10.61109139123912  2.10978156865687  1.00618491199120
 1 -12.13307638013801 -2.52399527312731  1.27784226312631
 1 -9.12444328622862 -1.59980833853385  0.46346544544454
 1 -5.68550799689969 -1.87523084818482 -0.42629067346735
 1 -5.84316673197320 -1.63270850345035  1.43623201940194
 1 -7.20928103870387 -2.59040131313131  0.35239138993899
 1 -7.24680599169917  1.49058738783878 -0.26787646414641
 1 -4.52564920962096 -0.06419780138014 -0.53676745244524
 1  13.81543722082208 -1.33433512091209  2.11617655825583
 1  12.07288246524652 -2.10178955895590  2.12688868856886
 1  13.66627898479848 -3.10423208820882  0.35038196409641
 1  12.76820425892589 -2.26480295879588 -1.71711480618062
 1  11.52846285448545 -2.80080920482048 -0.65078042014201
 1  12.06364597279728  0.17970833753375  3.63271831053105
 1  10.69946692439244  1.09112467556756  2.55773329752975
 1  10.48712633383338 -0.61490980548055  2.94407064826483
 1  13.85517241914191  1.27864648884888  0.49873393819382
 1  12.44422703590359  1.92676211401140  1.11997670337034
 1  13.78263410051005  1.23564804390439  2.30492697429743
 1  12.80525134463446 -0.14282089168917 -2.96559901180118
 1  11.66630369876988  1.17173926482648 -2.27858579347935
 1  13.25344617721772  0.81330738363836 -1.63289877527753
 1 -5.43658588248825  2.83283767056706 -0.54389580038004
 1  9.82626387698770 -0.10136879447945 -1.88708104390439
 1  15.18469131433143 -1.24151396579658  0.42403100240024
 1  8.39466131693169  1.97951027822782  0.07668039083908
 1 -2.52235731993199  4.49258570827083 -0.22627679797980
 1 -2.53242200650065  4.08333555835583 -2.03952706180618
 1 -3.94831121622162  4.52765094689469 -1.08857865936594
 1 -2.59564918501850  0.65249746174617 -0.19401235583558
 1  6.87262001190119 -1.94046360846085  0.41397388208821
 1  8.51702691719172 -1.68377310211021 -0.04920569466947
 1  8.09070899249925 -1.33785611401140  1.64613837473747
 1  6.04683983108311  1.96263006840684 -0.12785480518052
 1 -0.44433579057906  2.96914095759576 -0.47239715121512
 1  4.82198818521852 -0.83792028872887  0.56569925102510
 1 -0.20673959715972 -0.19596140904090 -0.06388377727773
 1  3.85568473637364  1.94688032423242 -0.33285551055105
 1  1.76485336053605  2.48919471137114 -0.37229992839284
 1  1.27910674547455 -1.23856046024602  0.46166516211621
 1  2.42241356615662 -1.71914821632163 -0.73673144314431
 1  2.90665736213621 -1.51801603060306  1.13544683128313
=======
>>>>>>> 6a1b998aacd80a23911c140f266e48a14f2d523d

