%nproc=3
%Mem=2GB
# td=(NStates=1) CAM-B3LYP/6-31G(d,p) 

TD

0 1
<<<<<<< HEAD
 8 -11.72092876047605  0.46119676807681 -1.37482464606461
 8 -12.90330116591659 -2.61653996199620  1.21052673767377
 8  10.60385590549055 -1.21657154505451 -1.99319304560456
 8  14.57812117881788 -0.97068579007901 -0.09217370477048
 6 -11.04393256045605 -0.06809076377638 -0.27855728012801
 6 -11.61498778847885 -1.08665984588459 -1.26203504380438
 6 -11.76965900890089  0.23769045184518  1.09314896989699
 6 -13.05815101880188 -1.68572873077308 -1.02592422642264
 6 -13.32163062106211 -0.15764321192119  1.03860854875488
 6 -13.50397683118312 -1.50286182398240  0.47122588988899
 6 -10.92336792549255 -1.66663208070807 -2.31865418371837
 6 -9.56925636943694  0.28305543934393 -0.14821177927793
 6 -11.09015499289929 -0.37650324632463  2.28864393149315
 6 -11.79555993629363  1.73471857495750  1.17423551525152
 6 -8.66008943064306 -0.61238928012801  0.12234097309731
 6 -7.23732172177218 -0.47069891599160  0.12574027432743
 6 -6.36850086498650 -1.68330701950195  0.43525576187619
 6 -6.59200486218622  0.72843367326733 -0.14491304650465
 6 -5.29720966256626  0.92186422312231 -0.23222755295530
 6  12.00266951385139  0.25167519701970  1.31423095119512
 6  11.66119340944094 -0.66002215741574 -1.19828370807081
 6  12.79014624272427 -1.10572480218022  1.57613234663466
 6  13.48258294499450 -1.77820235363536  0.38329229362936
 6  12.48897383208321 -1.83645815481548 -0.72454641714171
 6  11.10932782068207  0.10931567946795  0.09551673197320
 6  11.08104950985098  0.41410805280528  2.55437777797780
 6  12.85576869356936  1.39488270907091  1.08934198519852
 6  12.53404971117112  0.30867974127413 -2.04112806060606
 6 -4.77919441514151  2.23697620362036 -0.54650949984998
 6  9.87946913441344  0.51071187398740 -0.01876305300530
 6 -3.34924008240824  2.53676242994299 -0.47570783148315
 6  8.58056784278428  0.88021435523552 -0.20105444544454
 6 -2.84862654775478  4.00468192769277 -0.71032076417642
 6 -2.36732364746475  1.60876272497250 -0.37659019371937
 6  7.43793333583358  0.01988257625763  0.02734355025503
 6  7.70047478397840 -1.46755370747075  0.16380630353035
 6  6.24770611861186  0.61465839613961 -0.10244418041804
 6 -1.00762489398940  1.88461758545855 -0.33097127222722
 6  4.89968157095710  0.04577369346935 -0.03022165336534
 6 -0.03065658665867  0.74566787668767 -0.22090119291929
 6  3.78305771347135  0.77424777517752 -0.12009947894789
 6  1.31020296109611  1.00455218291829 -0.25175755665567
 6  2.45286318681868  0.19989928962896 -0.05394203630363
 6  2.08879874157416 -1.16982116241624  0.42141073467347
 1 -12.93344514531453 -2.75513849164916 -1.39208443244324
 1 -13.84627985168517 -1.03662764696470 -1.70786724142414
 1 -13.64922272447245 -0.21279421062106  2.19668235093509
 1 -13.83724311791179  0.66434156125613  0.49828749434943
 1 -14.54584188828883 -1.90893960736074  0.42072367666767
 1 -10.87972658955895 -2.68915569836984 -2.09296459185919
 1 -11.55881609050905 -1.88254304570457 -3.23113139933993
 1 -9.95397758125813 -1.20671988058806 -2.47435904840484
 1 -9.31311996679668  1.23522565356536 -0.59266307640764
 1 -10.08752007960796  0.06412767686769  2.43087883068307
 1 -11.61517687858786 -0.20033333173317  3.30203855395539
 1 -10.83812450615062 -1.49579645614561  2.14576536623662
 1 -12.25087763026303  2.18931505350535  0.35116833283328
 1 -12.35641188058806  2.13894947044704  1.97701141294129
 1 -10.75552583468347  2.03140373087309  1.38172246574657
 1 -11.90048312081208 -2.67066994059406  1.05806028492849
 1 -9.08981982388239 -1.60819917761776  0.41143024192419
 1 -5.90058950505050 -2.05411873697370 -0.42059010341034
 1 -5.83612602790279 -1.47586281888189  1.15970436663666
 1 -7.22532264286429 -2.51316358935894  0.90394654545455
 1 -7.30961227232723  1.50657898699870 -0.33279295579558
 1 -4.72805945064506  0.04944356275628 -0.07577135283528
 1  13.46244192129213 -1.05633732113211  2.35805074567457
 1  12.03283846084608 -1.90698007800780  1.84993099279928
 1  13.83246560346035 -2.72825449044904  0.70500742664266
 1  12.88973641214121 -2.53381986048605 -1.73642673737374
 1  11.84548455665567 -2.54489361326133 -0.17531287338734
 1  11.58023763196320  0.63589395609561  3.54719975867587
 1  10.39899687738774  1.21683724682468  2.45435295949595
 1  10.56738435963596 -0.52953126762676  2.54647088828883
 1  13.58947584948495  1.16903552775278  0.39398346314631
 1  12.45557817101710  2.49099853765377  1.06450115581558
 1  13.28093393049305  1.44874935403540  2.17575405700570
 1  12.95221604110411 -0.00891750135013 -2.98770122202220
 1  12.02891996039604  1.09111120202020 -2.32534046894689
 1  13.46364719731973  0.75583163606361 -1.53921940734073
 1 -5.43177540144014  3.10812519931993 -0.69842125292529
 1  10.18569982058206 -0.45090374797480 -2.51785412121212
 1  15.09902274747475 -0.93207302170217  0.76602520182018
 1  8.28647049784979  1.85236756395640 -0.49233651085108
 1 -2.36772185638564  4.44888133783378  0.32037786748675
 1 -2.28561732603260  3.94199142394239 -1.58303141224122
 1 -3.65725211031103  4.70168835063506 -1.05015481698170
 1 -2.72075169526953  0.44249646164616 -0.11407436203620
 1  6.83286603650365 -2.04841440354035 -0.04255177047705
 1  8.40136535103510 -1.72878760356036 -0.53453422752275
 1  8.00919084068407 -1.60144247264726  1.19766352725273
 1  6.30048519561956  1.75014882028203 -0.28008002770277
 1 -0.77858921592159  2.77780182368237 -0.61924183568357
 1  4.86910289668967 -0.95089158585859  0.25368804990499
 1 -0.50699962316232 -0.35094690759076 -0.34734212311231
 1  4.14587375527553  1.97297293349335 -0.49138136313631
 1  1.72501937713771  2.03321911381138 -0.47170986938694
 1  0.94832366716672 -1.41889849404941  0.48991798739874
 1  2.78604992979298 -1.71516781828183 -0.26971474147415
 1  2.52134883128313 -1.56269049804980  1.46456974357436
=======
>>>>>>> 6a1b998aacd80a23911c140f266e48a14f2d523d

