%nproc=3
%Mem=2GB
# td=(NStates=1) CAM-B3LYP/6-31G(d,p) 

TD

0 1
 8 -11.77672434003400  0.27298794719472 -1.58876604020402
 8 -13.10838167396740 -2.33229153715372  1.43701938693869
 8  10.70513603350335 -0.99075896379638 -2.15934966126613
 8  14.63540690739074 -0.96860558205821 -0.12086657405741
 6 -11.07596576377638 -0.05882983768377 -0.38411783618362
 6 -11.66115240494049 -1.17127830773077 -1.18587742804280
 6 -11.86517856085609  0.44959164196420  0.91059071407141
 6 -13.01923712741274 -1.76251640954095 -0.89309094309431
 6 -13.43846230423042  0.07105965836584  0.78042273017302
 6 -13.70915734923492 -1.41875341314131  0.43720248754876
 6 -10.89307489618962 -2.00228564606461 -2.23684600290029
 6 -9.57802724652465  0.15040217401740 -0.38915587368737
 6 -11.25473145054505 -0.04505010101010  2.13620868796880
 6 -11.78739912021202  1.98793389648965  0.76593468516852
 6 -8.59712313401340 -0.72394043524352  0.21491023002300
 6 -7.19399738933893 -0.60014186028603  0.25604330463046
 6 -6.45147916281628 -1.86445513431343  0.67539977627763
 6 -6.60731639333933  0.51940277017702  0.04806625142514
 6 -5.16822676427643  0.85600763746375 -0.00459478967897
 6  12.06145539243924  0.05927595709571  1.37814734283428
 6  11.67633492359236 -0.42343849904991 -1.30442432213221
 6  12.72854008210821 -1.25186941664166  1.43765849924993
 6  13.52068675537554 -1.81036556995700  0.18323228762876
 6  12.55051998669867 -1.76586109510951 -0.98891285378538
 6  11.11100798869887  0.04666941484148  0.04808198849885
 6  11.07419882478248  0.20873751575158  2.55620796099610
 6  12.99834295099510  1.23290651145115  1.42158520952095
 6  12.40752705890589  0.66375524882488 -2.08161210901090
 6 -4.70403689938994  2.13706621262126 -0.34865971487149
 6  9.94604579207921  0.50327112991299 -0.00184136083608
 6 -3.37996315471547  2.48312706640664 -0.37982824352435
 6  8.67739752575257  0.91494782858286 -0.08898323832383
 6 -2.99568125322532  3.82497395689569 -0.69873960606061
 6 -2.32041895699570  1.56207805650565 -0.19775230993099
 6  7.45035457795780  0.07144773277328  0.03567438333833
 6  7.68715345184518 -1.42247920002000  0.26430635353535
 6  6.24078542654265  0.65714264456446  0.00041610561056
 6 -1.01678581008101  1.79670879457946 -0.34550272537254
 6  5.01215281808181  0.03207232333233  0.08347971677168
 6  0.08777525652565  0.89737304720472 -0.22279138193819
 6  3.83643305100510  0.72811316171617 -0.08249571857186
 6  1.37418935973597  1.12632436013601 -0.29465184608461
 6  2.45212311281128  0.23114241394139  0.01455481338134
 6  2.23154301600160 -1.25998017831783  0.24803339693969
 1 -12.92059386018602 -2.78691166896690 -1.14122934693469
 1 -13.70357558125813 -1.50679466366637 -1.76420287498750
 1 -13.89799760196020  0.43951101990199  1.68215089778978
 1 -14.03504289788979  0.59676480358036 -0.06543887828783
 1 -14.57133443754375 -1.78799751315132  0.47126873117312
 1 -10.73106172307231 -2.86266304910491 -1.78756405180518
 1 -11.80814102300230 -2.06337112851285 -3.00337862406241
 1 -10.04604678817882 -1.54035324392439 -2.78109972247225
 1 -9.33121177597760  1.08899103010301 -0.72713652375238
 1 -10.24487581518152  0.49502076617662  2.24951069386939
 1 -11.87485284618462  0.19919662126213  2.95824417451745
 1 -11.16488718241824 -1.12771964846485  2.35968675837584
 1 -12.17631017351735  2.45246136813681 -0.13170995499550
 1 -12.38848508790879  2.52283785928593  1.47358106990699
 1 -10.75770605270527  2.47176776727673  0.77761205470547
 1 -12.20088316081608 -2.50733360696070  1.39565404430443
 1 -9.10825166706671 -1.68856721442144  0.80166926582658
 1 -5.75402484858486 -2.29384270937094 -0.21097914231423
 1 -5.82039445474547 -1.55112034463446  1.51344974117412
 1 -7.13693380398040 -2.60979325232523  0.97342349314932
 1 -7.16811812291229  1.32476080518052 -0.21047072357236
 1 -4.56295293999400  0.13985260366037  0.30351657595760
 1  13.52515819291929 -1.29883157055706  2.12562750335033
 1  12.00630580758076 -1.93641302130213  1.71870787048705
 1  13.92886524342434 -2.79767143214321  0.39002592849285
 1  13.10610804930493 -2.03842032053205 -1.82001509620962
 1  11.52106211441144 -2.43595271917192 -0.94035937803780
 1  11.61487109530953  0.15750611731173  3.45538057675768
 1  10.54696167386739  1.29575513861386  2.52222974717472
 1  10.41860948214821 -0.57910622512251  2.70961720292029
 1  13.85620252215222  1.09705833003300  0.61805587038704
 1  12.38657127032703  2.15914535233523  1.54828953465346
 1  13.44413025012501  1.19123360246025  2.28053453505351
 1  12.46230705020502  0.38126151655166 -3.05864831673167
 1  11.80849791819182  1.59145123602360 -1.89928786368637
 1  13.38598943154315  0.74485053795380 -1.78926441184118
 1 -5.46630885478548  2.91550593739374 -0.51259267006701
 1  10.00414166476648 -0.32653131073107 -2.40367270307031
 1  15.19459230443044 -0.80472028642864  0.64183278257826
 1  8.34681653245325  1.99266159335934 -0.25129240644064
 1 -2.35235031923192  4.40113656335634  0.31578740844084
 1 -2.53324208850885  3.90136736153615 -1.61703481258126
 1 -3.86568295339534  4.33635181698170 -0.92438223972397
 1 -2.64106372647265  0.57312952495250  0.14284132953295
 1  6.76984973487349 -1.81670123222322  0.37726021072107
 1  8.17789300380038 -1.74352907770777 -0.64052482658266
 1  8.24224414601460 -1.52006433483348  1.11233499439944
 1  6.38191333843384  1.70058386378638 -0.47883990369037
 1 -0.65210656765677  2.63007705120512 -0.64793470497050
 1  4.87974396079608 -0.87678417511751  0.43918659975998
 1 -0.30945986918692 -0.11623343624362 -0.26853424232423
 1  4.08677784568457  1.70681631783178 -0.42692491749175
 1  1.57808468366837  2.04058985088509 -0.56048874727473
 1  1.14063289808981 -1.49025562976298  0.38900789638964
 1  2.83020434523452 -1.87939424092409 -0.54121189118912
 1  2.71033773017302 -1.64359858885889  1.17796108270827

