%nproc=3
%Mem=2GB
# td=(NStates=1) CAM-B3LYP/6-31G(d,p) 

TD

0 1
<<<<<<< HEAD
 8 -11.82835950355036  0.56380702910291 -1.17725488908891
 8 -12.97903873967397 -2.61659996799680  1.14031971697170
 8  10.56586210611061 -1.23590347824782 -2.01372509880988
 8  14.47714108080808 -0.78015673717372 -0.14815930333033
 6 -11.05097326452645 -0.14027798249825 -0.21275069946995
 6 -11.71042733243324 -0.96590777067707 -1.28060690099010
 6 -11.76202824582458  0.24056073887389  1.23829348434843
 6 -13.04904010771077 -1.64230438833883 -1.05412704670467
 6 -13.26356481448145 -0.07370481808181  1.21081576947695
 6 -13.49552598609861 -1.48828036583658  0.42577134443444
 6 -10.90692628132813 -1.56656207370737 -2.39667198549855
 6 -9.54247369116912  0.05987312111211 -0.35572253035304
 6 -11.04673065046505 -0.48420401640164  2.38004307140714
 6 -11.67158753905390  1.74178928202820  1.39247733943394
 6 -8.64844826652665 -0.77008504970497  0.17698643764376
 6 -7.17096508610861 -0.57733958005801  0.12777047734773
 6 -6.29012302720272 -1.80358904770477  0.30870310661066
 6 -6.56673233493349  0.61698252815282 -0.11813036823682
 6 -5.16950689228923  0.76918895559556 -0.46567089728973
 6  11.87283653055306  0.05039506900690  1.40443997209721
 6  11.59821711181118 -0.75980213541354 -1.20549442914291
 6  12.60539776787679 -1.35511974167417  1.53076781018102
 6  13.44905959265927 -1.76835136853685  0.36037000140014
 6  12.54624955965597 -1.94470897989799 -0.87213117561756
 6  11.05582247014701 -0.10223547564756  0.05447262756276
 6  10.90738214311431  0.09151579357936  2.53986632683268
 6  12.78271138783878  1.31568478927893  1.30916396739674
 6  12.37785409160916  0.35611448474847 -2.00577452525253
 6 -4.65996249194919  2.08509101510151 -0.61751660056006
 6  9.88550973847385  0.52417322012201 -0.12734391109111
 6 -3.33218837723772  2.47764651835184 -0.76182644334433
 6  8.71844163016302  1.00974730853085 -0.29374371437144
 6 -3.02625431053105  3.95390685018502 -1.13911364346435
 6 -2.29678659375938  1.64601645034503 -0.40827336203620
 6  7.41104064656466  0.17175776377638 -0.07235641974197
 6  7.71229596609661 -1.21583853595360  0.53725364826483
 6  6.25149649764976  0.79024595489549 -0.13539747574757
 6 -0.95195932743274  1.90935005870587 -0.52624079917992
 6  5.01123272607261  0.18777789388939  0.09180054885489
 6  0.02199867886789  1.02148545844584 -0.07932703550355
 6  3.68128753645365  0.84340469086909 -0.11198866786679
 6  1.38114005480548  1.23676540424042 -0.20367274817482
 6  2.44051195169517  0.32099139883988 -0.00847748984899
 6  2.35438530023002 -1.11565574587459  0.62733132673267
 1 -13.08718051885188 -2.79052203000300 -1.32520774477448
 1 -13.68868409210921 -1.18852283648365 -1.82948940364036
 1 -13.73349115131513  0.03739080788079  2.25213789648965
 1 -14.05222461606161  0.47091221832183  0.62875054065407
 1 -14.61696900100010 -1.69849856325632  0.29639124342434
 1 -10.27019563646365 -2.39970675347535 -2.06184147954795
 1 -11.38100830973097 -1.69572436383638 -3.33056134233423
 1 -9.90774295779578 -0.89648885748575 -2.56497811031103
 1 -9.25904455925593  0.86652878387839 -0.62959676977698
 1 -10.03393472107211 -0.05780451635163  2.62120786358636
 1 -11.34074943584358 -0.34275757415741  3.41474982508251
 1 -11.00757145084508 -1.65380225672567  2.20611140084008
 1 -12.06592913541354  2.18755487748775  0.53291650765076
 1 -12.14578081748175  2.11103667916792  2.38051176297630
 1 -10.78170845294530  2.14896548704871  1.40416470997100
 1 -12.08122119461946 -2.83878675227523  0.94295877477748
 1 -9.18725956785678 -1.62084044174417  0.62830192909291
 1 -5.76329577567757 -2.04968829392939 -0.41378942334233
 1 -5.53987640294029 -1.48670390299030  1.04866326252625
 1 -7.00162027262726 -2.50874314731473  0.90898704950495
 1 -7.19049036013601  1.59739806890689 -0.17068674517452
 1 -4.48266491119112  0.04092271067107 -0.65237901360136
 1  13.33266894399440 -0.98180986838684  2.36443138373837
 1  12.02252742974297 -2.20920030003000  1.96755275497550
 1  13.94750710761076 -2.68382004700470  0.63947087298730
 1  13.04295173367337 -2.32602908140814 -1.73500659535954
 1  11.74929493769377 -2.87759688358836 -0.49524486658666
 1  11.34610421862186  0.27111747844785  3.43901894059406
 1  10.21007798549855  0.73750931403140  2.18581610581058
 1  10.24524214541454 -0.79040735523552  2.54695093629363
 1  13.58669557145715  1.55174379857986  0.51418548334833
 1  12.15462807600760  2.22264170197020  1.62280698639864
 1  13.42232806990699  1.16766124522452  2.40413689528953
 1  12.87693851335134 -0.13021963156316 -2.80818327022702
 1  11.82443951235124  1.23030512141214 -2.19149708460846
 1  13.32828366096610  0.59117517041704 -1.24328981438144
 1 -5.50418264216422  2.81757614441444 -0.88991040184018
 1  10.15034628522852 -0.34496315391539 -2.33062539833983
 1  15.04542738793879 -0.84031384578458  0.54244284358436
 1  8.64959681048105  1.90096242344234 -0.51157843504350
 1 -2.79989507370737  4.74585103480348 -0.22829700000000
 1 -2.29406817111711  4.01443866866687 -1.83282639173917
 1 -3.97065345044504  4.15852403420342 -1.44882468396840
 1 -2.59704932503250  0.59185139713971 -0.10314326892689
 1  6.79421217111711 -1.77521708380838  0.31478396309631
 1  8.35824103860386 -1.71376610141014  0.03317254315432
 1  7.97132705430543 -1.26009833823382  1.55862962386239
 1  6.28081322842284  1.75844965036504 -0.36828884858486
 1 -0.52758411541154  2.75158920242024 -0.71921183268327
 1  5.01478746514651 -0.81138763546355  0.38494117521752
 1 -0.40694961816182  0.13499168626863  0.48264087518752
 1  3.90013918181818  1.95358099429943 -0.54976720172017
 1  1.50199707490749  2.17188298019802 -0.58875157355736
 1  1.21333016781678 -1.16793339753975  0.72680167576758
 1  2.64349567436744 -1.93139944144414 -0.15460323032303
 1  2.87258395479548 -1.11684591359136  1.68430171677168
=======
>>>>>>> 6a1b998aacd80a23911c140f266e48a14f2d523d

