%nproc=3
%Mem=2GB
# td=(NStates=1) CAM-B3LYP/6-31G(d,p) 

TD

0 1
 8 -11.66099276687669  0.24201484988499 -1.60442760636064
 8 -13.15551638743874 -2.31199950795079  1.46979266426643
 8  10.59967548744875 -1.01569145704570 -2.04491821812181
 8  14.52283565026503 -1.01939066056606 -0.04466895429543
 6 -11.04712287948795 -0.28667262196220 -0.34564398879888
 6 -11.67889417911791 -1.20721190109011 -1.24792363266327
 6 -11.80603264626463  0.34909159195920  0.92449210421042
 6 -13.04145934963496 -1.74421457935794 -0.96184781878188
 6 -13.36850530853085  0.01157370977098  0.93007769566957
 6 -13.57470390389039 -1.37629916771677  0.42144091139114
 6 -10.66465205390539 -2.07317273477348 -2.17293961226123
 6 -9.61617106090609  0.04498163196320 -0.33378033613361
 6 -11.11009698709871 -0.28284388038804  2.28277334443444
 6 -11.61520190049005  1.73057816091609  0.94805289698970
 6 -8.58691211291129 -0.75957399859986  0.14022276127613
 6 -7.26716470607061 -0.58492033813381  0.22623032333233
 6 -6.28036205110511 -1.67379606840684  0.66103834013401
 6 -6.59394505620562  0.65565639553955 -0.09474803000300
 6 -5.12936287788779  0.86021805850585 -0.07786211641164
 6  11.85380462736274 -0.09033900440044  1.34298382648265
 6  11.65423271337134 -0.58032418761876 -1.16646052575258
 6  12.61526875497550 -1.34736896659666  1.50318505190519
 6  13.34113880058006 -1.86893142654265  0.24364832923292
 6  12.54591952665266 -1.87097160616062 -0.94153811631163
 6  11.00192708060806 -0.10166541864186  0.06059323962396
 6  11.03737514241424  0.10500714271427  2.60447278747875
 6  12.88224134083408  1.13036625742574  1.22742579357936
 6  12.46175248144814  0.49959883318332 -1.92048599639964
 6 -4.64710120582058  2.17029953595360 -0.44435928482848
 6  9.78398958645865  0.46140694349435  0.01284010731073
 6 -3.33206836523652  2.56155490919092 -0.44670493119312
 6  8.61303108910891  0.97596393019302 -0.18199253925393
 6 -3.03723540864086  3.95004646414642 -0.76836656875688
 6 -2.23792070717072  1.70438228692869 -0.16910944564456
 6  7.42060160266027  0.14391497949795 -0.06388557265727
 6  7.56728146464646 -1.29347629972997  0.19917984088409
 6  6.19823117111711  0.82194912521252 -0.16691062706271
 6 -0.94813894539454  1.90308943264326 -0.36063423852385
 6  4.96982858565857  0.33238235433543 -0.04725335653565
 6  0.00606708570857  0.90728403830383 -0.27110621342134
 6  3.79234864256426  0.94285463586359 -0.03922139113911
 6  1.32499444024402  1.29943167086709 -0.18006038693869
 6  2.50760866136614  0.42535183488349 -0.04768141024102
 6  2.31891175287529 -1.14431861216122  0.05391398499850
 1 -12.99462126292629 -2.86065904370437 -0.95548077207721
 1 -13.76174139783978 -1.54552853705371 -1.94283073777378
 1 -13.84618242044204  0.11224829362936  1.94289697239724
 1 -13.82935232883288  0.57112223932393  0.20933859945995
 1 -14.49050635473547 -1.62890160356036  0.37017862216222
 1 -10.15491410831083 -2.92862964576458 -1.58272356775678
 1 -11.36973718261826 -2.54626941834183 -3.00399868606861
 1 -9.75858804230423 -1.47896710531053 -2.59618123062306
 1 -9.31392004680468  1.18689082008201 -0.58621243134313
 1 -10.17068839643964  0.15065632973297  2.39033477627763
 1 -11.93601896279628  0.25110181178118  3.12989133923392
 1 -10.98006870057006 -1.27181405790579  2.44647543724372
 1 -11.90629317181718  2.12139826182618 -0.03123990799080
 1 -12.19421566096610  2.22965854135414  1.71882559435944
 1 -10.67425770787079  2.15186577707771  1.26725101860186
 1 -12.30457352985298 -2.69623249684969  1.19496397529753
 1 -9.05163600550055 -1.72644100180018  0.52336143504350
 1 -5.48589803590359 -2.17695102020202 -0.09981802620262
 1 -5.66280869616962 -1.27872310491049  1.49546794299430
 1 -6.82284239483948 -2.52254452745275  1.00452660346035
 1 -7.10304161526153  1.46704503360336 -0.15347502400240
 1 -4.50133677837784  0.03556217461746  0.21695792009201
 1  13.50729640674067 -1.20250193759376  2.33164810541054
 1  12.01972714971497 -2.12955233523352  1.85966196589659
 1  13.67988034493449 -2.95784744974497  0.38847577347735
 1  13.26441387988799 -2.20844732323232 -1.86029912461246
 1  11.74725473367337 -2.62310143404340 -0.98519386148615
 1  11.60420002820282  0.00987135383538  3.55744078277828
 1  10.67862484018402  1.10685624872487  2.31073859805981
 1  10.14834245544555 -0.57462577707771  2.56808304950495
 1  13.63637053895390  0.95606423062306  0.42095616041604
 1  12.48117073027303  2.19688912671267  1.31163586928693
 1  13.44204004110411  1.06598107720772  2.35741222282228
 1  12.62596341584158 -0.06730333993399 -2.80133258515852
 1  11.91623869226923  1.41626371727173 -1.97079501440144
 1  13.28477931053105  0.88242429532953 -1.43461894729473
 1 -5.38502072597260  2.77177156395640 -0.83086449724972
 1  10.22431368196820 -0.17960661826183 -2.26124846064606
 1  15.26984983018302 -0.96449626402640  0.67546614591459
 1  8.73513536433643  2.00661298849885 -0.52695997319732
 1 -2.41680676487649  4.36539298899890  0.08287411711171
 1 -2.68968773307331  4.13591081588159 -1.74289739883988
 1 -3.91815820092009  4.66770495229523 -0.59734953645364
 1 -2.57962758285829  0.68986119811981  0.19448649404940
 1  6.44421717161716 -1.65016457855786  0.35705819051905
 1  8.39635484998500 -1.81613633843384 -0.44945571967197
 1  7.86775669726973 -1.28758108650865  1.25328908980898
 1  6.22502764986499  1.88339214461446 -0.28534055375538
 1 -0.69996135313531  2.94667871137114 -0.41541145264526
 1  5.16039202560256 -0.89260575727573  0.10719340044004
 1 -0.49004792799280 -0.00599241214121 -0.37524491339134
 1  3.69237840574057  2.07733336953695 -0.00054227922792
 1  1.50961783698370  2.60054584648465 -0.28892159055906
 1  1.20745958075808 -1.16562316651665  0.54797379297930
 1  2.50222154695470 -1.78780508200820 -0.90032780278028
 1  3.17652434883488 -1.56968119711971  0.74732801940194

