%nproc=3
%Mem=2GB
# td=(NStates=1) CAM-B3LYP/6-31G(d,p) 

TD

0 1
 8 -11.78905557315731  0.37396804520452 -1.40445760936094
 8 -12.95877671347135 -2.69591789978998  1.44183986898690
 8  10.72934845474547 -0.96735662356236 -2.09679340564056
 8  14.52629599629963 -1.19183790529053  0.02884839743974
 6 -11.02344051125112 -0.07462141684168 -0.25656508090809
 6 -11.67502379207921 -1.07509868976898 -1.17723656395640
 6 -11.72609465246525  0.28661534433443  1.10628028302830
 6 -12.98303350705070 -1.73618377627763 -0.81657329132913
 6 -13.15637409540954 -0.16912436003600  1.18476316421642
 6 -13.44957139063906 -1.61986352415242  0.57125589288929
 6 -10.82189777847785 -1.75996141364136 -2.25811813011301
 6 -9.56798624242424  0.16192332613261 -0.34666162426243
 6 -10.86146212361236 -0.31867746374637  2.35402046914691
 6 -11.76869725002500  1.77017212031203  1.20202829452945
 6 -8.58943236493649 -0.67532557375738  0.12632137113711
 6 -7.16533452305231 -0.57177902400240  0.06661436173617
 6 -6.39431344624462 -1.86082477127713  0.32149438573857
 6 -6.60215587728773  0.68306913681368 -0.18164671987199
 6 -5.22701264286429  0.96365840254025 -0.15754008420842
 6  11.80223947084709 -0.00246021652165  1.47251677977798
 6  11.71683897399740 -0.60178633383338 -1.12862674237424
 6  12.61054828292829 -1.29734396409641  1.63577831123112
 6  13.33546823352335 -1.95986051945194  0.40583454785479
 6  12.42678761346134 -1.95401991099110 -0.76102006450645
 6  11.13282016991699 -0.01971722382238  0.11916909720972
 6  10.91079248414841  0.20045668766877  2.60104244444444
 6  12.86080919761976  1.24523774457446  1.54250730173017
 6  12.67461376757676  0.41040991429143 -1.83527747554755
 6 -4.76539303500350  2.20422292829283 -0.41056590549055
 6  9.84452564006401  0.53403420622062 -0.01059223592359
 6 -3.42341750015001  2.55568432213221 -0.57180744144414
 6  8.67083686968697  0.96717305110511 -0.27026136613661
 6 -3.14957664276428  3.98804026352635 -0.88208794089409
 6 -2.31129804490449  1.67458930763076 -0.49024155885589
 6  7.36448599109911  0.20582117011701 -0.05051423552355
 6  7.60019475597560 -1.27288424052405  0.16948687158716
 6  6.19888123612361  0.86140307060706 -0.26916085208521
 6 -0.94005813731373  1.96161528522852 -0.54723289838984
 6  4.94166576937694  0.16105522162216 -0.18943757495750
 6  0.01079755875588  1.03009631953195 -0.38284738753875
 6  3.73650305800580  0.89405975637564 -0.30125759475948
 6  1.38233017381738  1.25801752945295 -0.42245462636264
 6  2.41698959945995  0.40525982568257 -0.15111175327533
 6  2.26913677537754 -1.15192937323732  0.07126572017202
 1 -13.17407920872087 -2.81483446124612 -1.14120934493449
 1 -13.88775399909991 -1.13908789298930 -1.39323577827783
 1 -13.43917171937194 -0.23942687388739  2.28940162286229
 1 -13.75711510511051  0.45437056415642  0.61610927652765
 1 -14.66510381448145 -1.64413312671267  0.55992759705971
 1 -10.59252786968697 -2.77275405820582 -1.87794308970897
 1 -11.61344155305531 -1.81577636903690 -3.14553283948395
 1 -10.07903008650865 -1.15079428802880 -2.62160377287729
 1 -9.21736039083908  1.16609874087409 -0.55599941004100
 1 -9.78898022562256  0.20187145124512  2.24368011081108
 1 -11.43189855075508 -0.27588088648865  3.33130148024802
 1 -10.87998869256926 -1.49768664516452  2.14282507220722
 1 -12.32537508000800  2.28788491049105  0.38713192919292
 1 -12.23075931533153  2.21124670017002  2.28990270207021
 1 -10.69380966306631  2.08301889238924  1.24991928542854
 1 -11.90622369486949 -2.59777265086509  1.53510798969897
 1 -9.18950979287929 -1.55316367406741  0.44147324622462
 1 -5.89234868096810 -2.13503682878288 -0.61845989038904
 1 -5.76106852215221 -1.93155838843884  1.12408080428043
 1 -7.15607571817182 -2.50783305630563  0.53110926172617
 1 -7.31002231333133  1.52852118121812 -0.18275795229523
 1 -4.53951059575958 -0.06362774437444  0.02101832613261
 1  13.38306398349835 -1.13599528692869  2.45787072767277
 1  11.95905108210821 -2.16978635863586  2.09275527522752
 1  13.60739309620962 -2.87346901190119  0.86446337223722
 1  13.09428686718672 -2.40847732623262 -1.73275637033703
 1  11.69716972517252 -2.56748587248725 -0.45809115121512
 1  11.33806341454146  0.16868723542354  3.57706274497450
 1  10.49894687238724  1.08072363546355  2.67015453965397
 1  10.02777039823982 -0.59318763326333  2.59843608480848
 1  13.53742064396440  1.07447607180718  0.72135620042004
 1  12.22041465466547  2.22384182198220  1.35903060876088
 1  13.42805864296430  1.24607908700870  2.44341082268227
 1  12.99815063456346 -0.15578218781878 -2.64098655055506
 1  12.15554262266227  1.33459555045505 -2.21988992389239
 1  13.36802763536354  0.67315336823682 -1.27074255965597
 1 -5.62030425432543  2.84878926572657 -0.79571098189819
 1  10.02360361096110 -0.17362602020202 -2.07550988678868
 1  14.98992183738374 -1.24394420882088  0.85772437173717
 1  8.22003385418542  2.04050637783778 -0.35906318351835
 1 -2.59300438463846  4.82207865756576 -0.11045521582158
 1 -2.55259402370237  3.90247747254725 -1.70759386848685
 1 -4.08035442054205  4.54203238503850 -1.12274207570757
 1 -2.70750037013701  0.74439665166517 -0.34628758335834
 1  6.83782653255325 -1.97117667976798 -0.19562707800780
 1  8.69546476097610 -1.70291501630163 -0.14031480558056
 1  7.63918383998400 -1.53458578697870  1.28565232613261
 1  6.36189133623362  1.84438824422442 -0.61071309100910
 1 -0.49099045604560  2.92267631113111 -0.36547645914591
 1  4.76174216061606 -0.96889338603860 -0.09172649154915
 1 -0.25819474267427 -0.01027284018402 -0.24497188608861
 1  4.05230439833983  1.99746538273827 -0.19275150015001
 1  1.49338621382138  2.17133292519252 -0.82051474987499
 1  1.24732356715672 -1.56494309850985 -0.14476548094809
 1  2.85968729352935 -1.73039934143414 -0.57847561756176
 1  2.29756645304531 -1.43629785878588  1.08561184778478

