%nproc=3
%Mem=2GB
# td=(NStates=1) CAM-B3LYP/6-31G(d,p) 

TD

0 1
<<<<<<< HEAD
 8 -11.90401706930693  0.42014266266627 -1.33213037663766
 8 -12.92457329312931 -2.46965527352735  1.42799848484848
 8  10.66312183208321 -1.04330421832183 -2.00650437673767
 8  14.60517388408841 -0.85612433393339 -0.09322380978098
 6 -11.05889405660566 -0.13974792949295 -0.16912633703370
 6 -11.76289257895789 -1.04714589448945 -1.25136397669767
 6 -11.68010005300530  0.33160984378438  1.16859651465147
 6 -13.14006921062106 -1.65714587248725 -0.77402903690369
 6 -13.11355981398140 -0.10690813841384  1.17555224312431
 6 -13.47173360686069 -1.42805434323432  0.69522829012901
 6 -11.01169675837584 -1.70250566806681 -2.34143646194619
 6 -9.52055149894989  0.15997313111311 -0.30560751885189
 6 -10.86027200460046 -0.42602819881988  2.28598366546655
 6 -11.50328070837084  1.88297340044004  1.38883697539754
 6 -8.68064148584858 -0.69815785698570  0.09290802980298
 6 -7.21474946454645 -0.61115296139614 -0.18597089678968
 6 -6.31207522242224 -1.71963065186519  0.09665190149015
 6 -6.66551221292129  0.66066689658966 -0.41532008720872
 6 -5.32975291689169  0.90801283798380 -0.35277960816082
 6  11.91251049794979  0.05854588408841  1.47520704880488
 6  11.66704399449945 -0.55362151735174 -1.17663154285429
 6  12.72822005010501 -1.22989721942194  1.52854758815882
 6  13.56037072377238 -1.75546007940794  0.33913787818782
 6  12.49357429212921 -1.85100960996100 -0.91152511501150
 6  11.09297618551855  0.11951669956996  0.13344052435244
 6  10.98891029592959  0.08534517651765  2.66730907110711
 6  12.87239035573557  1.35030825162516  1.58644169516952
 6  12.44285059125913  0.42267114041404 -1.96184013181318
 6 -4.76820331603160  2.20810331633163 -0.50836568546855
 6  9.85821700920092  0.49036983978398  0.06855567886789
 6 -3.32506766516652  2.47102585628563 -0.66927718841884
 6  8.61473125912591  0.89226556035604 -0.06907124712471
 6 -2.95302698779878  3.89928138763876 -0.90043977607761
 6 -2.41113802890289  1.42713456215622 -0.41249378407841
 6  7.40686022852285  0.15850643864386  0.08243905980598
 6  7.60807554405441 -1.32042899499950  0.27930785368537
 6  6.12727407540754  0.74239116941694 -0.05091902790279
 6 -1.01648578007801  1.69808893259326 -0.54742291739174
 6  4.92726432923292  0.14505362146215 -0.00419905110511
 6 -0.05159868086809  0.76799010891089 -0.35556465926593
 6  3.74268367606761  0.85405575597560 -0.31714918391839
 6  1.32965490629063  1.03981570927093 -0.38429080998100
 6  2.42770067056706  0.22992229192919 -0.17549419151915
 6  2.19445930763076 -1.18819299959996  0.33226181978198
 1 -13.03485528632863 -2.68133111091109 -1.11509673367337
 1 -13.68186341004100 -1.10063404760476 -1.32381883658366
 1 -13.35993379557956  0.20233730253025  2.12042472517252
 1 -13.59726912051205  0.70512563966397  0.43479114471447
 1 -14.62421972607261 -1.42127084048405  0.94014561886189
 1 -10.75699431633163 -2.78181496429643 -1.78468376377638
 1 -11.65360556945695 -1.74479927132713 -3.04503278947895
 1 -10.03420560406041 -1.21273048164816 -2.64919653215321
 1 -9.50729938473847  1.20954308530853 -0.63409721982198
 1 -9.77959928752875 -0.02222095799580  2.19538528132813
 1 -11.05221058195820 -0.13597689608961  3.22032038213821
 1 -10.84923561726173 -1.44373124962496  2.47312810251025
 1 -11.80798334083408  2.08811493349335  0.35748896489649
 1 -12.00299653905391  2.34277985348535  2.26082979477948
 1 -10.38611889398940  1.99472006250625  1.49112340584058
 1 -12.04298737123712 -2.52599547314732  0.97670214911491
 1 -8.93964480638064 -1.44124248194819  0.51526062496250
 1 -5.59929937603760 -1.90698402350235 -0.75479352375238
 1 -5.94279669496950 -1.69772500510051  1.36724512071207
 1 -6.90294040464046 -2.76437871087109 -0.05941979117912
 1 -7.16297760886089  1.67222555165517 -0.43332300880088
 1 -4.78307495219522  0.08298691709171 -0.41842561826183
 1  13.30638631573157 -1.23690537793779  2.24081902250225
 1  12.10333551055106 -2.04471385138514  1.82007800750075
 1  13.98133048994899 -2.76111777677768  0.56378330423042
 1  12.99886732523252 -2.29381586008601 -1.86889998469847
 1  11.82578258645865 -2.62476160006001 -0.54750009210921
 1  11.45113472167217  0.21191155785579  3.65895093379338
 1  10.38159513721372  1.00075563866387  2.40105762996300
 1  10.04791241244124 -0.70060837533753  2.84207044824483
 1  13.76819372127213  1.35557418161816  0.85675974077408
 1  12.41534414761476  2.19053849164917  1.26044074977498
 1  13.44686052315231  1.33211769086909  2.50829731133113
 1  12.46425724522452 -0.07778438803880 -3.07834028592859
 1  11.70764783318332  1.23189528042804 -2.00473840874087
 1  13.34608544114411  0.83316936983698 -1.70146563196320
 1 -5.40006223012301  3.10304469126913 -0.57994940574057
 1  10.14652590319032 -0.24814347194719 -2.09827216301630
 1  15.35148799399940 -1.10798061246125  0.52318091739174
 1  8.49056090689069  2.11647397459746 -0.16359363656366
 1 -2.62784786898690  4.39446589628963 -0.19717388768877
 1 -2.30815958025803  4.13154037883788 -1.75116822592259
 1 -3.92026841194119  4.53386156795680 -1.30587038853885
 1 -2.76341596169617  0.41919413141314 -0.13581653625363
 1  6.65425817571757 -1.97487704980498  0.20602308700870
 1  8.36835204970497 -1.80512523732373 -0.46636741084108
 1  8.03330325192519 -1.41850417881788  1.15205896679668
 1  6.05383053015301  1.70549435483548 -0.46036805650565
 1 -0.63709506650665  2.67400144364436 -1.00057996949695
 1  4.91432741914191 -1.00518701540154  0.15634831593159
 1 -0.44971389458946 -0.27653946684668 -0.19520690959096
 1  3.84037320522052  1.94578021422142 -0.46368859385939
 1  1.62221909710971  2.07270306220622 -0.77246994539454
 1  1.14493332813281 -1.42709931413141  0.37479647524752
 1  2.93492481728173 -2.13360966246625  0.02573480348035
 1  2.55290198659866 -1.08977320632063  1.40732401900190
=======
>>>>>>> 6a1b998aacd80a23911c140f266e48a14f2d523d

