%nproc=3
%Mem=2GB
# td=(NStates=1) CAM-B3LYP/6-31G(d,p) 

TD

0 1
 8 -11.58503517111711  0.28986963536354 -1.57151431503150
 8 -13.11807264306431 -2.44098240624062  1.16366205120512
 8  10.64975049494950 -1.12073196109611 -2.04921864816482
 8  14.61314468116812 -1.09468819031903 -0.08323281068107
 6 -11.03839200640064 -0.21838579327933 -0.32183160756076
 6 -11.68681497119712 -1.16168734863486 -1.29990883118312
 6 -11.75108715171517  0.28169485228523  0.89314896989699
 6 -13.08941414511451 -1.67656781468147 -1.07567920192019
 6 -13.31248970697070 -0.03792123972397  0.82327701560156
 6 -13.69662609610961 -1.44831636943694  0.27458622592259
 6 -10.71944753345335 -1.95293071057106 -2.08244056235624
 6 -9.55779522332233  0.05031216501650 -0.28157511561156
 6 -11.22761873927393 -0.37017261326133  2.20620568766877
 6 -11.80546092639264  1.85341044414441  1.11466955865587
 6 -8.65522894459446 -0.83765180638064  0.20454919391939
 6 -7.19947793739374 -0.52688453455346  0.23366106640664
 6 -6.40501451635163 -1.73952264106411  0.78037027332733
 6 -6.61682734443444  0.74487531743174  0.11711315611561
 6 -5.30610055165517  0.95763780048005  0.02465813561356
 6  11.83531277817782  0.11582161166117  1.40375990409041
 6  11.76443373347335 -0.71034718991899 -1.21869574927493
 6  12.71927915601560 -1.22916714641464  1.54031876527653
 6  13.39666435313531 -1.78106263966397  0.28646261066107
 6  12.52409734443444 -1.86403091209121 -0.87778174067407
 6  11.10544743264326 -0.04040929302930  0.12898007830783
 6  10.99003040794079  0.32853949594960  2.62899523972397
 6  12.89575269196920  1.28115133593359  1.18333138413841
 6  12.57607391359136  0.33646251955196 -2.05303925172517
 6 -4.69574607030703  2.15214772077208 -0.22551740064006
 6  9.91326251375138  0.40379118191819 -0.12178335503550
 6 -3.40726588498850  2.58625737943794 -0.41119137983798
 6  8.66554634063406  0.87815414921492 -0.27126146614661
 6 -3.07283896899690  4.12586404590459 -0.69992972507251
 6 -2.30193710881088  1.66943879257926 -0.21726426112611
 6  7.40294983748375  0.11651223922392 -0.17943712781278
 6  7.57665240174017 -1.33808076017602  0.20459038193819
 6  6.30810215821582  0.73208013831383 -0.24413834983498
 6 -0.97137126862686  1.86727585128513 -0.26109428452845
 6  5.04263586638664  0.21456057215722 -0.08424705590559
 6  0.00000647964796  0.92085539543954 -0.08875797859786
 6  3.82512191989199  0.82406275667567 -0.20957842684268
 6  1.37530947174717  1.26836856455646 -0.19426180708071
 6  2.41948984948495  0.35473477317732 -0.10377701980198
 6  2.32679254095410 -1.15652983328333  0.33813240684068
 1 -13.12973477427743 -2.66849982778278 -1.44837006100610
 1 -13.63251847554755 -1.04474845904590 -1.79380583528353
 1 -13.82541034323432 -0.12463539473947  1.74182686538654
 1 -13.98872826642664  0.60991611871187  0.22903056865687
 1 -14.77777508160816 -1.32787150055005  0.38142974727473
 1 -10.51687030393039 -2.88080486328633 -1.44106940234023
 1 -11.04555476437644 -2.41397618901890 -3.11409969616962
 1 -9.70758294179418 -1.52293150175018 -2.09319093159316
 1 -9.42035068986899  0.85601773277328 -0.88575238533853
 1 -10.29575090269027 -0.05782451835184  2.64702044484448
 1 -11.88564392529253 -0.17555085348535  2.92501085118512
 1 -11.05814650835083 -1.52376925342534  2.10815160486049
 1 -11.89606214871487  2.32057817981798  0.14143735973597
 1 -12.57363360276028  2.08234380988099  1.82901661346135
 1 -10.81169145124512  2.15140573107311  1.34517881138114
 1 -12.21502457495749 -2.55948882248225  1.16316079497950
 1 -8.84672551445144 -1.75211356905691  0.67712681158116
 1 -5.98798824492449 -2.19609293439344  0.00920287588759
 1 -5.50591300660066 -1.28776400900090  1.58082647884788
 1 -6.95271538213821 -2.56227850085009  1.41912806360636
 1 -7.17522883398340  1.53434176327633 -0.15753543004300
 1 -4.59966661136114  0.05355397379738 -0.01615539123912
 1  13.25281095819582 -1.08143983138314  2.35432037263726
 1  11.91503668066807 -1.93613299329933  1.65352135183518
 1  13.78880123702370 -2.83253491849185  0.53372029792979
 1  13.12112955145514 -2.40028650715072 -1.65793888858886
 1  11.86921692989299 -2.72496162006201 -0.46168151025103
 1  11.48214782298230  0.69630999769977  3.65594063276328
 1  10.41790876857686  1.21893745684568  2.48515603980398
 1  10.35541316251625 -0.56997531203120  2.76411265246525
 1  13.61966886878688  0.88789741394139  0.40578464326433
 1  12.30115272847285  2.12768220602060  0.82874758045805
 1  13.52429826692669  1.61282576167617  2.27665414701470
 1  12.80300111961196 -0.08427503710371 -3.10050250215021
 1  11.93460052845285  1.30003209410941 -2.11922985788579
 1  13.50105093769377  0.35754180708071 -1.47706319171917
 1 -5.28686090999100  2.98539292609261 -0.28495990679068
 1  10.39792104270427 -0.16532519011901 -2.36156849264927
 1  15.24040688588859 -1.13437325172517  0.62429102840284
 1  8.47375922672267  1.91634396159616 -0.81192847004700
 1 -2.28854393859386  4.64094054375438 -0.07972214251425
 1 -2.70890965526553  4.31329855465547 -1.70751386048605
 1 -4.11272765786579  4.55235341714171 -0.96089589108911
 1 -2.64616423652365  0.61804401640164  0.11672871827183
 1  6.60876362626263 -1.64447400950095 -0.10396791209121
 1  8.24214942944294 -1.92960768556856 -0.35048582268227
 1  7.83515343694369 -1.47161949034903  1.11878563946395
 1  6.25801094819482  1.85749955535554 -0.21290331003100
 1 -0.57634899189919  2.96666070957096 -0.74249416091609
 1  4.93075906230623 -0.81447794449445  0.26498918001800
 1 -0.39215813901390 -0.19747156005601  0.08889150025003
 1  3.78724789268927  2.07255289148915 -0.40970319531953
 1  1.70926780198020  2.35120091199120 -0.42931562996300
 1  1.31578041284128 -1.41260786498650  0.70668966456646
 1  2.54671599639964 -1.63094939643964 -0.78673644364436
 1  3.20468716511651 -1.45736996599660  0.91689497609761

