%nproc=3
%Mem=2GB
# td=(NStates=1) CAM-B3LYP/6-31G(d,p) 

TD

0 1
<<<<<<< HEAD
 8 -11.68219488708871  0.24835548394839 -1.56101326492649
 8 -13.14476531233123 -2.39963827182718  1.45358104310431
 8  10.70400592049205 -1.07770765866587 -2.13059678597860
 8  14.56131949864987 -0.80144886638664 -0.24487897529753
 6 -11.09129729692969 -0.08231218591859 -0.42357178157816
 6 -11.69899618931893 -1.12254343424342 -1.23507234753475
 6 -11.81001304430443  0.41443812661266  0.84992464746475
 6 -13.02610781448145 -1.82978313621362 -0.99918155215522
 6 -13.26647510551055 -0.03950139773977  0.84234892279228
 6 -13.51964839833983 -1.51717325512551  0.36894566186619
 6 -10.72936852555256 -1.93974939243924 -2.09196151445144
 6 -9.62206164996500  0.19454658845885 -0.39918687678768
 6 -11.13749972737274 -0.02041763776378  2.16106117321732
 6 -11.76360674097410  1.92780788388839  0.90403849554955
 6 -8.64031745344534 -0.56958499969997  0.15838457745775
 6 -7.26902489208921 -0.42894474057406  0.21626932723272
 6 -6.47335135003500 -1.67033572237224  0.66246848314831
 6 -6.60669633133313  0.65102593249325 -0.19854841004100
 6 -5.23446338793879  0.95275731243124 -0.21921625182518
 6  11.92257150405040  0.13388341784178  1.35339486758676
 6  11.70021731183118 -0.53001915711571 -1.29992387208721
 6  12.73347057515752 -1.25350958065807  1.41648638203820
 6  13.50900558725873 -1.68214274767477  0.14578854325433
 6  12.46285121982198 -1.75660016901690 -1.08122208470847
 6  11.09128601650165  0.03748849674967  0.02962014231423
 6  11.04370577547755  0.17282392439244  2.62138447864786
 6  12.85846896359636  1.37216043684368  1.26122917391739
 6  12.38531483768377  0.62009088238824 -2.01758570637064
 6 -4.70797729342934  2.17864037003700 -0.42299714861486
 6  9.85191637913791  0.44312511531153  0.03793261656166
 6 -3.32081724012401  2.46674542824282 -0.47155741644164
 6  8.66734652065206  0.80296663046305 -0.23183752375238
 6 -2.93890557565757  3.87357881738174 -0.72372210431043
 6 -2.26286320142014  1.56564841354135 -0.26264879957996
 6  7.43639318181818  0.05290587858786 -0.02034121822182
 6  7.59180391689169 -1.60536748884888  0.20548047094709
 6  6.17991933993399  0.62567949824982  0.06792285628563
 6 -0.89260339183918  1.82516163986399 -0.28128630373037
 6  4.94628623142314  0.05092420852085  0.15748711751175
 6  0.02453893289329  0.74517782768277 -0.14677378017802
 6  3.74162357005701  0.74537488788879  0.10430296129613
 6  1.33174511531153  1.04370609830983 -0.06757913881388
 6  2.44869276977698  0.10614991469147  0.12797615551555
 6  2.27039690139014 -1.36419059935994  0.47620621422142
 1 -12.95319712051205 -2.81368434623462 -1.10476570057006
 1 -13.98090331403140 -1.45475946014601 -1.69699615431543
 1 -13.61992979517952 -0.01817474867487  1.87218990169017
 1 -13.98859825342534  0.59284441154115  0.21430909650965
 1 -14.69662696679668 -1.42252096549655  0.70191179547955
 1 -10.18051666856686 -2.87463424622462 -1.70777607300730
 1 -11.31837204610461 -2.23775856725673 -2.90668895509551
 1 -9.93395557905790 -1.25065427402740 -2.30640225272527
 1 -9.42221087588759  1.00797292829283 -0.93370718081808
 1 -10.16462779037904  0.32929419351935  2.24197994079408
 1 -11.40299566046605  0.32974967656766  3.25876422652265
 1 -10.97803849754975 -1.08650552705271  2.09953074277428
 1 -11.93992653515352  2.49986610861086 -0.05261204520452
 1 -12.39695593499350  2.14233980948095  1.74246795859586
 1 -10.68866914901490  2.16365695619562  1.01571586508651
 1 -12.29836290879088 -2.48961183478348  1.34026850575057
 1 -8.87420826272627 -1.46335469316932  0.65622472137214
 1 -5.92836228232823 -2.25383870897090 -0.28512655705571
 1 -5.68694110941094 -1.39373460606061  1.29876827302730
 1 -7.05923603420342 -2.33540581358136  1.15421157195720
 1 -7.20836214731473  1.45491382048205 -0.43948362486249
 1 -4.54898154285429  0.09020763916392 -0.06384015971597
 1  13.47833351045105 -1.23455514291429  2.37918285888589
 1  12.16882205920592 -1.96356573657366  1.69768576827683
 1  13.92706506340634 -2.58400006500650  0.40574750065007
 1  13.27734517301730 -1.98646512501250 -1.92425552025202
 1  11.83843385158516 -2.47236636053605 -0.86709205130513
 1  11.40606021422142 -0.08754838813881  3.71261630033003
 1  10.39388636633663  1.16335189828983  2.73905142934293
 1  10.39520714191419 -0.66730504500450  2.49514575577558
 1  13.75761266316632  1.27395601980198  0.57669173397340
 1  12.12669528272827  2.18399783758376  1.06060076577658
 1  13.20002583968397  1.49605408450845  2.34764124572457
 1  12.74480530003000  0.33455684608461 -3.14246669856986
 1  11.86435350375038  1.74261635253525 -2.00562849774977
 1  13.38313914651465  0.96361241414141 -1.56693217861786
 1 -5.36942916681668  3.04472885968597 -0.71700311111111
 1  10.10981223182318 -0.40507916551655 -2.14804714051405
 1  15.27385023022302 -0.64763457785779  0.47593619291929
 1  8.39406125692569  1.89354168136814 -0.35713299049905
 1 -2.13457854205421  4.23558000770077 -0.01224539483948
 1 -2.53239200350035  4.06917414221422 -1.68352146124612
 1 -3.68027441254125  4.79189737153715 -0.48389819131913
 1 -2.39597921802180  0.53277548954896 -0.36669962456246
 1  6.64577732763276 -2.01674123622362  0.36657914261426
 1  8.28947416191619 -1.99764448924892 -0.68720949504950
 1  8.11547146874688 -1.63439576797680  1.25437919881988
 1  6.25400054715471  1.82064586998700 -0.20014203390339
 1 -0.48724008100810  2.74862890639064 -0.44550446194619
 1  4.78167415381538 -1.02283878057806  0.24529721082108
 1 -0.54115303850385 -0.16609842274227 -0.03872126102610
 1  3.97730689858986  1.79256489268927  0.17614538953895
 1  1.59491636683668  2.02930872277228 -0.34956765516552
 1  1.13712254705470 -1.34383098729873  0.39272826842684
 1  2.91067239203920 -1.82623892539254 -0.28049581958196
 1  2.71292798919892 -1.66413064206421  1.45569885648565
=======
>>>>>>> 6a1b998aacd80a23911c140f266e48a14f2d523d

