%nproc=3
%Mem=2GB
# td=(NStates=1) CAM-B3LYP/6-31G(d,p) 

TD

0 1
 8 -11.78868553615361  0.29932058045805 -1.40955811941194
 8 -13.01394223002300 -2.57724603260326  1.41837752275228
 8  10.62072759265927 -1.09746963486349 -2.04606833313331
 8  14.52028539523952 -1.21619034053405  0.12071758435844
 6 -11.03338150535054 -0.12391634633463 -0.24639406380638
 6 -11.65959224892489 -1.10364154405441 -1.21407024732473
 6 -11.77236927992799  0.32393907670767  1.08058771377138
 6 -13.15161036473647 -1.77255741364136 -0.91802343634363
 6 -13.24525298329833 -0.03301074867487  1.00731541944194
 6 -13.55991242474247 -1.52379391719172  0.57684645194519
 6 -10.87824341304131 -1.85773119061906 -2.16028834713471
 6 -9.58075751955196  0.18188532233223 -0.23701065916592
 6 -11.04255023242324 -0.16004160016002  2.32028709580958
 6 -11.65992637293729  1.86635173827383  1.08921701340134
 6 -8.71282470417042 -0.84866290749075  0.07112585158516
 6 -7.16762475207521 -0.75874772087209  0.03843154345435
 6 -6.36487050195019 -1.98625731453145  0.11552378867887
 6 -6.57545320702070  0.46784761466147  0.08334977977798
 6 -5.26512645424542  0.88850088678868 -0.07623195339534
 6  11.92430167706771 -0.00844081458146  1.39033856195620
 6  11.65083237333733 -0.63583973917392 -1.21234511421142
 6  12.56311353945395 -1.33543777347735  1.61987672107211
 6  13.30103479017902 -1.94756929032903  0.47218118251825
 6  12.44719965466547 -1.93174768376838 -0.72669663216322
 6  11.11150803870387  0.08158290619062  0.01517869816982
 6  11.02542394729473  0.31984862686269  2.54285662586259
 6  12.99971308800880  1.19401262206221  1.28239129012901
 6  12.57454376057606  0.31264013731373 -1.97697164496450
 6 -4.75440193589359  2.17621012701270 -0.37746259515952
 6  9.95189637713771  0.58817962076208  0.04707353065307
 6 -3.43680883928393  2.59591834553455 -0.43099336003600
 6  8.75790557655766  1.05189152295230 -0.05964030403040
 6 -3.14072575767577  4.09060051955196 -0.60599033113311
 6 -2.31535845094509  1.56849869856986 -0.41538407310731
 6  7.50379992249225  0.24207479547955 -0.02808199229923
 6  7.61155589208921 -1.24231118321832  0.29370929382938
 6  6.29354070207021  0.92243917421742 -0.18474241024102
 6 -0.94237836933693  1.93138226192619 -0.43203137823782
 6  4.97750935373537  0.39890900700070 -0.06045467666767
 6  0.02021850085008  0.87715102500250 -0.46728583138314
 6  3.77515692339234  1.01694204460446 -0.30886835583558
 6  1.40748268906891  1.22825455315532 -0.49180156105611
 6  2.49611751225122  0.37714701440144 -0.29322596469647
 6  2.28189805150515 -1.08532271257126 -0.06410781718172
 1 -13.08856065686569 -2.80957393519352 -1.23625884988499
 1 -13.86442166586659 -1.21451543574357 -1.69442589728973
 1 -13.71956975917592  0.31358842764276  1.89176185888589
 1 -13.76422581618162  0.72502762986299  0.31927959355936
 1 -14.57514481858186 -1.63375208860886  0.68567017131713
 1 -10.63515213211321 -2.83852063486349 -1.68796409180918
 1 -11.48837904680468 -2.13268806020602 -2.99334762096210
 1 -9.95396758025803 -1.52219142774277 -2.46570818331833
 1 -9.23286194099410  1.20317244824482 -0.51880569066907
 1 -10.13682501010101  0.19343060716072  2.25959170197020
 1 -11.50915627652765  0.16253295489549  3.28829717981798
 1 -11.02975366906691 -1.29209608610861  2.47231802150215
 1 -12.07690023252325  2.48060418241824  0.31458467446745
 1 -12.16941318071807  2.23980955645565  1.97291100290029
 1 -10.59506978907891  2.17681827232723  1.19903419691969
 1 -12.23446651915191 -3.19365223882388  1.00895537443744
 1 -8.99918075997600 -1.75753411111111  0.30632973187319
 1 -5.89282872897290 -2.34950827592759 -0.97203524792479
 1 -5.46143855915592 -1.67652288488849  0.76163455965597
 1 -6.81754186478648 -2.71610388338834  0.62743889468947
 1 -7.20620193129313  1.39241757085709  0.23559388288829
 1 -4.54008065276528  0.17686630503050  0.05698192249225
 1  13.10096577367737 -1.36976866426643  2.49066400700070
 1  11.70046522352235 -2.03225260526053  1.95030102980298
 1  13.62640499739974 -2.99866153115311  0.66364329022902
 1  13.08476591509151 -2.31086756525653 -1.52997609230923
 1  11.74888489668967 -2.63847297119712 -0.61077641974197
 1  11.52971257945795 -0.03974360766077  3.63476851555156
 1  10.88632561026103  1.39470503360336  2.45177270147015
 1  10.08671629282928 -0.26526484098410  2.85772201340134
 1  13.66051295319532  0.77019564376438  0.42168623342334
 1  12.63323593679368  2.05814525232523  1.15715042074207
 1  13.57892372947295  1.12250672977298  2.15531201280128
 1  12.92849366886689 -0.26512312191219 -2.92810526242624
 1  11.80609767816782  1.20273236413641 -2.23712164706471
 1  13.27588842144214  0.69816586948695 -1.37229271467147
 1 -5.49990221412141  3.03383777057706 -0.37689910071007
 1  9.98531978257826 -0.31831048864886 -2.11066340214021
 1  14.83270611581158 -1.24898471287129  1.01148974827483
 1  8.76651850265027  1.98556088328833 -0.62262954015402
 1 -2.60352543674367  4.22880933063306  0.55936176587659
 1 -2.28374713901390  4.30117734253425 -1.25943905300530
 1 -4.04978136323632  4.38941712351235 -0.65760556205621
 1 -2.33282290239024  0.47593980598060 -0.37640059465947
 1  6.84035678557856 -1.84303386548655 -0.05282279757976
 1  8.42517773227323 -1.63531825662566 -0.27567834193419
 1  7.70501042264226 -1.40626295469547  1.43002676357636
 1  6.49986513361336  2.08018182358236 -0.08611063076308
 1 -0.68222957995800  3.07244128762876 -0.75555546704670
 1  4.99540552695269 -0.76205270197020  0.13654633573357
 1 -0.34910383358336 -0.04002581548155 -0.33738112701270
 1  3.84218338623862  2.08989462566257 -0.61528375337534
 1  1.50581745694569  2.46223201510151 -0.71078377677768
 1  1.30178901370137 -1.25893249744974 -0.21296230063006
 1  2.90544186898690 -1.69346564806481 -0.70732850285029
 1  2.67452414881488 -1.46488071707171  0.96078936553655

