%nproc=3
%Mem=2GB
# td=(NStates=1) CAM-B3LYP/6-31G(d,p) 

TD

0 1
 8 -11.71466813441344  0.26530717911791 -1.54233139673967
 8 -13.25657649344934 -2.59332764076408  1.25478116311631
 8  10.60970649054905 -1.11298118601860 -2.08076180248025
 8  14.52887625432543 -1.26166488798880 -0.10781526892689
 6 -10.94154232143214 -0.17098105280528 -0.34392381678168
 6 -11.66764305400540 -1.08766994689469 -1.27933677397740
 6 -11.67566960996100  0.23728041084108  0.94321397639764
 6 -13.11096630033003 -1.69722988088809 -0.99778141214121
 6 -13.25731418941894 -0.12533998159816  0.87605229312931
 6 -13.62622905640564 -1.48584012181218  0.36207497479748
 6 -10.88785437413742 -1.94187960546055 -2.22219453775377
 6 -9.49416886068607  0.09670680448045 -0.43292025012501
 6 -11.02299827722772 -0.22584818081808  2.20307537463746
 6 -11.62518289858986  1.78734383748375  1.00398849054905
 6 -8.58822224392439 -0.77328536973697  0.16872561156116
 6 -7.07688567816782 -0.52449429552955  0.21590929122912
 6 -6.30133414831483 -1.83649233803380  0.55536777307731
 6 -6.52793845554555  0.60984181408141 -0.07791634683468
 6 -5.24293423502350  0.93888592529253 -0.07879220942094
 6  11.94417366426643  0.17724775427543  1.29811934003400
 6  11.68650594069407 -0.73948010321032 -1.21965584528453
 6  12.60993822192219 -1.22393662336234  1.56951168456846
 6  13.32587727442744 -1.85096963036304  0.37967193159316
 6  12.41316625132513 -2.04649915891589 -0.88249221172117
 6  11.05071195909591  0.05244999289929  0.00867804810481
 6  10.91687309220922  0.31688833083308  2.51014335453545
 6  12.94192730943094  1.31122434323432  1.22636568756876
 6  12.56399270547055  0.17812668596860 -2.11629557735774
 6 -4.73767026272627  2.22700520652065 -0.28580342924292
 6  9.83541472897290  0.61850265306531 -0.09830100680068
 6 -3.36034119251925  2.62840159385939 -0.40912117281728
 6  8.67221700770077  0.93031936573657 -0.34451879187919
 6 -3.05173685878588  4.04317577707771 -0.63564329642964
 6 -2.32620953605361  1.64945679437944 -0.18649118381838
 6  7.43253279577958  0.17205779377938 -0.16758594269427
 6  7.65557029352935 -1.27917486958696  0.23270319321932
 6  6.22544389238924  0.86182311261126 -0.29955389138914
 6 -1.00044417591759  1.87677680138014 -0.18134630973097
 6  4.97447905070507  0.26310542664266  0.02063343214321
 6  0.00052653165317  0.92110542044204  0.06804770197020
 6  3.72297170487049  0.96385673607361 -0.12472994199420
 6  1.42186412721272  1.27235896359636 -0.05089747064706
 6  2.48644654515452  0.39837913761376  0.06350970887089
 6  2.38968883058306 -1.01215539583958  0.44588318191819
 1 -12.96620842164216 -2.66500947874787 -1.33268849284929
 1 -13.68008323202320 -1.31170515471547 -1.77155361006101
 1 -13.64187198939894 -0.11225415661566  1.87181986468647
 1 -13.96074546814681  0.67695282238224  0.41203886948695
 1 -14.76621392549255 -1.59511822522252  0.28472007630763
 1 -10.77188580548055 -3.02875965876588 -1.88637393279328
 1 -11.58640884978498 -2.00174496589659 -3.05575386158616
 1 -9.83187537103710 -1.53574278287829 -2.51745335783578
 1 -9.15419407420742  1.09367149814981 -0.89620343044304
 1 -10.18747007460746  0.01056232033203  2.59183492629263
 1 -12.00336569746975  0.13020972257226  2.85434378447845
 1 -11.08436913061306 -1.33606048254826  2.41496228592859
 1 -12.12020456295630  2.30433655565557  0.14084730073007
 1 -11.96219245864586  2.20415599109911  1.96844055585559
 1 -10.45234551665166  1.93523411391139  0.76927122062206
 1 -12.35425849834983 -2.94943781738174  1.01356583548355
 1 -8.92002284418442 -1.51417977567757  0.93131223012301
 1 -5.54345379147915 -1.83130645574558 -0.34423246764676
 1 -5.67660007530753 -1.33697893049305  1.31852024822482
 1 -6.96108621922192 -2.83499577257726  0.57574372517252
 1 -7.22187349844984  1.45796412551255 -0.08903858035804
 1 -4.40358700340034  0.19882850125012  0.05518174247425
 1  13.17415309240924 -0.86596828422842  2.36247118771877
 1  11.88593377037704 -2.08831821182118  1.87605360506051
 1  13.55304766166617 -2.81927359235924  0.68860578647865
 1  12.84009144764476 -2.41125760426043 -1.74907800250025
 1  11.68589859805981 -2.85481460536054 -0.59250459255926
 1  11.48143775197520  0.18802916961696  3.46795183388339
 1  10.43533051075107  1.29386494959496  2.53160068426843
 1  9.91241886308631 -0.35576389088909  2.39992623382338
 1  13.73407030893089  1.20668929312931  0.42639670447045
 1  12.42245485868587  2.31576101390139  1.08231293699370
 1  13.29897573467347  1.45976045514551  2.18123460506051
 1  12.92091291079108 -0.36513312291229 -2.99148160006001
 1  12.07990505890589  1.13228531943194 -2.68991692659266
 1  13.58804963756376  0.67249330223022 -1.62577806320632
 1 -5.43540576447645  3.10387477427743 -0.62741415221522
 1  9.94262551315132 -0.36051470907091 -2.29240157595760
 1  15.00522336753675 -1.09129894429443  0.63121172047205
 1  8.57984983578358  2.08430075727573 -0.66867414461446
 1 -2.40029511371137  4.68783523322332  0.06648247794779
 1 -2.55477424172417  4.11417864266427 -1.59910301940194
 1 -4.01701808690869  4.54025220702070 -0.53946374787479
 1 -2.62573219331933  0.52239445144514  0.19273631903190
 1  6.68632138203820 -1.72062162426243  0.29469195389539
 1  8.49184439893989 -1.79387411221122 -0.27302807690769
 1  7.93563348494850 -1.35263759215922  1.18382214311431
 1  6.44580972807281  1.92037584298430 -0.40935295499550
 1 -0.54155551255126  2.93676772027203 -0.31146105760576
 1  4.84354034043404 -0.89124562126213  0.22762544364436
 1 -0.03864278747875 -0.20894270717072  0.31234384548455
 1  4.00504967286729  2.02245788198820 -0.51545377037704
 1  1.60380725592559  2.35126091799180 -0.28531122952295
 1  1.23956279107911 -1.44992159635964  0.39995899149915
 1  3.04037536233623 -1.56247254875488 -0.16014378437844
 1  2.71794849124912 -1.31121535053505  1.51684497109711

