%nproc=3
%Mem=2GB
# td=(NStates=1) CAM-B3LYP/6-31G(d,p) 

TD

0 1
 8 -11.74213088068807  0.22578322672267 -1.56172333593359
 8 -12.73984482028203 -2.54838314631463  1.13682936793679
 8  10.56920244014401 -1.20538042594259 -2.04812853915392
 8  14.51380474717472 -0.85244396589659 -0.33810829822982
 6 -11.06283445064506 -0.16386034073407 -0.41181060546055
 6 -11.56180246994699 -1.16655783568357 -1.24074291459146
 6 -11.84992703570357  0.48724540734073  0.87785744074407
 6 -13.05551075477548 -1.75345550345035 -1.00639227322732
 6 -13.38193665166517 -0.10160760836084  0.77462215011501
 6 -13.52015844934493 -1.53227476527653  0.41604037133713
 6 -10.82608819751975 -2.00243566106611 -2.22129444774477
 6 -9.55031447524753  0.08309544334433 -0.42988994709471
 6 -11.18433441084108  0.03619802380238  2.14727979507951
 6 -11.83622400270027  1.93809891299130  0.60845893759376
 6 -8.71083450515052 -0.74340238143814  0.08727746674667
 6 -7.26179416901690 -0.41256310241024  0.28589628992899
 6 -6.40957497239724 -1.58395708450845  0.77539977627763
 6 -6.61997765946595  0.74305513541354  0.08676012081208
 6 -5.22094203580358  0.93361539823982  0.08553422322232
 6  11.88912815971597  0.11438146764676  1.27080660876088
 6  11.69081637173717 -0.69749590479048 -1.28591247094709
 6  12.82351958005801 -1.13236746644664  1.51667640104010
 6  13.46236092279228 -1.75329986338634  0.24513847824782
 6  12.43376831153115 -1.92385689468947 -0.85745970847085
 6  11.04985187308731 -0.06600185228523  0.03717089738974
 6  11.10954235913591  0.32431907390739  2.49141148134813
 6  12.94681779847985  1.28493171397140  1.04909796079608
 6  12.39554586078608  0.32847172047205 -2.12782673047305
 6 -4.65265176087609  2.20183268926893 -0.23369821872187
 6  9.89366055355536  0.48392919571957  0.03594241754175
 6 -3.38059321772177  2.55676443014301 -0.30427068776878
 6  8.57808759475948  0.93262959675968 -0.09595393539354
 6 -2.96139782488249  3.92350380988099 -0.50475020712071
 6 -2.30503741884188  1.61141298999900 -0.07535006970697
 6  7.41781132363236  0.08049863786379  0.06703751965197
 6  7.66736147264726 -1.28728568066807  0.19872979587959
 6  6.17171851985198  0.69477640794079  0.00128619261926
 6 -0.86532066356636  1.80987011071107 -0.09280745584558
 6  4.88835043784378  0.06556567266727  0.02641401020102
 6  0.01175765476548  0.81601491139114  0.09195009220922
 6  3.71508091579158  0.77782813321332 -0.15645311431143
 6  1.40012195299530  1.16855858355836 -0.08650103100310
 6  2.45660356085609  0.23848314801480 -0.03368001010101
 6  2.26464632633263 -1.26459063936394  0.22807140074007
 1 -13.16130793159316 -2.95143812161216 -1.06468169216922
 1 -13.77289251295129 -1.45949993419342 -1.86589304400440
 1 -13.83210101230123  0.35370243904390  1.74596727942794
 1 -13.93823321692169  0.60511563866387  0.09517718331833
 1 -14.56062336643664 -2.04612332573257  0.50374197849785
 1 -10.73775239213921 -3.05432221502150 -1.76354164956496
 1 -11.50783099199920 -2.22341713311331 -3.06335462166217
 1 -9.74266645014501 -1.57434664326433 -2.24708632113211
 1 -9.24184283908391  1.04278640964096 -1.21007481758176
 1 -10.21857318491849  0.55112637673767  2.21176691949195
 1 -11.73723908480848  0.00199690129013  3.08443679377938
 1 -10.67671836553655 -1.00583746024602  2.03755454515452
 1 -12.12899544204421  2.25159128112811 -0.45043182718272
 1 -12.42083832323232  2.53703927942794  1.42253596539654
 1 -10.70401068316832  2.31724231473147  0.48071236473647
 1 -11.64855792829283 -2.25744861846185  1.05101958085809
 1 -9.27271811371137 -1.75817417511751  0.70891999089909
 1 -5.73447289338934 -1.99225255035504 -0.01345939033903
 1 -5.83552596789679 -1.30412564516452  1.73735213141314
 1 -7.06898700930093 -2.48055032803280  1.18049420022002
 1 -7.26247755885588  1.66539486858686 -0.19745942244224
 1 -4.57438408310831  0.10968958735874  0.49444566886689
 1  13.58753443054305 -1.20683237063706  2.33270821142114
 1  12.16253143014301 -1.92423180318032  1.63649964966497
 1  13.74886724362436 -2.67699936493649  0.46873379927993
 1  12.96378381688169 -2.40682716121612 -1.71166426112611
 1  11.61948195639564 -2.79536866076608 -0.42790813291329
 1  11.65523513171317  0.30682104880488  3.43273831253125
 1  10.44369134683468  1.29690525362536  2.45531305550555
 1  10.48262588378838 -0.48120643514351  2.64101034223422
 1  13.59439634153415  1.23424204840484  0.11976604140414
 1  12.31260387358736  2.25062450025002  0.70899560526053
 1  13.50406624372437  1.44388886798680  1.97315379697970
 1  12.91296211571157 -0.03875048464846 -3.01317376927693
 1  11.69431650005000  1.25483757465747 -2.30408834373437
 1  13.22436326892689  0.75165121802180 -1.42270775617562
 1 -5.29672189608961  2.90147453425343 -0.77175858665867
 1  10.08682993359336 -0.42027068466847 -2.37791012681268
 1  15.21046389158916 -0.82289210361036  0.35792439173917
 1  8.50126197699770  2.01328365556556 -0.13848112531253
 1 -2.32281736593659  4.20979742944294  0.36737256695670
 1 -2.42951171547155  4.20211743654365 -1.37875098419842
 1 -3.93515990109011  4.66704488628863 -0.63444324582458
 1 -2.59305892599260  0.54060627262726  0.25095214061406
 1  6.73502625252525 -1.98569813191319  0.15977846254625
 1  8.46455166966697 -1.64605933073307 -0.55756653075307
 1  8.01862178377838 -1.59491181958196  1.18552231313131
 1  6.35127027412741  1.71511531693169 -0.39858187788779
 1 -0.50335169216922  2.93984802830283 -0.38440835233523
 1  4.94224021042104 -1.12119861656166 -0.06141346024603
 1 -0.47675659885989 -0.09338115101510  0.08380099119912
 1  3.76139530743074  1.95818145434543 -0.19671189618962
 1  1.44934180938094  2.13596938883888 -0.08183088148815
 1  1.21290012481248 -1.56778338253825  0.37129612521252
 1  2.89055037983798 -1.76610291179118 -0.59448721872187
 1  2.56593328972897 -1.60593482248225  1.12009529612961

