%nproc=3
%Mem=2GB
# td=(NStates=1) CAM-B3LYP/6-31G(d,p) 

TD

0 1
 8 -11.59073574117412  0.09335998439844 -1.60841800540054
 8 -13.14018485428543 -2.47179548754875  1.48511419641964
 8  10.50516603650365 -1.06960684858486 -2.08248197449745
 8  14.46902026872687 -1.14384310581058 -0.34369885728573
 6 -11.04408257545755 -0.21629558425843 -0.34306373077308
 6 -11.60716700640064 -1.20676185608561 -1.25780462076208
 6 -11.76815885888589  0.27228391119112  0.88597825282528
 6 -12.92493769746975 -1.79797995589559 -0.96545817981798
 6 -13.31813027102710 -0.08092554015402  0.77539222712271
 6 -13.64526095959596 -1.63231476927693  0.41216998429843
 6 -10.73585917461746 -2.11430684818482 -2.19318163646365
 6 -9.52594203800380  0.08690582438244 -0.38001495959596
 6 -11.23269924732473 -0.19058465446545  2.27060212731273
 6 -11.77218759905990  1.78669377247725  0.85431352305231
 6 -8.62546596829683 -0.76383442464246  0.19816855585559
 6 -7.28421641124112 -0.46626847294729  0.18069576987699
 6 -6.39838385328533 -1.66300498929893  0.72570480678068
 6 -6.63331899359936  0.73378420832083 -0.19595815101510
 6 -5.30374031563156  1.03500553725373 -0.14887921812181
 6  12.02550179707971 -0.06384635513551  1.31984151225123
 6  11.63379066916692 -0.62659881508151 -1.20743462316232
 6  12.79856708480848 -1.44065829552955  1.43915864926493
 6  13.35131981868187 -1.90880541394139  0.06168013241324
 6  12.32967790249025 -1.88302281128113 -1.03657762026203
 6  11.11446833473347 -0.10542579467947  0.10710789108911
 6  11.13837524242424  0.07135377737774  2.52806514671467
 6  12.89913303000300  1.17122034283428  1.27558060906091
 6  12.32685899209921  0.37040591389139 -2.16279022682268
 6 -4.71716821252125  2.29201170717072 -0.46661151005101
 6  9.89937112461246  0.50281108390839  0.02008083138314
 6 -3.35253041144114  2.57261601530153 -0.54497475817582
 6  8.72017180318032  0.99724605840584  0.02134779477948
 6 -3.02381406650665  4.12424388388839 -0.73455318741874
 6 -2.29533644874487  1.72441429012901 -0.31700423512351
 6  7.51705124762476  0.27057764576458  0.13855467136714
 6  7.56474121062106 -1.17820477257726  0.38735865876588
 6  6.24503585158516  0.93805073537354  0.06699276327633
 6 -0.91823595509551  2.00585970967097 -0.33890206530653
 6  5.03287489028903  0.28880799689969  0.17426879567957
 6  0.09779625862586  1.03843715361536 -0.07230633343334
 6  3.80937034473447  0.83180353075308  0.08292082308231
 6  1.40477241804180  1.31275300300030 -0.08537091799180
 6  2.45922382288229  0.39131843154315  0.06576993489349
 6  2.36845670737074 -1.04110829112911  0.38950754435444
 1 -13.04849665046505 -2.88200117791779 -1.40027525152515
 1 -13.79528475217522 -1.40273425762576 -1.76332278697870
 1 -13.91326912911291  0.23023009180918  1.66683936663666
 1 -13.80755014861486  0.58704383148315  0.14047171277128
 1 -14.81078838293829 -1.78805751915192  0.27811941624162
 1 -10.36042465936594 -3.17093387618762 -1.76343163856386
 1 -11.21644185308531 -2.32512730413041 -3.18191647784779
 1 -9.74863704720472 -1.49999920852085 -2.34201581408141
 1 -9.31145980078008  0.93430556155616 -1.12118592869287
 1 -10.16522785038504  0.32624388848885  2.33823956675668
 1 -11.83084844574457  0.20267696929693  3.02710106020602
 1 -11.04050474417442 -1.25408228472847  2.31118190789079
 1 -12.25456799929993  2.09642576457646  0.08614183018302
 1 -12.09988622802280  2.22386796229623  1.77410112191219
 1 -10.63678396049605  2.09703029352935  0.80791508500850
 1 -12.20902397489749 -2.94841771537154  1.10721520042004
 1 -8.85544638653865 -1.71268962666267  0.72790188908891
 1 -5.85481492759276 -2.25339866496650 -0.23457150155015
 1 -5.55593800910091 -1.31035626822682  1.43024142034203
 1 -7.17889800040004 -2.47971024402440  1.26135228602860
 1 -7.29740105120512  1.63257158625863 -0.58895857235724
 1 -4.64069071377138  0.16602522092209  0.23723994829483
 1  13.60137581468147 -1.40275196259626  2.17258219881988
 1  12.16030120712071 -2.21799117911791  1.69042504220422
 1  13.50243260016001 -2.85428709370937  0.13795072097210
 1  12.95928336683668 -2.42390886938694 -1.95305840054005
 1  11.60368037623762 -2.78067719161916 -0.93082842494249
 1  11.78063767196720  0.12801316801680  3.50270530923092
 1  10.60406738443844  1.02162772587259  2.54429195339534
 1  10.54080170137014 -0.73289160366037  2.62798904010401
 1  13.76903380528053  1.16312493669367  0.63424748954896
 1  12.29294190739074  2.06478591639164  1.07732243794379
 1  13.38818465556556  1.19767424652465  2.35578205980598
 1  12.35496631613161 -0.12652926252625 -3.12018447034703
 1  11.81489855825583  1.34502659355936 -2.18031596649665
 1  13.47575840844084  0.38775482838284 -1.63445893129313
 1 -5.56736896079608  3.04957934473447 -0.67104851565156
 1  9.99174042464247 -0.39331798939894 -2.22831516731673
 1  15.02873571877188 -1.08915873027303  0.33698229752975
 1  8.41948379917992  2.08885121232123 -0.11439871707171
 1 -2.52473755795580  4.64478092779278  0.10572640234023
 1 -2.24698346264626  4.25358258305831 -1.61554466356636
 1 -4.06348273337334  4.63447162896290 -0.77893769526953
 1 -2.62238185828583  0.60522273427343 -0.27518047264726
 1  6.61226397629763 -1.35499506160616  0.15691817651765
 1  8.25579079357936 -1.59709443424342 -0.28057883198320
 1  7.96784670627063 -1.43069539793979  1.42032579347935
 1  6.06017116421642  1.92257606300630 -0.49182120182018
 1 -0.77249860686069  3.09742378587859 -0.51480139163916
 1  4.86790277667767 -0.82336883358336  0.35904858595860
 1 -0.25309423262326  0.09162734983498  0.15834844594460
 1  3.76484565246525  1.90902653885389 -0.16448867386739
 1  1.85554242944294  2.42443823572357 -0.26759945834584
 1  1.27512634743474 -1.29494609880988  0.85855485108511
 1  2.27964928972897 -1.71587788928893 -0.67894566456646
 1  3.22766946334634 -1.46810103910391  1.07778106470647

