%nproc=3
%Mem=2GB
# td=(NStates=1) CAM-B3LYP/6-31G(d,p) 

TD

0 1
<<<<<<< HEAD
 8 -11.76619328692869  0.39798044644464 -1.39801696529653
 8 -13.12952378817882 -2.45715402340234  1.29321500650065
 8  10.69237475737574 -1.27170705860586 -2.02561628792879
 8  14.56165953265326 -0.68129685118512  0.05105061766177
 6 -11.07248541574157 -0.02343629832983 -0.28648807320732
 6 -11.64552084178418 -1.07466864676468 -1.20282912321232
 6 -11.73384542754275  0.35764244704470  1.02221187618762
 6 -13.09742494619462 -1.74427458535854 -1.00134176817682
 6 -13.34111256925693 -0.01997944554455  0.84203889178918
 6 -13.60758719221922 -1.48237977577758  0.42597136443644
 6 -10.87077266596660 -1.67375279277928 -2.32035435373537
 6 -9.59221866566657  0.12920005380538 -0.35530248834883
 6 -11.17300327772777 -0.13427902390239  2.36880194729473
 6 -11.67152753305330  1.96443154625463  1.05939403110311
 6 -8.63152657435744 -0.69724776597660  0.10247898689869
 6 -7.24898288788879 -0.63182502860286  0.14339203950395
 6 -6.51537555245524 -1.91744043284328  0.34361659795980
 6 -6.64346000770077  0.53118394829483 -0.09070762596260
 6 -5.29590953255326  0.84465650235024 -0.01886621682168
 6  11.83467271417142  0.16512654215422  1.41669119721972
 6  11.75236252635264 -0.77855401060106 -1.24707858755876
 6  12.66082331043104 -1.17025125482548  1.63185791919192
 6  13.57116180288029 -1.62832736613661  0.44757872227223
 6  12.62634756945694 -1.90264477347735 -0.76897085958596
 6  11.08756564446445  0.08718346624662  0.04784196449645
 6  10.74702610751075  0.37229387138714  2.41450379057906
 6  12.82193531023102  1.33010623142314  1.32194524552455
 6  12.53434974117412  0.28432730603060 -2.08348229602960
 6 -4.79127562326233  2.14167667366737 -0.23925877477748
 6  9.93525471297130  0.60322112491249 -0.12072324902490
 6 -3.37493265166517  2.47019577327733 -0.25163542424242
 6  8.66257604360436  0.88813514731473 -0.36428076807681
 6 -3.03585527062706  3.89466092559256 -0.59410914301430
 6 -2.27129404450445  1.56106795549555 -0.25622815751575
 6  7.53236277877788  0.09265985398540 -0.24105328942894
 6  7.75528026452645 -1.37156410851085  0.02786270917092
 6  6.30398174617462  0.63045997629763 -0.26313024902490
 6 -0.92956708820882  1.80556968066807 -0.38727690279028
 6  5.01574317711771  0.05204432053205 -0.09120775197520
 6  0.06739321832183  0.79253256315632 -0.09710881368137
 6  3.82953236093609  0.68281863226323 -0.23703117211721
 6  1.41646358715872  1.04577630533053 -0.15151753265327
 6  2.55311321182118  0.24933423312331 -0.04637127922792
 6  2.22570243194319 -1.20788496879688  0.37926652025203
 1 -13.03392519331933 -2.76596957475748 -1.20639586358636
 1 -13.84038926262626 -1.16434041824182 -1.52218867356736
 1 -13.70734853705371  0.19774684348435  1.83284596729673
 1 -13.88310770437044  0.83680880798080  0.23358102370237
 1 -14.73168047214721 -1.78964767816782  0.30150175447545
 1 -10.69994861176118 -2.75103188598860 -2.00564585998600
 1 -11.54739494839484 -1.68269306070607 -3.15867415361536
 1 -9.81256343984398 -1.06305551415142 -2.58227984048405
 1 -9.11779043384339  1.22991512251225 -0.53039684978498
 1 -10.24736606420642 -0.00915965186519  2.62588833163316
 1 -11.79240460136013  0.14519122072207  3.13000135023502
 1 -11.10370106380638 -1.13539041554155  2.68482927262726
 1 -11.68714125662566  2.54505062706271  0.13571678767877
 1 -12.28954519391939  2.22623819931993  1.86650036183618
 1 -10.76712699479948  2.34699529002900  1.30915520902090
 1 -12.10745381788179 -2.37636050965097  1.47436191509151
 1 -8.94156499839984 -1.80882924062406  0.29423852275228
 1 -5.99235868196820 -2.01017434253425 -0.57499554395440
 1 -5.76484890019002 -1.73564879747975  1.16229462566257
 1 -7.14583469406941 -2.88217049004901  0.48889504030403
 1 -7.27236854795480  1.30949927902790 -0.32919259575958
 1 -4.49017566226623  0.16721533993399  0.19605582988299
 1  13.25338101520152 -1.05493718111811  2.52645758635864
 1  11.96546172317232 -2.13531291129113  1.97989398909891
 1  14.06545890279028 -2.45362702770277  0.82010893679368
 1  13.39111655015502 -2.04842132063206 -1.55302839753975
 1  11.82775278347835 -2.67640676457646 -0.63216855895590
 1  11.42007161536154  0.44007437413741  3.37474251295130
 1  10.26832381008101  1.31844740784078  2.30540806500650
 1  10.03265088628863 -0.58187650215021  2.44935117631763
 1  13.63334023592359  1.22667129132913  0.66639070387039
 1  12.42051466466647  2.30959039683968  1.10942564826483
 1  13.30612644974497  1.51125560466047  2.29296577817782
 1  12.90890170967097 -0.11753836343634 -2.97084953685369
 1  12.02828989738974  1.15159725062506 -2.39947788268827
 1  13.47278811141114  0.84231028392839 -1.45215070047005
 1 -5.51215343924392  2.89283367016702 -0.64216562736274
 1  10.04104535513551 -0.51015967356736 -2.15107744354435
 1  15.05872871807181 -0.59689950435044  0.87608620792079
 1  8.40897274807481  1.76484881208121 -0.77803508070807
 1 -2.62970805500550  4.14816126582658  0.50186601630163
 1 -2.32329109340934  3.95351257605761 -1.35748885798580
 1 -3.82019840494049  4.58685686748675 -0.68933873537354
 1 -2.66252587268727  0.59086129812981  0.02753979937994
 1  7.00249299919992 -2.08633819591959 -0.13060057535754
 1  8.53281849634964 -1.60941566636664 -0.85680645474547
 1  8.37290721232123 -1.58062039043904  1.03346710761076
 1  6.23039818691869  1.71159496489649 -0.50235225492549
 1 -0.60156151315132  2.73425746924692 -0.73295320682068
 1  4.97843382978298 -1.03484998169817 -0.00642796169617
 1 -0.17812673587359 -0.14066587948795  0.12889550065006
 1  3.61056022392239  1.79638527472747 -0.63172539753975
 1  1.54246112131213  2.05121091299130 -0.54589728812881
 1  1.11924075887589 -1.43872047624762  0.56069506510651
 1  2.55728705350535 -1.94952125362536 -0.50320809080908
 1  2.87661435783578 -1.47134136313631  1.28574186078608
=======
>>>>>>> 6a1b998aacd80a23911c140f266e48a14f2d523d

