%nproc=3
%Mem=2GB
# td=(NStates=1) CAM-B3LYP/6-31G(d,p) 

TD

0 1
<<<<<<< HEAD
 8 -11.77572424002400  0.15858650705071 -1.57195435903590
 8 -12.84680551635164 -2.28998730673067  1.53058874387439
 8  10.60827634753475 -1.01155104300430 -2.11582530883088
 8  14.45589895659566 -0.79157787928793 -0.09525401280128
 6 -11.00919908710871 -0.23975793049305 -0.35708513291329
 6 -11.64940122982298 -1.22651383128313 -1.16021486178618
 6 -11.69574161716172  0.41785846864686  0.84566422142214
 6 -12.91353655735574 -1.88020817871787 -0.76019765376538
 6 -13.16133459145915  0.00336288868887  0.87845253315332
 6 -13.50375680918092 -1.41803334113411  0.61555032233223
 6 -10.78614420312031 -2.28484390189019 -2.11110342864286
 6 -9.59872931673167  0.04354148794879 -0.46615357345735
 6 -10.98016399379938  0.01212561656166  2.21677674477448
 6 -11.65708608890889  1.95512061516152  0.62434052575258
 6 -8.62798622032203 -0.74953299449945 -0.09504076507651
 6 -7.17988597819782 -0.56868871497150 -0.13259555925593
 6 -6.25243925882588 -1.71549023782378  0.42340457675768
 6 -6.63006866856686  0.82149297919792 -0.22768132333233
 6 -5.18572851445145  1.02685472217222 -0.18809313951395
 6  11.90001924882488 -0.01332130263026  1.38074760286029
 6  11.66173346344634 -0.59096525172517 -1.25366924662466
 6  12.67470469856986 -1.36057028672867  1.44227896129613
 6  13.46558124482448 -1.64774930833083  0.14396836123612
 6  12.48012294699470 -1.80338484748475 -1.03894785728573
 6  11.05529241714171 -0.04564981708171  0.00444762506251
 6  10.88603000790079  0.10151679367937  2.53079541974197
 6  12.81049416611661  1.11206442724272  1.38763181418142
 6  12.48565487168717  0.46366523982398 -1.90236418421842
 6 -4.75362185788579  2.22070457645765 -0.44609945884588
 6  9.83161434893489  0.38603940674067 -0.04784596129613
 6 -3.32299745814581  2.53126187988799 -0.43189345004500
 6  8.55433521952195  0.79453578737874 -0.23016735673567
 6 -3.06804848994899  3.97647910741074 -0.53152288438844
 6 -2.25493240834083  1.59114096279628 -0.22416495119512
 6  7.34445398789879  0.06979756775678 -0.00514969906991
 6  7.54005874237424 -1.41935888798880  0.10297021992199
 6  6.11797314531453  0.68717564786479 -0.17081101710171
 6 -0.96317044854485  1.96459558325833 -0.10994917001700
 6  4.86912851565156  0.11849096519652  0.07505887468747
 6  0.02129860886089  1.00894420432043  0.15953685088509
 6  3.71701110881088  0.82422277267727  0.05899843084308
 6  1.39437137793779  1.28789051675168  0.04078169726973
 6  2.34226212671267  0.30554985468547  0.03070642854285
 6  2.20307016871687 -1.18264244454445  0.20044863846385
 1 -12.71345314611461 -2.96805978377838 -0.75866109010901
 1 -13.56272149584958 -1.71724570877088 -1.61541799649965
 1 -13.60359816201620  0.11027809660966  1.96087877057706
 1 -13.94243363696370  0.63781890899090  0.34785245084508
 1 -14.53891119521952 -1.71749046244625  0.64998660296030
 1 -10.67301591849185 -3.25108189098910 -1.48341363676368
 1 -11.23311352025203 -2.26508129952995 -3.11926021222122
 1 -9.73691587508751 -1.88956816541654 -2.14929654215421
 1 -9.34654330913091  1.11994412541254 -0.66554036413641
 1 -9.75278660626063  0.41004226832683  2.12826856965697
 1 -11.49890525142514  0.53264996659666  2.95252360246025
 1 -11.01768246194619 -1.06496337283728  2.18273906360636
 1 -12.14582712521252  2.24747086908691 -0.27705448944894
 1 -12.17146338573857  2.40578615411541  1.45026873867387
 1 -10.77321760386039  2.53594418491849  0.54965925942594
 1 -12.06965003750375 -2.50191306490649  1.15001948084808
 1 -8.93543438533853 -1.82225058275828  0.04989408830883
 1 -5.43279272537254 -1.91333465856586 -0.24777282168217
 1 -5.92822523782378 -1.39991522412241  1.58297669386939
 1 -6.84248435903590 -2.78176044904490  0.38668481928193
 1 -7.13150446154615  1.70306863596360 -0.68627830433043
 1 -4.46106275097510  0.14332295069507  0.23876010031003
 1  13.36651232833283 -1.17416910431043  2.27113205380538
 1  12.03375855285529 -2.13295267526753  1.57471347104710
 1  13.80339269616962 -2.66028769376938  0.29869679557956
 1  12.98275571407141 -2.03688016651665 -1.91266436113611
 1  11.90938094629463 -2.68737786168617 -0.71211655375538
 1  11.56336594479448  0.59184955165517  3.27963300200020
 1  10.27623460116011  0.71939750285029  2.27039456365637
 1  10.47947556875688 -0.79410772527253  2.88290453165316
 1  13.52064896679668  1.19343796799680  0.59622368716872
 1  12.22716532973297  2.11117055485549  1.26077078277828
 1  13.27955379247925  1.39843432253225  2.46589307090709
 1  12.58378919841984  0.00861425182518 -2.91886433833383
 1  11.79890695909591  1.23856594749475 -1.89869780468047
 1  13.62590342294229  0.51509756265627 -1.36712219761976
 1 -5.51783400730073  3.12349673647365 -0.66319773057306
 1  9.88397964856486 -0.23058171577158 -2.05653798959896
 1  15.05378822402240 -0.73730354475448  0.76297489678968
 1  8.38759060986099  1.85249757695770 -0.70675795299530
 1 -2.49779486368637  4.24672112181218  0.55417124682468
 1 -2.40344910921092  4.20307753255326 -1.46309941904190
 1 -3.92973935903590  4.59306748854885 -0.66820662216222
 1 -2.55140476057606  0.69512172417242 -0.13513646824682
 1  6.53943669356936 -2.15996555865587 -0.07844535983598
 1  8.23162837733773 -1.74543926872687 -0.63444421852185
 1  8.03396331793179 -1.87316964536454  0.95182894379438
 1  6.21833698079808  1.76144995039504 -0.37239925962596
 1 -0.42325368236824  2.93007705120512  0.01866195469547
 1  4.86778276467647 -0.84335083178318  0.43832651375138
 1 -0.45908483168317  0.13426161326133  0.48161077217722
 1  3.77861702960296  1.98667430363036  0.01978975397540
 1  1.74523139833983  2.35614140604060  0.21924922652265
 1  1.19072790759076 -1.50003660786079  0.55210420602060
 1  2.28610993579358 -1.80199650115011 -0.86935470547055
 1  2.91565826222622 -1.63156738573857  1.03712699929993
=======
>>>>>>> 6a1b998aacd80a23911c140f266e48a14f2d523d

