%nproc=3
%Mem=2GB
# td=(NStates=1) CAM-B3LYP/6-31G(d,p) 

TD

0 1
 8 -11.86473314091409  0.22680332873287 -1.44504166776678
 8 -13.10857169296930 -2.48638694669467  1.38080376537654
 8  10.62414793469347 -0.95780566846685 -2.02973669997000
 8  14.48973233993399 -0.98100682218222 -0.15889037643764
 6 -11.06414458165817 -0.09780373507351 -0.30793021742174
 6 -11.63557984768477 -1.14588576847685 -1.15965480578058
 6 -11.86669871287129  0.29845652845285  0.94224387938794
 6 -12.99938514221422 -1.77007716561656 -0.95668730273027
 6 -13.37545600360036 -0.10400784838484  0.90006469436944
 6 -13.57747418091809 -1.54359589738974  0.53132189948995
 6 -10.62418800750075 -1.92364778227823 -2.13835615391539
 6 -9.57795723952395  0.08912604640464 -0.32382934103410
 6 -11.34161013841384 -0.18541413741374  2.37845291239124
 6 -11.76129650995099  1.90603570667067  0.95537362906291
 6 -8.58689211091109 -0.75348338953895  0.25129386838684
 6 -7.22429041864186 -0.46436828292829  0.29395709600960
 6 -6.37690170507051 -1.76194488328833  0.55751798809881
 6 -6.59239490119012  0.74729555945595 -0.06520507570757
 6 -5.24786472807281  0.95835787248725 -0.09596392659266
 6  11.90451969886989  0.06709673917392  1.42405193329333
 6  11.59068635873587 -0.50475663086309 -1.20764464416442
 6  12.69848707680768 -1.31549577927793  1.48463319671967
 6  13.36745143184318 -1.74669920332033  0.17361132553255
 6  12.33760869556956 -1.84751926092609 -1.00001396389639
 6  11.11610849874987  0.04395914381438  0.09770695099510
 6  11.10456186108611  0.06907354935494  2.74195653585359
 6  12.99637275397540  1.20190341114111  1.46724977597760
 6  12.53668997519752  0.47855672897290 -2.00122407020702
 6 -4.73122961866187  2.24224673067307 -0.53914876377638
 6  9.92777396489649  0.56487729052905  0.14679350265026
 6 -3.41865702410241  2.57918667236724 -0.59531979267927
 6  8.61917170317032  0.93891022482248  0.01011667166717
 6 -3.00262194729473  3.96270773027303 -0.95525525762576
 6 -2.28459537463746  1.64968681738174 -0.35117765246525
 6  7.46900644314431  0.03475406340634  0.14021483738374
 6  7.68801353785379 -1.37182413451345  0.20928085098510
 6  6.29735108310831  0.62235916621662 -0.07095103110311
 6 -0.91156528802880  1.83163228692869 -0.38513668876888
 6  4.96168777157716  0.05240435653565 -0.22098072927293
 6  0.09469594859486  0.93188649854985 -0.17108621142114
 6  3.79790919861986  0.85061541194119 -0.24638210721072
 6  1.38684062486249  1.17815954365437 -0.30619300020002
 6  2.52583048354835  0.25021432113211 -0.15127176927693
 6  2.37751761346135 -1.11864604490449  0.11587018061806
 1 -12.99126092689269 -2.74402738053805 -1.13510873487349
 1 -13.63659888358836 -1.34297828202820 -1.63769022372237
 1 -13.83863166536654  0.01362843164316  1.84107679037904
 1 -13.77903729732973  0.70206533363336  0.10817848344834
 1 -14.66087339143914 -1.61726043944394  0.29803140744074
 1 -10.23723234013401 -2.75409219201920 -1.44650994639464
 1 -11.27712792169217 -2.31307609900990 -2.93778206440644
 1 -9.95332751625163 -1.08917812641264 -2.65274688718872
 1 -9.24342299709971  0.96473860486049 -0.84174798489849
 1 -10.16308763636364  0.14721598569857  2.62570831363136
 1 -11.92459782068207  0.34410111171117  3.30006835693569
 1 -11.48230892459246 -1.20257713421342  2.39958074777478
 1 -12.22745528802880  2.20452657465747 -0.09251603560356
 1 -12.23409964936494  2.49864544004401  1.76868057985799
 1 -10.67361764386439  2.32212280278028  1.00742503600360
 1 -12.17548062056206 -2.43850672427243  1.18195267416742
 1 -8.87743858575858 -1.64814317201720  0.67879697859786
 1 -6.06450589668967 -2.53092641774177 -0.60663870827083
 1 -5.20774318961896 -1.39324455705571  1.01287968416842
 1 -7.05043515411541 -2.50031230423042  1.32189834063406
 1 -7.33807511861186  1.59523785288529 -0.08944862136214
 1 -4.58223486818682  0.12018063646365  0.20379660396040
 1  13.27852352945295 -1.46475816321632  2.43809875047505
 1  11.87473265026503 -2.07891727172717  1.45404140384038
 1  13.75502785968597 -2.78329999499950  0.24463138903890
 1  12.81529896839684 -2.29643612211221 -2.07048014271427
 1  11.85120512871287 -2.58600772467247 -0.69615495759576
 1  11.59148875707571 -0.04533416671667  3.73646868556856
 1  10.53358033573357  1.04590015311531  2.88631615581558
 1  10.22372999419942 -0.63270158465847  2.78688492969297
 1  13.56119302120212  1.28969759395940  0.57397146194619
 1  12.35005761896190  2.22064150195020  1.70470517621762
 1  13.84774061116112  0.89282376147615  2.32704918651865
 1  12.91995281478148 -0.13857046664666 -2.76991944384438
 1  12.05069213761376  1.42642473337334 -2.42150008490849
 1  13.33844467706771  0.90879693259326 -1.53214870027003
 1 -5.34915713961396  3.26894128092809 -0.53925533633363
 1  9.89837108770877 -0.26158481608161 -2.00074241004100
 1  15.09223206840684 -0.97601741614161  0.39523812311231
 1  8.46892874367437  2.12362468966897  0.17592031483148
 1 -2.45504058825883  4.39401585128513 -0.17484165446545
 1 -2.49840860516052  3.97579480428043 -1.84772788188819
 1 -3.98352473757376  4.49522770457046 -1.05077487898790
 1 -2.57312693279328  0.61693390539054 -0.18778173277328
 1  6.70981373127313 -1.93045260736074 -0.05977349264926
 1  8.47820303480348 -1.52978770357036 -0.49709048314831
 1  7.93744366596660 -2.00233256165617  1.20226398729873
 1  6.36936208330833  1.85106891229123  0.08478645894589
 1 -0.59377073407341  2.90700474397440 -0.69527943944394
 1  5.01728771517152 -1.12248874557456 -0.32244956385639
 1 -0.06133505670567 -0.24317613051305 -0.12208959785979
 1  3.85363453135314  1.92777841404140 -0.12643486848685
 1  1.56388326352635  2.33112890479048 -0.30213291169117
 1  1.32079091389139 -1.55401200540054 -0.07254825922592
 1  3.10338166296630 -1.73135943744374 -0.66584435443544
 1  2.72178887528753 -1.59884411341134  1.12213550015002

