%nproc=3
%Mem=2GB
# td=(NStates=1) CAM-B3LYP/6-31G(d,p) 

TD

0 1
 8 -11.70140680828083  0.18352900130013 -1.66780394399440
 8 -12.95357619341934 -2.48024633263326  1.43203888888889
 8  10.57424294419442 -1.00992087998800 -2.22185591189119
 8  14.44993836053605 -1.00283900540054 -0.15016950435044
 6 -11.09262742994299 -0.18628258295830 -0.44471389578958
 6 -11.76603289298930 -1.23262444234423 -1.17265610591059
 6 -11.80455249824982  0.27130381318132  0.89286894189419
 6 -13.03446865056506 -1.79143930183018 -0.88822045604560
 6 -13.26412487048705 -0.00524797239724  0.79538422632263
 6 -13.52832926642664 -1.59439097689769  0.52190095739574
 6 -10.90189577827783 -2.17292270977098 -2.16185850415041
 6 -9.61098054185419  0.06779391319132 -0.50128708680868
 6 -11.13878985638564 -0.22952854885489  2.21398646574657
 6 -11.67760814111411  1.74745984908491  0.99038713041304
 6 -8.62565598729873 -0.61951999319932  0.16899563856386
 6 -7.19652764236424 -0.46992883898390  0.15097279757976
 6 -6.28369238413841 -1.64932362116212  0.53253548984898
 6 -6.67196285798580  0.76062689258926 -0.23142169736974
 6 -5.31988192979298  1.02699473617362 -0.23755808600860
 6  11.89535878277828 -0.02850282078208  1.27983751185119
 6  11.65018230833083 -0.64415057025703 -1.34031791149115
 6  12.66062329042904 -1.38752298199820  1.43510824422442
 6  13.43437812451245 -1.87665219861986  0.23156712111211
 6  12.43508844354435 -1.85174968396840 -1.00844480698070
 6  11.06210309820982  0.10688543644364 -0.00510333003300
 6  10.95047645254525 -0.04939829782978  2.42280462066207
 6  12.90771388808881  1.19512273307331  1.33417646864686
 6  12.40031633783378  0.28953782708271 -2.13004695249525
 6 -4.70077657335734  2.29487199319932 -0.49527437633763
 6  9.86383757125713  0.44068487128713 -0.08561973867387
 6 -3.27563272167217  2.61040979467947 -0.47765802650265
 6  8.62056184218422  0.91184751855186 -0.10069440944094
 6 -3.00494217931793  4.05772723222322 -0.81463119521952
 6 -2.25705262036204  1.66940878957896 -0.18370090479048
 6  7.48397794029403  0.11574216221622  0.11181199709971
 6  7.66796153265327 -1.28082503460346  0.45169509240924
 6  6.26205755375538  0.79212614291429 -0.03769770577058
 6 -1.02770690219022  1.89941906560656 -0.24820299539954
 6  4.92831443424342  0.22586170227023  0.12753412221222
 6  0.04078055705571  1.07025033493349  0.03814471167117
 6  3.77932734043404  0.89928027842784 -0.08435590459046
 6  1.51628356915692  1.34666639433943  0.16446406550655
 6  2.50314821532153  0.48062736243624  0.30060341824182
 6  2.44963482518252 -1.05550973127313  0.44116270987099
 1 -13.00228202900290 -2.81368434623462 -1.11941716571657
 1 -13.90224544824482 -1.38607259145915 -1.52815927062706
 1 -13.85215301750175  0.14591165996600  1.65184786748675
 1 -13.54348374197420  0.75644077117712  0.06913457905791
 1 -14.67402470657066 -1.74924363776378  0.64639624392439
 1 -10.57469608650865 -3.38706548934893 -1.76183147854785
 1 -11.36815702460246 -2.33905869726973 -3.00874916111611
 1 -10.16163834733473 -1.70526973557356 -2.58486009850985
 1 -9.37696635143514  0.90576270727073 -1.19739354945495
 1 -10.33519484708471  0.56201746584658  2.19857560036004
 1 -11.73001836273627 -0.01258455685569  3.09472782288229
 1 -10.79388008170817 -1.23456033253325  2.16594738443844
 1 -12.25519806230623  2.15151127312731  0.23278649464947
 1 -12.19826606600660  2.09770534603460  1.86192990479048
 1 -10.55604588668867  2.18946953745375  0.98976326982698
 1 -11.94424749724972 -2.37323019661966  1.27800227912791
 1 -9.08899974187419 -1.58267662536254  0.66395549444945
 1 -5.51886133223322 -2.02406573167317 -0.32744078847885
 1 -5.50844325962596 -1.55509074167417  1.32371076727673
 1 -6.80028013861386 -2.62797507050705  0.99581573237324
 1 -7.43675498659866  1.55571390049005 -0.49943962046205
 1 -4.57466411111111  0.23445206360636 -0.10965474117412
 1  13.36223190029003 -1.48406009340934  2.02275721632163
 1  11.83935911291129 -2.08312769276928  1.68699469916992
 1  13.87155951285129 -2.88783044804480  0.34326125202520
 1  13.11121856035603 -2.13077955645565 -1.90737383208321
 1  11.64079408760876 -2.65150427432743 -0.84616995909591
 1  11.49871948014802  0.10653101980198  3.49791483018302
 1  10.37189416711671  0.84214977807781  2.34050157435744
 1  10.21082870407041 -0.87455577007701  2.44722096329633
 1  13.58284518641864  1.00348897309731  0.54414847964797
 1  12.48561117431743  2.10014945274528  1.15349005470547
 1  13.15046088318832  1.36900137923792  2.30795727732773
 1  12.60577139663966 -0.07665427502750 -3.19688214011401
 1  11.93741080948095  1.17911000190019 -2.30588852375238
 1  13.21833266586659  0.84119017191719 -1.57790327572757
 1 -5.31150337423742  3.28325271207121 -0.68686009680968
 1  10.23009426002600 -0.26003466106611 -2.51668400420042
 1  15.25656850205020 -1.15715552995299  0.58083668296830
 1  8.40240209100910  2.03906623382338 -0.24698197539754
 1 -2.74174925912591  4.73654010371037  0.12122795249525
 1 -2.19949871417142  3.84187141194119 -1.72666577567757
 1 -3.93507989308931  4.56898508030803 -1.26510631213121
 1 -2.76113573367337  0.76078829082908 -0.02509546414641
 1  6.78134088398840 -1.92638220032003  0.14335682038204
 1  8.43600881538154 -1.71011573637364 -0.26257703180318
 1  7.98078800040004 -1.53702603100310  1.52320608150815
 1  6.45451059815982  1.86497030243024 -0.15644766446645
 1 -0.63564492149215  3.02341638513851 -0.40822073357336
 1  4.89432541894189 -0.78148464516452  0.57728040914091
 1 -0.32671159435944  0.09385757285729  0.20381299239924
 1  3.97251641954195  1.84684032023202 -0.35021724672467
 1  1.66178305350535  2.40627641954195 -0.09615231363136
 1  1.37355619041904 -1.53261986618662  0.27731672727273
 1  3.17930925572557 -1.54901120262026 -0.16191396139614
 1  2.64455115151515 -1.26603083208321  1.48515180178018

