%nproc=3
%Mem=2GB
# td=(NStates=1) CAM-B3LYP/6-31G(d,p) 

TD

0 1
<<<<<<< HEAD
 8 -11.75430209780978  0.21311195959596 -1.49304646824682
 8 -12.86046688248825 -2.46171447944794  1.49393507850785
 8  10.52937845774577 -1.01446133403340 -2.11571529782978
 8  14.52637600430043 -1.07040576207621 -0.09983447084708
 6 -11.02234040124012 -0.17390134483448 -0.38593801820182
 6 -11.66975326502650 -1.18260944084408 -1.29606844714471
 6 -11.74220626362636  0.38958564136414  1.00227988298830
 6 -13.08719392309231 -1.70479063696370 -0.87720935493549
 6 -13.10073853185319 -0.03105055265527  1.06703139103910
 6 -13.44152058555856 -1.46544808260826  0.60639940724072
 6 -10.91907749644965 -2.00850626812681 -2.13524584288429
 6 -9.54283372717272  0.09726686048605 -0.37362432053205
 6 -11.05686166356636 -0.15085068106811  2.21729679677968
 6 -11.56418679897990  1.90399550265027  0.99981807350735
 6 -8.60503392509251 -0.86531457265727 -0.01195245624562
 6 -7.13400138973897 -0.58980082618262  0.01313901420142
 6 -6.29416343124312 -1.82898158695870  0.43237547384738
 6 -6.67176283798380  0.68007883778378 -0.12410096529653
 6 -5.27422736433643  0.90664270097010 -0.10185451565157
 6  11.86274552145215 -0.01533150365037  1.40803033113311
 6  11.58180547064707 -0.55279143434343 -1.27025090479048
 6  12.58537576567657 -1.34576880658066  1.49450418381838
 6  13.38689337603761 -1.79743427682768  0.19785374977498
 6  12.40476541124112 -1.89841435043504 -1.02334629712971
 6  11.06627351525152  0.01964671257126  0.17497467776778
 6  10.96207761266127  0.13047968996900  2.68702104230423
 6  12.87790090679068  1.13735695649565  1.40799385038504
 6  12.30470677687769  0.48798767206721 -2.03302725052505
 6 -4.74033052875287  2.23801630763076 -0.40110495939594
 6  9.89568075557556  0.57145794859486  0.15316413971397
 6 -3.29936509490949  2.49951870557056 -0.50251051175118
 6  8.69890967696770  1.04007034083408 -0.03587792779278
 6 -3.01146283138314  4.02360381988199 -0.88557828992899
 6 -2.36141305640564  1.62392424112411 -0.27116965166517
 6  7.44254379687969  0.21475206320632  0.02450326622662
 6  7.67455219171917 -1.23595054715472  0.24940486338634
 6  6.18650999899990  0.81571850215022 -0.03375731173117
 6 -1.00528465996600  1.79375849954996 -0.44709288438844
 6  4.95839744254426  0.16806592269227  0.06038740754075
 6 -0.00360388138814  0.90320363026303 -0.28820792359236
 6  3.78814822252225  0.88940929132913 -0.03013048204820
 6  1.42922486328633  1.16975870357036 -0.27795017591759
 6  2.48079598009801  0.40751005070507 -0.07027366946695
 6  2.19372923462346 -1.10379455975598  0.17133572717272
 1 -13.12732453325332 -2.86977995579558 -1.24701992599260
 1 -13.90546577027703 -1.09367335153515 -1.54346080078008
 1 -13.36985478767877  0.18763583238324  2.12422510521052
 1 -13.78545793939394  0.54557968506851  0.26921458705871
 1 -14.51676898099810 -1.84830354375438  0.49696130043004
 1 -10.81273989088909 -3.06525330813081 -1.76520181558156
 1 -11.38856906580658 -2.21759655105511 -3.16853513971397
 1 -9.91694387788779 -1.62531173977398 -2.24925653815381
 1 -9.35577423222322  1.18689082008201 -0.59460327042704
 1 -9.92400372797280  0.17797906200620  2.28827457025703
 1 -11.44380974187419  0.28074477607761  3.24095244534453
 1 -11.15055574927493 -1.07159403590359  2.29586037573757
 1 -11.86809935243524  2.24600072207221  0.06807002300230
 1 -11.98005424482448  2.56112168766877  1.91695540734073
 1 -10.59763004510451  2.34347493799380  1.11790608410841
 1 -11.90661373387339 -2.71639451305131  0.99735421432143
 1 -9.02231307320732 -1.73515187288729  0.35986508540854
 1 -5.85622506860686 -2.00677400250025 -0.50765881028103
 1 -5.48707112241224 -1.57686291889189  1.23456185238524
 1 -7.11125123572357 -2.69648192119212  0.57379353015302
 1 -7.40629194029403  1.50836916601660 -0.37671734823482
 1 -4.64916156085609  0.00836945534553  0.05079130343034
 1  13.29818549564957 -1.49705139253925  2.34840978157816
 1  11.86734191119112 -2.25516489648965  1.63292929262926
 1  13.69455181208121 -2.94815648064806  0.21073799969997
 1  12.96691412991299 -2.30063654215422 -1.95517861256126
 1  11.61144115231523 -2.73046217011701 -0.76796213831383
 1  11.58584819301930  0.00490085678568  3.64736977567757
 1  10.78284526222622  1.10984654775478  2.75004252845284
 1  10.28829645084508 -0.71997031153115  2.62579882108211
 1  13.67049395129513  1.09730835503550  0.60870493529353
 1  12.36018863206321  2.18076751455146  1.09030373607361
 1  13.31096693379338  1.16724120322032  2.41012749434943
 1  12.52454327382738  0.18831222162216 -2.92725517741774
 1  11.59365643404340  1.25205729662966 -2.09939787468747
 1  13.15102593519352  1.02948900180018 -1.30746623202320
 1 -5.41558378227823  3.17758214501450 -0.61405281608161
 1  9.85473672427243 -0.32069072667267 -2.10809314511451
 1  15.32501534673467 -1.56521633603360  0.61360996029603
 1  8.63320517131713  2.09452177937794 -0.02168944614461
 1 -2.38287337153715  4.37851430113011 -0.11796596689669
 1 -2.34702346664666  3.91751897669767 -2.06159926902690
 1 -3.73968035313531  4.45103328512851 -1.01030083158316
 1 -2.40275989608961  0.54902711471147 -0.15697865246525
 1  6.86250900080008 -1.95604516661666  0.04024650935093
 1  8.52398761326133 -1.74384910971097 -0.36900767486749
 1  7.67436735833583 -1.47587991639164  1.37132089298930
 1  6.24177932503250  1.86900070547055 -0.39042106180618
 1 -0.59950130713071  2.94350839433943 -0.75218513001300
 1  4.83110909730973 -0.88520501720172  0.33760644174417
 1 -0.27783670687069 -0.19317113001300  0.07523013411341
 1  3.90347951585158  2.02572820902090 -0.18441066606661
 1  1.77200407560756  2.25436122802280 -0.70096279467947
 1  1.28989782458246 -1.36999360356036  0.42840183578358
 1  2.65858718351835 -1.61534783628363 -0.70920869086909
 1  2.74146084248425 -1.41565579457946  1.16379966656666
=======
>>>>>>> 6a1b998aacd80a23911c140f266e48a14f2d523d

