%nproc=3
%Mem=2GB
# td=(NStates=1) CAM-B3LYP/6-31G(d,p) 

TD

0 1
<<<<<<< HEAD
 8 -11.73412007960796  0.30441108950895 -1.53018018161816
 8 -13.04227506330633 -2.46182449044904  1.38475416041604
 8  10.55762128202820 -1.08001788968897 -2.08124185048505
 8  14.49297266396640 -0.99451817331733 -0.32626711411141
 6 -10.97872603980398 -0.07676163086309 -0.34871429582958
 6 -11.61894818451845 -1.06272745264526 -1.24613345364536
 6 -11.74130617361736  0.38071475427543  0.91329098409841
 6 -12.92986819051905 -1.73656381428143 -0.88392002600260
 6 -13.27772623062306 -0.06748419601960  0.91513620152015
 6 -13.57665409890989 -1.50640217801780  0.44759352665267
 6 -10.72853844254426 -2.01144656215622 -2.18944126242624
 6 -9.49921936573657  0.10846798059806 -0.44096105420542
 6 -11.04196017341734 -0.04686028202820  2.11966703380338
 6 -11.61639201950195  1.92819792289229  0.82390048174817
 6 -8.63924734643464 -0.66587462866287  0.18126686568657
 6 -7.20198818841884 -0.63483532963296  0.27863556385639
 6 -6.33713772867287 -1.80651934073407  0.44928716501650
 6 -6.71436709840984  0.54633546344634 -0.07424597979798
 6 -5.28162810441044  0.85040707740774 -0.09936426662666
 6  11.96730597749775  0.01896192569257  1.37166669476948
 6  11.62662995309531 -0.65009116431643 -1.29726360606061
 6  12.79156638473847 -1.25256948664866  1.51954668806881
 6  13.42390707740774 -1.81248578197820  0.16240020442044
 6  12.43615855055505 -1.92149665866587 -0.92745670817082
 6  11.07053394129413 -0.05106035813581  0.10542772307231
 6  11.04306571147115  0.36767340934093  2.63506584678468
 6  12.94614773147315  1.21318453925393  1.26924997599760
 6  12.38626493269327  0.42505137843784 -2.02978692649265
 6 -4.72817931363136  2.10503300930093 -0.41065591449145
 6  9.87506869436944  0.53013381618162  0.13202202550255
 6 -3.30529568796880  2.43926267996800 -0.26828708940894
 6  8.56385617161716  0.85591192499250  0.00854651465147
 6 -3.04808649374938  3.92046350585059 -0.65571530363036
 6 -2.31386830193019  1.58591043974397 -0.14502703740374
 6  7.37070661316132  0.06543713171317  0.12043285918592
 6  7.49003373987399 -1.32618957105711  0.39298922182218
 6  6.22674402240224  0.79449637993799 -0.04790872687269
 6 -1.00954508600860  1.87466659035904 -0.31317949304931
 6  4.88514011681168  0.21592070817082 -0.02149078027803
 6  0.05791227022702  0.89416272617262 -0.27224632743274
 6  3.83741314901490  0.95123547394739 -0.21011848084808
 6  1.47038897969797  1.22780450815082 -0.14262664356436
 6  2.48512641314131  0.39178847854785 -0.01412805490549
 6  2.27315717741774 -1.10092427272727  0.03305189878988
 1 -12.80542234303430 -2.79188216601660 -1.19252447644764
 1 -13.62179740344034 -1.50420440464046 -1.85508196289629
 1 -13.80042784498450 -0.19122205340534  1.95659834253425
 1 -13.83189258285829  0.75543067016702  0.22729039463946
 1 -14.61147845194519 -1.69553826722672  0.40069167346735
 1 -10.57246586348635 -2.81534831763176 -1.68579387478748
 1 -11.41102131103110 -2.31352614401440 -3.02509079527953
 1 -9.82540472397240 -1.42894210281028 -2.42441405390539
 1 -9.19768842364237  1.03905603660366 -0.79268307840784
 1 -9.92498382598260  0.08940020412041  2.22923866666667
 1 -11.63140850175017  0.33682038363836  3.07503585368537
 1 -11.13887458115811 -1.07285416191619  2.32799358905891
 1 -12.23226576907691  2.15256137813781  0.06294951095109
 1 -11.91232747214721  2.21132670817082  1.81944565636564
 1 -10.46613689578958  2.16642723322332  0.66075036853685
 1 -12.12004507700770 -2.25154802840284  1.43268774767477
 1 -9.18036887878788 -1.57651600930093  0.65546464536454
 1 -5.86835628172817 -2.10616394149415 -0.37101514591459
 1 -5.62177459275928 -1.77261249384938  1.46568496469647
 1 -6.89390950155016 -2.73364563756376  0.93286943774377
 1 -7.40585189628963  1.43882221132113 -0.16574625112511
 1 -4.61249789448945  0.02737135553555  0.01803802810281
 1  13.43620929802980 -1.18337002440244  2.37050199079908
 1  12.08061323832383 -2.01913129312931  1.78521452115211
 1  13.88976133303330 -2.83379504450445  0.40136706260626
 1  13.07562500100010 -2.12878935743574 -1.69725281998200
 1  11.74327433563356 -2.84076320022002 -0.61027636973697
 1  11.77269687788779  0.59630999769977  3.48793383208321
 1  10.44883186088609  1.35735129822982  2.18452597679768
 1  10.32083970517052 -0.51557987248725  2.64728096929693
 1  13.82237913981398  0.94425304950495  0.40826489128913
 1  12.30579319251925  2.11725116291629  0.95239994569457
 1  13.76136197329733  1.38353283238324  2.09257573917392
 1  12.71652247174718 -0.03546015561556 -2.88464091599160
 1  11.59429649804980  1.20421251215122 -2.39699763466347
 1  13.15952678527853  0.83180923382338 -1.51461694709471
 1 -5.52988521242124  2.96796118291829 -0.38074948574857
 1  9.85214646524653 -0.36998565616562 -2.08490082588259
 1  14.90722356755676 -0.57438725312531  0.72443104240424
 1  8.29960181098110  1.86411873907391 -0.37453473067307
 1 -2.26891197539754  4.38035448514851  0.13614944464446
 1 -2.72223098739874  3.91899912471247 -1.66961007010701
 1 -3.95046143124312  4.49232741454145 -0.75614541604160
 1 -2.54933455355536  0.47695990799080  0.15105215061506
 1  6.58274102400240 -1.91931149324932  0.07232971767177
 1  8.15924113861386 -1.82190691549155 -0.19299007310731
 1  7.43519344094409 -1.61121344974497  1.43241700260026
 1  6.31422656975698  1.76946075147515 -0.29187120682068
 1 -0.71466282328233  2.85764980848085 -0.44832474397440
 1  4.59588557495750 -0.85029152585259  0.34964764586459
 1 -0.34578350155016 -0.26877869076908 -0.25619300820082
 1  3.92073124102410  1.94166980318032 -0.55216744174417
 1  1.67725460066007  2.22015780768077 -0.21351404980498
 1  1.16363519831983 -1.49187579177918 -0.49167017141714
 1  3.24159548434844 -1.45830213171317 -0.52182995299530
 1  2.12872956935694 -1.39009323832383  1.16187947454745
=======
>>>>>>> 6a1b998aacd80a23911c140f266e48a14f2d523d

