%nproc=3
%Mem=2GB
# td=(NStates=1) CAM-B3LYP/6-31G(d,p) 

TD

0 1
<<<<<<< HEAD
 8 -11.73686035363536  0.28504915331533 -1.51892905650565
 8 -13.16297713351335 -2.31852016001600  1.41144682968297
 8  10.65658117801780 -1.12429231713171 -2.04008773507351
 8  14.56878024472447 -0.93602232373237 -0.03372786018602
 6 -11.05271343854385 -0.17699165386539 -0.30526995139514
 6 -11.71736802650265 -1.11389256915692 -1.18632747304730
 6 -11.73032507550755  0.45411209400940  1.00749040404040
 6 -13.12859806350635 -1.68601875977598 -0.92817445144514
 6 -13.23483194119412  0.12579513191319  0.90219490739074
 6 -13.62883931743174 -1.26988852665267  0.46229499679968
 6 -10.75733132183218 -1.98955437293729 -2.10568288658866
 6 -9.64227367116712  0.07223435723572 -0.33193015111511
 6 -11.10818679607961 -0.20737633363336  2.14572964006401
 6 -11.59725010531053  1.94868997209721  0.91768986068607
 6 -8.68649207090709 -0.77030507170717  0.25892463146315
 6 -7.26516450605061 -0.66281812791279  0.18716641694169
 6 -6.41027504240424 -1.88153684248425  0.35175741204120
 6 -6.60386604830483  0.55621645154515 -0.15342389758976
 6 -5.23482342394239  0.76965900260026 -0.20869519971997
 6  11.88425767266727  0.14355438493849  1.36737626572657
 6  11.73001029112911 -0.58721487668767 -1.25176905660566
 6  12.65469269736974 -1.19538376807681  1.59419415281528
 6  13.42753744044404 -1.72109664306431  0.37609157355736
 6  12.55484041874187 -1.90154466346635 -0.72486644914491
 6  11.10081696959696  0.07453220112011  0.08610579087909
 6  10.93602500740074  0.36067270927093  2.52396473667367
 6  12.88337145384538  1.37528074887489  1.39349240024002
 6  12.65296160236024  0.37395626892689 -1.96925087288729
 6 -4.71637813351335  2.05065757175718 -0.30446529542954
 6  9.90947213471347  0.53314411721172 -0.11393256995700
 6 -3.30531568996900  2.44765351905191 -0.42276253695370
 6  8.66470625662566  1.00538687248725 -0.15282962296230
 6 -3.06188787388739  3.96381784128413 -0.47509724182418
 6 -2.30872778787879  1.54503635233523 -0.19740227492749
 6  7.45248479097910  0.16612720072007 -0.11997118121812
 6  7.63450818731873 -1.33667061916192 -0.05174525162516
 6  6.26266761476148  0.74792172247225 -0.17304124012401
 6 -0.92983711521152  1.80002912661266 -0.21453962906291
 6  4.94826642944294  0.11604072017202 -0.09027765896590
 6  0.01191767076708  0.73384669456946 -0.24817392019202
 6  3.71182058975898  0.80260061046105 -0.14116158515852
 6  1.36603854465447  1.03982571027103 -0.16982936383638
 6  2.50136803730373  0.16660596029603 -0.16269291139114
 6  2.35231509320932 -1.29757393769377 -0.03425483188319
 1 -13.22418421922192 -2.60566354415442 -1.16058128212821
 1 -13.81529675337534 -1.14997898209821 -1.62100855555556
 1 -13.68264606680668  0.42840990979098  2.07366004870487
 1 -13.70120951455145  0.98084321142114  0.21059872547255
 1 -14.67133443754375 -1.40309902330233  0.54295589988999
 1 -10.71755037193719 -2.88764554735474 -1.68069336473647
 1 -11.35284549344935 -2.24249904130413 -2.95410369656966
 1 -10.12361454495450 -1.12990219881988 -2.54034564706471
 1 -9.17723637843784  0.99268139913991 -0.71491530163016
 1 -10.10111143874387  0.32278354245425  2.30838658145815
 1 -11.70907626852685 -0.17870116851685  2.98924727482748
 1 -10.89184987868787 -1.26874375087509  2.19077986768677
 1 -12.14234677717772  2.45884200620062  0.05811902790279
 1 -12.15295153455346  2.23742931843184  1.91335504730473
 1 -10.55974625672567  2.34283487398740  1.05543983748375
 1 -12.33385645814581 -2.58970184378438  1.34327880678068
 1 -9.11972281418142 -1.65322368006801  0.77019611851185
 1 -6.15264471057106 -2.16630995609561 -0.76652469686969
 1 -5.63688610391039 -1.59850508310831  0.98314671087109
 1 -6.95434554515452 -2.75163743674367  0.77632378317832
 1 -7.17897920902090  1.45134346344634 -0.15286496299630
 1 -4.46373301800180  0.09272789118912 -0.09142291799180
 1  13.37548322542254 -1.07302899029903  2.49857479807981
 1  12.14683986098610 -2.15341472147215  1.94776077577758
 1  13.81635399229923 -2.83942560756076  0.30606753265326
 1  13.13836127462746 -2.36705318381838 -1.57441053575358
 1  11.82790279847985 -2.69019814371437 -0.68857419951995
 1  11.56219582778278  0.33660402710271  3.48345338403840
 1  10.40410738843884  1.32904846794679  2.40691821602160
 1  10.12680030123012 -0.43811212571257  2.52334857605761
 1  13.37330423232323  1.35003362756276  0.44063812861286
 1  12.07603021622162  2.12567200500050  1.45221992769277
 1  13.43132896999700  1.25062954205421  2.17538402000200
 1  12.90471129062906 -0.05495210481048 -3.01349380128013
 1  12.09780684908491  1.30370246114611 -2.13623155805581
 1  13.66650748334833  0.59974602750275 -1.60930641604160
 1 -5.46159838373837  2.89190357715772 -0.26737814861486
 1  10.02937418801880 -0.30401905950595 -2.18166050185018
 1  14.97148999419942 -0.63068288268827  0.82358095739574
 1  8.48906075687569  2.11641396859686 -0.25503278047805
 1 -2.34150923512351  4.21793824352435  0.46821265096510
 1 -2.56415517981798  4.11586881168117 -1.33000610971097
 1 -4.01624800990099  4.52034021582158 -0.54411421292129
 1 -2.50567018711871  0.40583279527953 -0.09007196179618
 1  6.75540829072907 -1.86985654775478  0.02078456315632
 1  8.20422563706371 -1.64832955775578 -0.91482225632563
 1  8.22653257485749 -1.56181851025103  0.87563132403240
 1  6.30531567866787  1.82664647004701 -0.07725974567457
 1 -0.63201455845585  2.85319936343634  0.18303839233923
 1  5.08461444784478 -0.96889338603860 -0.12782010091009
 1 -0.44570349354936 -0.28012982588259 -0.42222961186119
 1  4.08691785968597  1.85565120132013 -0.24076630163016
 1  1.68636551175118  2.00707649954995 -0.58740143854385
 1  1.23628246304630 -1.48559516371637 -0.11663266766677
 1  2.81235256005601 -1.82553885538554 -0.70101787178718
 1  2.76266296269627 -1.56229045804580  0.98868215481548
=======
>>>>>>> 6a1b998aacd80a23911c140f266e48a14f2d523d

