%nproc=3
%Mem=2GB
# td=(NStates=1) CAM-B3LYP/6-31G(d,p) 

TD

0 1
<<<<<<< HEAD
 8 -11.76359302690269  0.32762341074107 -1.48287545114511
 8 -13.05742657845785 -2.36866517451745  1.55737142214221
 8  10.66535205510551 -0.80908079597960 -2.14188791509151
 8  14.41415478217822 -0.88564728622862  0.05426093869387
 6 -10.99745791299130 -0.06698065276528 -0.27869729412941
 6 -11.75008129782978 -1.07225840574057 -1.23846268656866
 6 -11.71221326432643  0.44918160096010  0.99736939193919
 6 -13.11472667636764 -1.64409456735674 -0.84715634963496
 6 -13.18992745074508  0.16344889728973  0.99615430333033
 6 -13.51349778327833 -1.32854439223922  0.68961772907291
 6 -11.01222681138114 -1.94444986248625 -2.18670098839884
 6 -9.53168261206121  0.03825095889589 -0.47840479857986
 6 -11.11209718711871 -0.06889248524852  2.34005907300730
 6 -11.55476585688569  2.01866696979698  0.96965505720572
 6 -8.64049747144714 -0.91698974017402  0.06301504050405
 6 -7.25639362896290 -0.68054990109011  0.06029372967297
 6 -6.37829184408441 -2.02557124592459  0.26606884318432
 6 -6.62429809150915  0.48240907080708 -0.09237779297930
 6 -5.16861680328033  0.78231026772677 -0.19876420662066
 6  11.84861410831083  0.02325235473547  1.39825935403540
 6  11.68593588368837 -0.46693284848485 -1.14893877357736
 6  12.61469869796980 -1.35268949864986  1.62266700010001
 6  13.36915160186019 -1.79932446584658  0.36740070447045
 6  12.46049098379838 -1.86098060706071 -0.89744370687069
 6  11.10552744064406 -0.00300555265527  0.10100728102810
 6  10.86727813271327  0.15194183618362  2.64165650585059
 6  12.79190230693069  1.26651987278728  1.45144819581958
 6  12.59587589378938  0.49965883918392 -1.91069501730173
 6 -4.75475197089709  2.03664617061706 -0.46124097299730
 6  9.93381456895690  0.54744554735474  0.01668049134913
 6 -3.38013317171717  2.39212796649665 -0.44605486618662
 6  8.76148593459346  1.05508184198420 -0.09861420142014
 6 -2.99347103220322  3.83922538203820 -0.71470120222022
 6 -2.35755267036704  1.42534438313831 -0.28010054475448
 6  7.44141368386839  0.15880646864686 -0.10245943004300
 6  7.68991372787279 -1.32617957005701  0.06860678357836
 6  6.23714506250625  0.78173510381038 -0.29041297729773
 6 -1.00356448794879  1.69007813151315 -0.39448762386239
 6  4.98777037983798  0.14308342444244 -0.13145177637764
 6  0.11379785878588  0.82674598449845 -0.14481358415842
 6  3.84838424612461  0.83288363876388 -0.16465393439344
 6  1.46236817761776  1.15199692739274 -0.28901128202820
 6  2.53924182468247  0.28327762746275 -0.16315295739574
 6  2.31486134783478 -1.14878905920592  0.00521911551155
 1 -13.08891069186919 -2.70440341814181 -0.58756398039804
 1 -13.82242746644664 -1.13737772197220 -1.56685314001400
 1 -13.74407220942094  0.41378844764476  2.03189587228723
 1 -13.58985837943794  0.65645077217722  0.15820348594859
 1 -14.67115441954195 -1.50308902230223  0.65955756005601
 1 -10.64852346924692 -2.94327110991099 -1.81685698109811
 1 -11.87362757165717 -1.98026281768177 -2.98298658485849
 1 -10.33583576707671 -1.13758296689669 -2.54672628512851
 1 -9.16629528432843  0.76142827382738 -1.03920773087309
 1 -10.09215054265426  0.30711197529753  2.53844958775878
 1 -11.65504086498650  0.29458616021602  3.15389373947395
 1 -10.86565725942594 -1.01439831633163  2.53650444014401
 1 -12.24671721422142  2.38576469846985  0.23542675867587
 1 -11.98156439583958  2.32460803630363  1.92420613241324
 1 -10.42410269236924  2.32530312081208  0.88506279977998
 1 -12.10410348284828 -2.58803167676768  1.19262374127413
 1 -9.07759860176018 -1.84973333103310  0.54141324022402
 1 -5.88057750385039 -2.29021234633463 -0.67944598899890
 1 -5.36181859715972 -1.89880511311131  0.88107650385038
 1 -6.70068017861786 -2.93311558455846  0.70110626142614
 1 -7.28932024312431  1.39798812791279 -0.04017369386939
 1 -4.59676632133213 -0.13701508310831  0.11623784808481
 1  13.17114279137914 -1.37657934533453  2.49977491809181
 1  11.74852002900290 -2.06384576457646  1.84077007670767
 1  13.89711206810681 -2.85830749574957  0.45229215511551
 1  13.25741317981798 -2.29378585708571 -1.65810890559056
 1  11.73536354455446 -2.63763288718872 -0.67234257635764
 1  11.34677428562856 -0.11372100540054  3.63164820352035
 1  10.23841081878188  1.22015757885789  2.76351387558756
 1  10.03692131333133 -0.88959727422742  2.64685092629263
 1  13.25648255015501  1.12944156835684  0.45435950075008
 1  12.13161577477748  2.13693313111311  1.53074778047805
 1  13.41730756785678  1.12498697779778  2.32032851445145
 1  12.61341216071607  0.16036942734273 -2.85270772267227
 1  12.04877194559456  1.44407649854986 -2.24626256115611
 1  13.62077290989099  0.75290134303430 -1.37336282168217
 1 -5.69619184308431  2.91664605140514 -0.35776718751875
 1  10.06668791939194 -0.14445310291029 -2.11446378217822
 1  14.93913675887589 -0.80291010541054  0.91374997429743
 1  8.48420027082708  2.06170849804981 -0.24887216441644
 1 -2.58725380958096  4.17012346204620  0.04781061076108
 1 -2.49397816211621  3.70053727852785 -1.63670677977798
 1 -3.83810019511951  4.41844002580258 -0.75760556205621
 1 -2.49247886798680  0.47628984098410 -0.16183913851385
 1  6.81103385328533 -1.86373593569357  0.15420790549055
 1  8.03915913041304 -1.70131485628563 -0.95016579067907
 1  8.48259818141814 -1.50129245764576  1.00883464436444
 1  6.11958710581058  1.85017882328233 -0.80343236293629
 1 -0.62892424942494  2.77309135263526 -0.62688259975998
 1  4.76663264966497 -0.94585108180818  0.00525320642064
 1 -0.05102402560256 -0.30518233113311 -0.00566795569557
 1  3.93407257515752  1.90571620782078 -0.14326655165517
 1  1.58029490469047  2.24020981288129 -0.47257995639564
 1  1.31141997679768 -1.39132573677368 -0.00334133853385
 1  2.91825315011501 -1.61452775427543 -0.80106787678768
 1  2.69978667506751 -1.62588681768177  0.96833011961196
=======
>>>>>>> 6a1b998aacd80a23911c140f266e48a14f2d523d

