%nproc=3
%Mem=2GB
# td=(NStates=1) CAM-B3LYP/6-31G(d,p) 

TD

0 1
 8 -11.68905557315732  0.26892754115412 -1.52692985658566
 8 -13.01144197999800 -2.61389969796980  1.29352503750375
 8  10.74217973787379 -1.13196308420842 -2.14925865216522
 8  14.58611197789779 -1.03786250775078  0.05925143774377
 6 -11.05414358155816 -0.08461241594159 -0.21934135853585
 6 -11.54466075577558 -1.10776195609561 -1.17352619291929
 6 -11.83334537753775  0.29162584538454  1.02120177517752
 6 -12.86631183488349 -1.78302846074607 -0.99903153715372
 6 -13.29530798879888 -0.23131057865787  0.94721940984098
 6 -13.49158559205921 -1.65644718251825  0.33326209350935
 6 -10.61248683738374 -1.82041745924592 -2.22732505080508
 6 -9.53154259805981  0.19075620942094 -0.23419037713771
 6 -11.12871884928493 -0.36795239123912  2.36109117621762
 6 -11.77882826312631  1.86182128522852  1.13985207690769
 6 -8.63873729542954 -0.72433047424742  0.24360309930993
 6 -7.26629461906191 -0.56573841994199  0.20393809410941
 6 -6.42476649154915 -1.85849453825383  0.36049828612861
 6 -6.71435709740974  0.64947577747775 -0.04905346054605
 6 -5.33889383098310  0.89186122282228 -0.06382071227123
 6  11.97221646854685 -0.06484645514551  1.36096562466247
 6  11.77318460856086 -0.76232238743874 -1.31060494019402
 6  12.63176040414041 -1.38480270997100  1.54017875127513
 6  13.40015470217022 -1.87109164256426  0.34689865426543
 6  12.51441637633763 -1.99196370537054 -0.92765672817282
 6  11.09158604650465 -0.07426267836784 -0.02394521422142
 6  11.02018342324232  0.13205984798480  2.49629196939694
 6  12.87514063076308  1.17648086888689  1.35974902590259
 6  12.66819312551255  0.27085595889589 -1.99015296309631
 6 -4.77123361906191  2.13679618561856 -0.50515536443644
 6  9.84506569406941  0.27543834663466 -0.19336051275127
 6 -3.40966612501250  2.65474422812281 -0.53547380808081
 6  8.68795858185818  0.91515784958496 -0.26633097309731
 6 -3.03811549664967  4.04489594909491 -0.91953168526853
 6 -2.40173708880888  1.76167801650165 -0.30000253495350
 6  7.44862440494049  0.16221680968097 -0.00706989108911
 6  7.53724846134613 -1.19494644674467  0.46193611651165
 6  6.26365771377138  0.82659959025903 -0.17428136413641
 6 -1.11577570907091  2.04352347604760 -0.43985216031603
 6  4.88056965976598  0.31505062116212 -0.17288591979198
 6  0.00351683068307  1.19113242314231 -0.04059316211621
 6  3.65862527022702  1.07018736913691 -0.22616008500850
 6  1.36893883468347  1.43566529422942 -0.18710109100910
 6  2.45388328882888  0.50708000770077  0.01550490839084
 6  2.22720258195820 -0.93869805010501  0.36913550715072
 1 -12.80301210201020 -2.93483646144614 -1.11463668766877
 1 -13.55157038073807 -1.41674565876588 -1.81928838353835
 1 -13.63455125732573 -0.49753268446845  2.04047673037304
 1 -13.97744713831383  0.38652377947795  0.35498316391639
 1 -14.53693099719972 -1.65584429782978  0.42920452475247
 1 -10.11405002190219 -2.70139692249225 -1.85534082948295
 1 -11.14668487738774 -2.08653344474447 -3.21070935713571
 1 -9.71870405390539 -1.24973418201820 -2.56074768726873
 1 -9.44053270807081  1.16365849684969 -0.57011082118212
 1 -10.09618094569457  0.24325558965897  2.28740448324832
 1 -11.50958631953195  0.03109981158116  3.27286563666367
 1 -10.82303299699970 -1.39674655115512  2.34755554525453
 1 -12.19439198169817  2.45920204220422  0.18474169016902
 1 -12.54345058445845  2.11636721222122  2.07669138093809
 1 -10.75008529062906  1.91791238173817  1.33176747024702
 1 -12.12303537603760 -2.89666253985399  1.15798027692769
 1 -9.02547338923892 -1.64913327102710  0.72014111301130
 1 -5.98186763286329 -1.96837016211621 -0.55338338273827
 1 -5.72318473377338 -1.69273450605061  1.10960935713571
 1 -7.39656976757676 -2.56058833183318  0.73944009480948
 1 -7.23284459555956  1.40125845494549 -0.17934761126113
 1 -4.81727837253725  0.19393801220122  0.19773599789979
 1  13.32576825392539 -1.47081876927693  2.52701764236424
 1  12.03842901990199 -2.19344872487249  1.89451545124512
 1  13.77980033693369 -2.93850551555156  0.58510543644364
 1  13.22899033753375 -2.31465794429443 -1.78120121482148
 1  11.66828683688369 -2.82590171407141 -0.63188853095310
 1  11.73900350855086  0.24263463016302  3.22623766246625
 1  10.42530950865086  1.10565612871287  2.40532805700570
 1  10.20994861606161 -0.54578289278928  2.79273551475147
 1  13.59811671357136  1.08610723492349  0.46326039083908
 1  12.18270088328833  2.02949238703870  1.05924062976298
 1  13.42245808290829  1.37128160726073  2.35205168676868
 1  13.13404422392239 -0.19201581118112 -2.98346079797980
 1  12.09038610701070  1.26193828472847 -2.05082301720172
 1  13.51479231183118  0.37780383328333 -1.28685417081708
 1 -5.68190041394139  2.79133352015202 -0.66265767656766
 1  10.25150640124012 -0.40195885348535 -2.30462279807981
 1  15.10736358155816 -0.96146596099610  0.84350294959496
 1  8.54673652445245  2.00252257945795 -0.29678695589559
 1 -2.87398248244824  4.40832728242824  0.11980781048105
 1 -2.20892965726573  4.06777400220022 -1.63685679477948
 1 -3.77585397049705  4.61882006380638 -1.52976277777778
 1 -2.62867248734874  0.63994620662066 -0.08168112271227
 1  6.58863161306131 -1.70234979707971  0.00619310401040
 1  8.34490970547055 -1.52067679247925 -0.05250602470247
 1  7.64432435403540 -1.34512684108411  1.63028678957896
 1  6.21461660876088  1.89928373377338 -0.53250527022702
 1 -1.02781413841384  3.12954699819982 -0.77968788028803
 1  4.72559854625463 -0.78603510021002  0.12644532563256
 1 -0.31109003220322  0.11335952305231  0.44998760986099
 1  3.67729689758976  2.25333096929693 -0.48923114811481
 1  1.51663853905391  2.59748554045405 -0.43380607900790
 1  1.22545137993799 -1.07410401460146  0.19881887748775
 1  2.95292661746175 -1.46711301280128 -0.32347011701170
 1  2.47464416081608 -1.05528975797580  1.42937622422242

