%nproc=3
%Mem=2GB
# td=(NStates=1) CAM-B3LYP/6-31G(d,p) 

TD

0 1
 8 -11.65430209780978  0.13909455785579 -1.55140230383038
 8 -13.32823365916592 -2.47624593259326  1.55857154215422
 8  10.56837235713571 -0.87668755665567 -1.99564329062906
 8  14.42501586828683 -1.15725444694469 -0.11100558795880
 6 -11.03937210441044 -0.25569952465247 -0.23746317071707
 6 -11.67688397809781 -1.29057023692369 -1.14581342164216
 6 -11.84276631963196  0.33424010681068  0.97026668166817
 6 -13.07299250295029 -1.74943510141014 -1.01189282328233
 6 -13.36073453145315 -0.01678912651265  0.84521920982098
 6 -13.60414684818482 -1.50553209100910  0.47520628792879
 6 -10.71529711841184 -2.00156557405741 -2.13112543084308
 6 -9.56760620442044  0.09980711451145 -0.27722468056806
 6 -11.16796277367737 -0.14663025902590  2.31285635273527
 6 -11.76924730503050  1.82331743484348  0.97875596729673
 6 -8.53649707140714 -0.74618265946595  0.12070080908091
 6 -7.20249823942394 -0.46463830993099  0.17411511181118
 6 -6.35160917581758 -1.72172086088609  0.42741497779778
 6 -6.60083574527453  0.67623845374537 -0.01506006120612
 6 -5.23852379397940  0.91054309100910 -0.07321165136514
 6  11.92364161106111 -0.00291026152615  1.41806133423342
 6  11.68830612071207 -0.52217837303730 -1.18798267796780
 6  12.63638086618662 -1.33047727742774  1.50817555095510
 6  13.19563425012501 -1.90360489388939  0.36990095449545
 6  12.35575050975097 -1.86581109010901 -0.96353031553155
 6  11.11242813071307  0.07824257215722  0.15152233253325
 6  11.11213261816182  0.15171181318132  2.64175651585159
 6  12.95552866956696  1.16689991079108  1.45258830983098
 6  12.62894920112011  0.49277815111511 -2.01116506430643
 6 -4.72031852755276  2.21085359135914 -0.32795764466447
 6  9.94191537903790  0.64081488428843  0.10480930423042
 6 -3.32327748614861  2.62120087378738 -0.47764802550255
 6  8.65868565456546  0.99275560936094 -0.07726206620662
 6 -3.03341502660266  4.09710116961696 -0.88747847994799
 6 -2.29067598269827  1.73354520322032 -0.27714024872487
 6  7.48744828732873  0.12178276627663 -0.02131131523152
 6  7.77897263376338 -1.37197414951495  0.02228215111511
 6  6.30909225722572  0.75354228452845 -0.23521745774577
 6 -0.87487161866187  1.93382250595060 -0.36162433753375
 6  5.00357195999600  0.15888500460046  0.04589595839584
 6  0.11122760176018  0.95472878277828 -0.34264336713671
 6  3.84031343904390  0.76665701610161 -0.24188165716572
 6  1.40433237403740  1.15757748544854 -0.24699708060806
 6  2.53075097559756  0.31250054975498 -0.03720036213621
 6  2.29605946764676 -1.17005118541854  0.13991258485849
 1 -13.21383318411841 -2.87069004680468 -1.16147137113711
 1 -13.82200742444244 -1.35231921612161 -1.58005446014601
 1 -13.53045084728473 -0.02794572577258  1.86490917361736
 1 -13.67428682228223  0.86046117321732  0.26265393099310
 1 -14.71803910801080 -1.55414412781278  0.47167877217722
 1 -10.35440405730573 -2.89721650445045 -1.68005330073007
 1 -11.44530473937394 -2.23864865626563 -2.92013029922992
 1 -9.85488767226723 -1.36554576317632 -2.30820243274327
 1 -9.38857751255125  0.98898102910291 -0.85310912101210
 1 -10.00013134073407  0.02967423152315  2.44674041684168
 1 -11.68988434933493  0.33008971057106  3.07129547964796
 1 -11.63308400210021 -1.16978385488549  2.61352214191419
 1 -12.17543008550855  2.03054917691769  0.02531574757476
 1 -12.41370761016102  2.29951552705271  1.66050976277628
 1 -10.79144942704271  2.35670626112611  1.13645793929393
 1 -12.50520359285929 -2.69065193879388  1.33160763966397
 1 -8.80630147204720 -1.89305766346635  0.39032813171317
 1 -5.90079952605261 -2.25977930303030 -0.48416646104611
 1 -5.47296971227123 -1.50004523712371  1.05521391759176
 1 -7.01793190379038 -2.43320559355936  0.85202135293529
 1 -7.30168147924793  1.53453178227823 -0.15174485098510
 1 -4.63520016471647 -0.00499188078808  0.08175439973997
 1  13.50899657675768 -1.15424711211121  2.42245718631863
 1  11.77631280828083 -2.05193457345735  1.75740173987399
 1  13.64353671057106 -2.78851051605160  0.60831775767577
 1  12.72576001450145 -2.18232471097110 -2.03319641434143
 1  11.50116012421242 -2.57872699659966 -0.81924726682668
 1  11.54506411461146 -0.12121175447545  3.54766980568057
 1  10.69287626532653  1.14885044814481  2.50115763996400
 1  10.18069569076908 -0.55506382088209  2.38643488468847
 1  13.58422532443244  1.15826445064507  0.38172223702370
 1  12.33791640484048  2.18275771357136  1.38299300500050
 1  13.65700153725372  1.21170564966497  2.28742522412241
 1  12.61622244174417  0.06425981638164 -2.97106955885589
 1  12.03962103050305  1.43801589248925 -2.08139607450745
 1  13.64036486908691  0.49853590649065 -1.38387387278728
 1 -5.56223844774477  3.03781816861686 -0.58705011581158
 1  10.18037928852885  0.11080242264226 -2.17767010281028
 1  15.15721856705670 -1.44957477187719  0.35790438973897
 1  8.58515036583658  1.99447177437744 -0.33951122832283
 1 -2.24663974817482  4.67585403510351 -0.28978314861486
 1 -2.82470123442344  4.14992221702170 -1.96337944704470
 1 -4.01347773287329  4.66665484728473 -0.80157995949595
 1 -2.64826444654466  0.68512072407241 -0.30173312791279
 1  6.88057080698070 -1.89494905700570 -0.54505202050205
 1  8.53685890039004 -1.68179290409041 -0.77792856695669
 1  8.04013393499350 -1.67568989738974  1.14535829672967
 1  6.33316846394639  1.91854565996600 -0.36168818851885
 1 -0.48238959595960  2.90597464096410 -0.38357826932693
 1  5.03831981838184 -0.95393188988899  0.10434311541154
 1 -0.34305322852285 -0.05431724462446 -0.34571196009601
 1  3.78869803770377  1.92781841804180 -0.48760098509851
 1  1.74157103230323  2.25920171207121 -0.39324202260226
 1  1.16896573137314 -1.23571017521752  0.13446244184418
 1  2.78977030183018 -1.70496679817982 -0.79159692969297
 1  2.68547524392439 -1.73331756075608  0.99766305290529

