%nproc=3
%Mem=2GB
# td=(NStates=1) CAM-B3LYP/6-31G(d,p) 

TD

0 1
 8 -11.58251491909191  0.31302195059506 -1.65352251585159
 8 -12.94455529132913 -2.42267057505751  1.24650033503350
 8  10.42661818171817 -1.26681656955696 -1.95089881618162
 8  14.43376674337434 -0.88297701920192 -0.42869735713571
 6 -11.00233840104010 -0.07191114581458 -0.36163558795880
 6 -11.58720501020102 -1.15951713161316 -1.28034687498750
 6 -11.87238928192819  0.37130381318132  0.85551520652065
 6 -12.95045024872487 -1.76447660556056 -1.02718435243524
 6 -13.34701315931593 -0.11591903950395  0.80654534243424
 6 -13.50671710521052 -1.56784832263226  0.38947771507151
 6 -10.76645223392339 -1.95428084558456 -2.28992131043104
 6 -9.49483892769277  0.16012314611461 -0.34891184928493
 6 -11.24607058445845 -0.00711630763076  2.18098316541654
 6 -11.89117949824982  1.84294939803980  0.77835592729273
 6 -8.59764318601860 -0.67283532473247  0.14849358835884
 6 -7.14012200180018 -0.53067491359136  0.31133883418342
 6 -6.37224123902390 -1.72917160596060  0.71675391169117
 6 -6.42888855055506  0.61891272117212  0.07341878667867
 6 -5.09876981858186  0.90328236493649 -0.11800613081308
 6  12.00746999389939  0.08527855735574  1.23947347544754
 6  11.48571586168617 -0.69989614481448 -1.24492837253725
 6  12.78158538663866 -1.16263049274928  1.44850958435844
 6  13.43527821452145 -1.74443897729773  0.11468543294329
 6  12.42227716241624 -1.88154266326633 -0.98062202470247
 6  11.03230011791179  0.01421616951695  0.08326550685069
 6  11.10145155005501  0.32184882688269  2.51821416161616
 6  12.99097221392139  1.29821304210421  1.23545659665967
 6  12.19190549674967  0.31069994329433 -2.19705365316532
 6 -4.62227872357236  2.17661016701670 -0.29351420032003
 6  9.83250443794380  0.51378218101810  0.01376019931993
 6 -3.29142430083008  2.50820957465747 -0.34877513821382
 6  8.56275606160616  1.00343667746775 -0.13307764776478
 6 -2.91579326442644  3.94202566206621 -0.57520725282528
 6 -2.32360927602760  1.59986183488349 -0.11964449914992
 6  7.47567711021102  0.19025961396140  0.20781159705971
 6  7.66229096559656 -1.25537248934893  0.58198812171217
 6  6.21392274027403  0.71172810311031  0.01459752375237
 6 -0.96703083458346  1.84553367706771 -0.24651282638264
 6  4.92123372617262  0.01507062316232  0.11411278007801
 6 -0.03655717671767  0.85776908680868 -0.10826992979298
 6  3.73985339303930  0.81956230663066  0.05061759275928
 6  1.38858079887989  1.13204493219322 -0.08336071697170
 6  2.45353325382538  0.21461076077608 -0.03438008010801
 6  2.26677653935393 -1.21643582388239  0.22093068666867
 1 -12.77352915371537 -2.82215519331933 -1.21002622662266
 1 -13.65201042474247 -1.73004698889889 -1.85701215591559
 1 -13.75325312751275  0.23721078987899  1.76499918261826
 1 -13.84197359095909  0.39989511661166  0.03671133673367
 1 -14.58072537663766 -1.61031974537454  0.47448905320532
 1 -10.77856647354735 -3.01190797359736 -1.81865716111611
 1 -11.32196240514051 -1.98784357575758 -3.13660194639464
 1 -9.73911609510951 -1.74681388998900 -2.29582119461946
 1 -9.29863851865186  1.20150228122812 -0.60483429352935
 1 -10.45498682628263  0.36650791489149  2.32468821162116
 1 -11.82918827972797  0.25347204880488  3.08805715581558
 1 -11.02103279697970 -1.05919279577958  2.30719150885089
 1 -12.22230477297730  2.20360648264827 -0.18622540654065
 1 -12.42021826122612  2.31883745924592  1.67732144394439
 1 -10.85062534463446  2.25743633413341  0.74346864036404
 1 -12.00580365286529 -2.33371624522452  1.22167664656466
 1 -8.93336417831783 -1.57907626532653  0.40296939583958
 1 -5.39775922202220 -1.96232955805581 -0.17163520792079
 1 -5.89166158145815 -1.62149738233823  1.66416481268127
 1 -7.11704181478148 -2.51278355135514  0.92532868366837
 1 -7.01407271837184  1.73666199529953 -0.28789846634664
 1 -4.33300994569457  0.13115173357336  0.17252347664766
 1  13.28054373147315 -1.26996868426843  2.49491443204320
 1  11.98721389838984 -1.95383476347635  1.68047404710471
 1  13.96055841274127 -2.82681434643464  0.16068299419942
 1  12.94436187468747 -2.25587206570657 -1.77854094879488
 1  11.58256826502650 -2.74645376927693 -0.76005134723472
 1  11.62162177037704  0.31931229792979  3.56143118181818
 1  10.52934991269127  1.21086664976498  2.51271879607961
 1  10.35255287648765 -0.64404271877188  2.64541078227823
 1  13.63165006690669  1.30892951715171  0.26663072787279
 1  12.48680129332933  2.23376281408141  0.81545625132513
 1  13.30892672977298  1.37836231533153  2.23839032063206
 1  12.47304812431243 -0.08144475407541 -3.18427087898790
 1  11.51849891829183  1.02462455335534 -2.54769270417042
 1  13.06438727132713  0.70385643854385 -1.79082456785679
 1 -5.36014823872387  2.77192157895790 -0.62133354415442
 1  10.15475672627263 -0.35779443704370 -2.67655999179918
 1  15.21099394459446 -0.69654946934693  0.09666826612661
 1  8.30731258205821  2.00970329752975 -0.61245852305230
 1 -2.59270435463546  4.39203565326533  0.38527435713571
 1 -2.34234299859986  4.04067129192919 -1.33384649374937
 1 -3.80602698779878  4.49257743954395 -0.73406320782078
 1 -2.65405502560256  0.66301851385139  0.05581262666267
 1  6.76604935483548 -1.87865742784278  0.71749423412341
 1  8.17802301680168 -1.79953467826783 -0.27463823792379
 1  8.51353127472747 -1.28064039243924  1.32891665256526
 1  5.94705985308531  1.61334513991399 -0.18414043374337
 1 -0.42701405840584  2.91360540404040 -0.52642255375538
 1  5.00118610501050 -0.95302179887989  0.25807848894890
 1 -0.40302922612261 -0.18544035693569  0.00173278437844
 1  3.78006717461746  1.81089672587259 -0.12665489048905
 1  1.49574644984498  2.29035482738274 -0.27014971337134
 1  1.37451628642864 -1.64397100130013  0.32494148974897
 1  2.61178250305030 -1.74757105860586 -0.64465223522352
 1  2.91192788918892 -1.56278050705071  1.13612689928993

