%nproc=3
%Mem=2GB
# td=(NStates=1) CAM-B3LYP/6-31G(d,p) 

TD

0 1
<<<<<<< HEAD
 8 -11.73054972257226  0.07898854725473 -1.66632379597960
 8 -13.16190702650265 -2.49084739273927  1.47908359335934
 8  10.60751627152715 -1.06030591849185 -2.05370909720972
 8  14.50907427412741 -1.06700542204220 -0.34124861226123
 6 -11.07059522672267 -0.08294224892489 -0.36007543194319
 6 -11.60053634333433 -1.18399957985799 -1.22196103640364
 6 -11.86827887088709  0.34215089788979  0.84364401940194
 6 -12.92689789348935 -1.84072423032303 -0.95156679067907
 6 -13.34841329932993 -0.08565601320132  0.87163185108511
 6 -13.48867530103010 -1.55458699649965  0.44339310661066
 6 -10.71837742644265 -2.05285070257026 -2.11927424572457
 6 -9.57676712051205  0.05049218301830 -0.34246120422042
 6 -11.14084006140614 -0.07916351235124  2.10789585668567
 6 -11.92960334063406  1.93919902300230  0.84457254895490
 6 -8.63296671837184 -0.75710375157516  0.21072981198120
 6 -7.20154814441444 -0.48497034313431  0.24416211651165
 6 -6.37479149404941 -1.78199688848885  0.55869810611061
 6 -6.65764142584258  0.63973480338034 -0.10724928012801
 6 -5.30048999059906  1.00854289098910 -0.08695302550255
 6  11.97570681758176  0.03006303580358  1.36026555465547
 6  11.68664595469547 -0.60831698689869 -1.23009688938894
 6  12.73407063516352 -1.29321355105511  1.45372010541054
 6  13.43170785748575 -1.83532806620662  0.20636460086009
 6  12.49940487518752 -1.81183569256926 -1.00184414691469
 6  11.10369725762576 -0.07151240334033  0.11034821512151
 6  11.08611001590159  0.19807644964496  2.64765710591059
 6  12.94055717241724  1.19664288508851  1.40002305330533
 6  12.55270157635764  0.49831870517052 -1.98035198299830
 6 -4.76740323602360  2.29823232923292 -0.29731458035804
 6  9.88368955645565  0.41798260106011  0.01530035333533
 6 -3.37921307970797  2.59290804450445 -0.34987524822482
 6  8.60038982498250  0.85544187798780 -0.21201554155416
 6 -3.00787247234723  4.01085254475448 -0.78479821192119
 6 -2.29609652475248  1.65163701240124 -0.16238877357736
 6  7.41517105960596  0.12149273727373  0.00241105700570
 6  7.59227396389639 -1.44597154925493  0.23628355125513
 6  6.22610395839584  0.70987791809181 -0.20513444944494
 6 -0.93262739423942  1.97186631033103 -0.32835101020102
 6  4.93514511731173  0.19071818791879  0.08367973677368
 6  0.05247172617262  1.04455776567657 -0.12600170297030
 6  3.84562397009701  0.95012536293629  0.06683921492149
 6  1.44971691249125  1.30184191189119 -0.06974935583558
 6  2.46323422392239  0.34384368406841  0.03957731563156
 6  2.29377923962396 -1.07832201250125  0.15429402300230
 1 -12.88887068786879 -2.90612359015902 -0.94405962996300
 1 -13.60387561126113 -1.57450143434343 -1.62926938163816
 1 -13.63524132633263 -0.02667559875988  1.98087076977698
 1 -13.93234262786279  0.60887601470147  0.23583124872487
 1 -14.60352765686569 -1.65727444084408  0.48485008930893
 1 -10.60168878577858 -3.10283706650665 -1.92801809720972
 1 -11.23163337223722 -1.94819961136114 -3.24414270047005
 1 -9.59945212871287 -1.61378058665867 -2.18394000650065
 1 -9.24348300310031  0.73575570657066 -1.03029683978398
 1 -10.27941926952695  0.54805606970697  2.28349409220922
 1 -11.84420978187819  0.15614231583158  2.97077542764276
 1 -10.74293498719872 -1.06955383188319  2.22655344504450
 1 -12.07063960646065  2.20853697569757 -0.23708049204921
 1 -12.75765200460046  2.42850842634263  1.49791350315031
 1 -11.00361064316432  2.28336892739274  1.05664995849585
 1 -12.10258333083308 -2.32616549014902  1.44696917581758
 1 -9.08891973387339 -1.68966732443244  0.80009910881088
 1 -5.78205765186519 -2.05572889798980 -0.22708075247525
 1 -5.90187260256026 -1.33681891449145  1.61233963016302
 1 -7.00857096769677 -2.40727300030003  0.64777092789279
 1 -7.23502481358136  1.62270059915992 -0.35864554105410
 1 -4.54936158085809  0.14973359175918 -0.06227000270027
 1  13.53933961106111 -1.26624831223122  2.31106604720472
 1  11.91137631463146 -2.08595797579758  1.77278327802780
 1  13.66640899779978 -2.83290495549555  0.28922584848485
 1  12.81992943144314 -2.13044952345235 -1.92068516321632
 1  11.80770077827783 -2.67103622752275 -0.78894423652365
 1  11.67893750195020  0.17959832653265  3.51060609930993
 1  10.41745872357236  0.95779134223422  2.33255077927793
 1  10.43862148334834 -0.60495881038104  2.58520476167617
 1  13.78533543544354  0.86753537773777  0.58892295709571
 1  12.47198981218122  2.24546398419842  0.98219292499250
 1  13.32406824392439  1.31363584268427  2.40519700130013
 1  12.87531835133513 -0.03755036463646 -2.90030248214821
 1  12.05267233563356  1.52063415431543 -2.11759969486949
 1  13.44283511611161  0.57112316521652 -1.27571305670567
 1 -5.17523974787479  3.25139952675267 -0.37237864866487
 1  10.19978122872287 -0.29633829142914 -2.12519485528553
 1  15.22068491369137 -0.89476929132913  0.36147474677468
 1  8.69049089988999  1.89799212641264 -0.56915419261926
 1 -2.58042312651265  4.50417686738674  0.15337116681668
 1 -2.35631439573957  4.04310153495349 -1.63325643474347
 1 -3.94131051615162  4.70989917171717 -0.96796659815982
 1 -2.63673329342934  0.65905811781178  0.05722276767677
 1  6.72013476337634 -2.03112267436744  0.06085857055706
 1  8.49313452795279 -1.94508923372337 -0.31857263136314
 1  7.74598452005201 -1.67092942134213  1.34530829172917
 1  6.44266941404140  1.73701750715072 -0.28751077077708
 1 -0.52129348634864  2.96572061556156 -0.36209612111211
 1  4.75254124052405 -0.95198169486949  0.04586726782678
 1 -0.23259218241824  0.00148833593359  0.04131674277428
 1  3.93374254215422  1.91352698889889 -0.29266149114912
 1  1.74372124732473  2.36759255115512 -0.05184788318832
 1  1.27373620842084 -1.26616322052205  0.44744373997400
 1  2.41936326112611 -1.64673097459746 -0.82060983098310
 1  2.98326502290229 -1.57876210521052  1.05077836443644
=======
>>>>>>> 6a1b998aacd80a23911c140f266e48a14f2d523d

