%nproc=3
%Mem=2GB
# td=(NStates=1) CAM-B3LYP/6-31G(d,p) 

TD

0 1
 8 -11.85513218081808  0.38671932033203 -1.56810397399740
 8 -12.88428926472647 -2.39208751675167  1.42288797379738
 8  10.66615213511351 -0.93813370127013 -2.17980170647065
 8  14.54637800450045 -0.96533525502550 -0.20266475387539
 6 -11.17138530573057 -0.09251320602060 -0.33827325172517
 6 -11.76276256595660 -1.11190237013701 -1.30429927022702
 6 -11.69865190819082  0.43326000880088  0.95291494649465
 6 -13.16662186588659 -1.75320547844785 -0.87029866386639
 6 -13.22522098009801 -0.07357480508051  0.91438612651265
 6 -13.48711514501450 -1.48956049384938  0.59311807910791
 6 -10.96858244694469 -1.92150756825683 -2.25906822512251
 6 -9.68745818961896  0.12562969676968 -0.45997295539554
 6 -10.94918089548955 -0.03845944194419  2.16642170927093
 6 -11.82089246954695  1.91528663176318  0.93585167686769
 6 -8.74578800050005 -0.71218926012601  0.02375111411141
 6 -7.32337032663266 -0.60371221732173  0.00287798809881
 6 -6.53973798869887 -1.81524021282128  0.39311154745475
 6 -6.69343500520052  0.68790962086209 -0.20756931213121
 6 -5.27029697129713  0.82857489418942 -0.21219554975498
 6  11.90914016091609  0.09916994649465  1.23020254835484
 6  11.73260055015502 -0.51511766696670 -1.33864774447445
 6  12.67243447154715 -1.21524575427543  1.42693742714271
 6  13.36640132683268 -1.72084661806181  0.22966693109311
 6  12.43581851655165 -1.82795730473047 -1.00669463196320
 6  11.02687957585758  0.02328707660766 -0.01193401310131
 6  11.07916932183218  0.26983362536254  2.49050139033903
 6  12.93253637033703  1.30018323912391  1.23676672767277
 6  12.64372067826783  0.40897977127713 -2.08398234603460
 6 -4.67501399709971  2.10694320032003 -0.35490033893389
 6  9.86603779127913  0.51186198899890 -0.03269444614461
 6 -3.24691985038504  2.46696545024502 -0.35710597129713
 6  8.63995378137814  1.01007734153415 -0.06445078507851
 6 -2.90331201630163  3.80740219971997 -0.74154388648865
 6 -2.30769768486849  1.48558040674067 -0.14944747944794
 6  7.41794133663366  0.13806439443944  0.11628244414441
 6  7.56895163166317 -1.38623557565757  0.46464638753875
 6  6.29412076007601  0.73782071237124  0.14395045904590
 6 -0.98426255775578  1.72517164086409 -0.36396457155716
 6  5.01841344414441  0.10415953205321  0.06302767156716
 6  0.06455293429343  0.80808411831183 -0.08615771857186
 6  3.83245265296530  0.74248459885989 -0.03362083108311
 6  1.37159910071007  1.05754748244824 -0.01472385328533
 6  2.54164206470647  0.18012731243124  0.15805916381638
 6  2.30094995669567 -1.24602878317832  0.59119771337134
 1 -12.99368116891689 -2.66896987478748 -0.98132335633563
 1 -13.89340456415641 -1.07186117031703 -1.59887634233423
 1 -13.78794659685969  0.07337440624062  1.84759744244424
 1 -13.67295668926893  0.63336846394639  0.24890255585559
 1 -14.61054835893589 -1.58872758615862  0.45691729602960
 1 -10.66064468136814 -2.73384016681668 -1.83282857825783
 1 -11.56493670257026 -1.98507329872987 -3.22572085828583
 1 -9.98891107460746 -1.34968417701770 -2.42298391089109
 1 -9.20374902970297  0.96468859985999 -1.45421923202320
 1 -10.00345167276728  0.57109837393739  2.33752949574957
 1 -11.55793115401540 -0.08310160856086  3.06500485058506
 1 -10.39882057575758 -1.05625250175018  2.02860365006501
 1 -11.98862140464046  2.44894101610161 -0.12426921092109
 1 -12.30649688908891  2.19108468396840  1.73473718551855
 1 -10.75923620572057  2.01344193469347  1.04894918841884
 1 -11.90807387988799 -2.44923779737974  1.26665114401440
 1 -9.24778562046205 -1.49443780148015  0.62686178507851
 1 -6.14030347644764 -2.22061538663866 -0.49745779017902
 1 -5.78471088638864 -1.49854508710871  1.13397179337934
 1 -7.15247535813581 -2.68640091309131  0.82256840764076
 1 -7.41052236333633  1.50789911901190 -0.14244392089209
 1 -4.67323396809681  0.00000861926193 -0.06518029372937
 1  13.47690336743674 -0.92736442384238  2.35584052465247
 1  12.01233641064106 -2.02053143314331  1.65665166486649
 1  13.72493485038504 -2.83642530753075  0.46003292919292
 1  13.04914235273527 -2.27236371487149 -1.79138223292329
 1  11.65645565376538 -2.67022614651465 -0.68189353145315
 1  11.73468307650765  0.38014838153815  3.28529356805681
 1  10.57114409210921  1.14665022812281  2.45845336953695
 1  10.43197081828183 -0.73531184568457  2.40190643184318
 1  13.69292619451945  1.07786641084108  0.35989005380538
 1  12.28915152835284  2.14599403720372  0.92549725542554
 1  13.50485632273227  1.44167864696470  2.25270175177518
 1  13.33151397089709 -0.28998560816082 -2.81191364326433
 1  12.05183225162516  1.27736982788279 -2.82202013691369
 1  13.52091292389239  0.81310736363636 -1.57941342674267
 1 -5.23940616451645  2.91435582238224 -0.47840925172517
 1  10.13445469606961 -0.05066372397240 -2.21761409720972
 1  14.96800964616462 -0.88330814521452  0.74696329562956
 1  8.48841069186919  2.19290161736174 -0.01357863506351
 1 -2.28767385158516  4.30981743144314 -0.09054322462246
 1 -2.26282504680468  4.01196842164216 -1.61441455055506
 1 -3.72738912401240  4.53533171497150 -0.81989179067907
 1 -2.74839445954596  0.57746995899590  0.08851589698970
 1  6.72498524842484 -1.88164772687269  0.22630511521152
 1  8.18695390989099 -1.97013173797380 -0.45106588068807
 1  7.96529645124513 -1.52672500090009  1.51354511541154
 1  6.23507865496550  1.86393019841984  0.15323330363036
 1 -0.66831818881888  2.65291933543354 -0.76192610411041
 1  4.87771375777578 -0.91392788948895  0.17277995909591
 1 -0.31420034323432 -0.09520133303330  0.10513312441244
 1  4.08298746664667  1.74316995319532 -0.18895112011201
 1  1.45663253845385  1.97347313921392 -0.40503320172017
 1  1.28754758955896 -1.38296490069007  0.57057605320532
 1  2.79582090689069 -1.97967426892689 -0.06675444544454
 1  2.57329402580258 -1.27877210621062  1.76100938753875

