%nproc=3
%Mem=2GB
# td=(NStates=1) CAM-B3LYP/6-31G(d,p) 

TD

0 1
 8 -11.79622629022902  0.35429607800780 -1.43227039063906
 8 -13.12917375317532 -2.42974128212821  1.42431811681168
 8  10.59183470337034 -0.90760064796480 -2.10615434173417
 8  14.57920128682868 -0.78307702920292 -0.22617710511051
 6 -11.07693586078608 -0.09409336403640 -0.32036146054605
 6 -11.69069535923592 -1.07975915581558 -1.13086192649265
 6 -11.73377542054205  0.38800548334833  0.97029668466847
 6 -13.01288649234924 -1.73619377727773 -0.94974660866087
 6 -13.22742120012001 -0.06188363596360  0.88790347824782
 6 -13.55556198969897 -1.47823936173617  0.49593836113611
 6 -10.92666825552555 -1.81436685418542 -2.24385670397040
 6 -9.61502094589459  0.07638477227723 -0.32870982908291
 6 -10.96484246164616 -0.09766536253625  2.29233430053005
 6 -11.69065944624462  1.89816491959196  1.01907999969997
 6 -8.58064148584858 -0.77213525472547  0.08419715871587
 6 -7.21732972257226 -0.59231107720772  0.05770347064706
 6 -6.33059707460746 -1.70428911771177  0.43554579087909
 6 -6.55263092479248  0.62716354625463 -0.23626218141814
 6 -5.15533547514752  0.87037907460746 -0.29263359355936
 6  11.90034928182818  0.04022405190519  1.31322085018502
 6  11.67744503460346 -0.52698885408541 -1.22527640734073
 6  12.72909013711371 -1.20994522422242  1.43301803520352
 6  13.48316300300030 -1.61151568496850  0.14057802220222
 6  12.53877881258126 -1.76016052505251 -0.95145910841084
 6  11.05110199809981 -0.05096034813481  0.02954013431343
 6  11.06469787468747  0.17272391439144  2.58833117331733
 6  12.82044516121612  1.30273349414942  1.32914596559656
 6  12.46301260746075  0.55814468776878 -2.04894884268427
 6 -4.62634913061306  2.04304681068107 -0.68894374327433
 6  9.80156134363436  0.32264306710671  0.05317414071407
 6 -3.33614877327733  2.51909066276628 -0.63522378307831
 6  8.58227801380138  0.80831716551655 -0.12965730573057
 6 -3.03782546764676  3.92455391489149 -0.93635336743674
 6 -2.32703961906191  1.55168701740174 -0.36514904960496
 6  7.42365190769077 -0.07271668366837  0.05040585648565
 6  7.55175991249125 -1.48505545764576  0.24985490839084
 6  6.21498284628463  0.53983091339134 -0.04992892889289
 6 -0.89463359485949  1.85050417411741 -0.28174634973497
 6  4.90055165796580  0.06138525462546  0.27519888868887
 6  0.10890736973697  0.84910822072207 -0.00572967576758
 6  3.71311071877188  0.72686303670367  0.01338386938694
 6  1.36404834563456  1.19530125782578 -0.03588596949695
 6  2.40736863736374  0.27696699639964  0.15444880278028
 6  2.21580144184418 -1.17596177647765  0.48505709930993
 1 -13.26327812861286 -2.75395837363736 -1.01213643764376
 1 -13.75516073977398 -1.25279926412641 -1.63128958365837
 1 -13.74763256545655  0.21619868866887  1.77228991169117
 1 -13.62883227682768  0.58116324342434  0.11481914751475
 1 -14.55546285038504 -1.55519423282328  0.45074667896790
 1 -10.35991460836084 -2.75099188198820 -1.90450574597460
 1 -11.48114832373237 -2.07963275467547 -3.13173145934593
 1 -10.29800198369837 -0.97233644224422 -2.60712232473247
 1 -9.46360501530153  1.01330346134613 -0.78182199229923
 1 -10.02869419701970  0.39394065816582  2.43641938473847
 1 -11.36306166706671  0.26091279287929  3.03647199729973
 1 -11.06617731143114 -1.21239811631163  2.29697048674868
 1 -12.18609115161516  2.35439156115612  0.10866408240824
 1 -11.98810504990499  2.38941451695170  1.87940165196520
 1 -10.52363264536454  2.18335892639264  1.18602289578958
 1 -12.14470754325432 -2.64870774437444  1.28896337523752
 1 -8.90667150905091 -1.64817317501750  0.36740583948395
 1 -5.26315576167617 -1.77308063316332 -0.19818786318632
 1 -6.24483689898990 -1.56759199179918  1.70059845604560
 1 -6.89355946654665 -2.70175244824482  0.37804395519552
 1 -7.20487179827983  1.56129445854585 -0.66007568406841
 1 -4.50248689338934 -0.01258263986399  0.17470369466947
 1  13.40283596069607 -1.19000068746875  2.34574951555156
 1  11.96945212221222 -1.85679505950595  1.66685268496850
 1  13.96517887478748 -2.59260092509251  0.35705263116312
 1  12.95683312181218 -2.05576205470547 -1.88320141484148
 1  11.88168817701770 -2.75376450035004 -0.94036937903790
 1  11.93302291049105  0.24417478417842  3.36211124982498
 1  10.53060003770377  1.02637820092009  2.60615814001400
 1  10.45190281148115 -0.60175849034903  2.45866210741074
 1  13.54146104800480  1.27253587778778  0.50217428222822
 1  11.96392900610061  2.16736617441744  1.31177588328833
 1  13.22373821092109  1.20532501160116  2.32508899049905
 1  12.80415123462346  0.25684907530753 -2.91505395729573
 1  11.89676674507451  1.35777786868687 -2.03514144904490
 1  13.53534436703670  0.86209226212621 -1.54354984038404
 1 -5.44121634553455  2.95081946874687 -0.77431884268427
 1  9.70997224782478 -0.21838049564957 -1.96177851365136
 1  15.25579842504250 -0.81523133753375  0.49881848114811
 1  8.43034488528853  1.90945327252725 -0.03330060726073
 1 -2.32054713891389  4.20420687038704 -0.16620079037904
 1 -2.48292705700570  4.05645287008701 -1.87079018811881
 1 -3.88450483558356  4.63603178497850 -0.77431723322332
 1 -2.64311393149315  0.43906611861186 -0.26061901650165
 1  6.56136888678868 -1.90388995109511 -0.04916243154315
 1  8.39429464396440 -2.12644736953695 -0.32814358845885
 1  7.59085900750075 -1.73767609600960  1.21835559645965
 1  6.24271941904190  1.59960376577658 -0.24426644634463
 1 -0.49153051005101  2.89636367986799 -0.46856676817682
 1  4.90243623002300 -1.13154965166517  0.63117579867987
 1  0.01692276907691 -0.26102791569157 -0.03579096799680
 1  4.03686285418542  1.77688332453245 -0.25236746174618
 1  1.52998987418742  2.16533232513251 -0.51335403380338
 1  1.23608244304430 -1.37394399859986  0.59135813141314
 1  2.80542186698670 -1.92775907740774 -0.17799556955696
 1  2.52020871727173 -1.52439666866687  1.56229951655166

