%nproc=3
%Mem=2GB
# td=(NStates=1) CAM-B3LYP/6-31G(d,p) 

TD

0 1
<<<<<<< HEAD
 8 -11.54174084168417  0.11676232463246 -1.67910507410741
 8 -12.98312914871487 -2.34821312931293  1.47166285128513
 8  10.51243676357636 -1.02338222612261 -2.09238296459646
 8  14.40904427112711 -1.03136185768577 -0.28225271267127
 6 -10.93875204240424 -0.22741669636964 -0.40907033143314
 6 -11.67252354205420 -1.23410459035904 -1.26576541684168
 6 -11.72718476147615  0.51304798759876  0.77259691469147
 6 -12.99696490019002 -1.72051220912091 -0.93229486348635
 6 -13.19089754775478  0.02010456285629  0.85709039693969
 6 -13.46813324682468 -1.37039857765777  0.52162092939294
 6 -10.75055064376438 -2.12305772327233 -2.11754407270727
 6 -9.47800724452445 -0.07147001320132 -0.53821077917792
 6 -10.98406438383838  0.12767717171717  2.07141220832083
 6 -11.69224960526052  1.95244034713471  0.57032512421242
 6 -8.54423784548455 -0.87304534573457  0.08044678367837
 6 -7.15046303590359 -0.70543238933893  0.07132483278328
 6 -6.34135815071507 -1.86769545834583  0.29648188448845
 6 -6.61489715141514  0.58546937683768 -0.06965552075208
 6 -5.28327826942694  0.91544358105811 -0.04570890109011
 6  11.97075632253225  0.08675870537054  1.29051857995800
 6  11.59175646574658 -0.68581473667367 -1.27232111181118
 6  12.68228545664566 -1.20560479017902  1.51073580698070
 6  13.35844053075308 -1.75633016641664  0.16680064446445
 6  12.40916585128513 -1.85666017501750 -0.96950091259126
 6  11.01366825472547 -0.03598885098510  0.00574775507551
 6  11.06565797069707  0.20658730073007  2.56390873107311
 6  12.84955807250725  1.25151837263726  1.10533358435844
 6  12.36110241644164  0.37333620692069 -2.13241718951895
 6 -4.81306780248025  2.20537304330433 -0.24831968086809
 6  9.82895408290829  0.47637844064406 -0.03678485518552
 6 -3.35007016541654  2.53669242294229 -0.13320358105811
 6  8.51656144214421  0.83361969576958 -0.21567590759076
 6 -3.03558524362436  3.97775923542354 -0.48912864496450
 6 -2.32260917601760  1.62147399609961  0.06573403870387
 6  7.42010155265527  0.11745233323332 -0.00595978007801
 6  7.55869060556056 -1.34304125622562  0.39518944184418
 6  6.13549489748975  0.72974990529053 -0.13994793079308
 6 -0.97064119561956  1.98882800650065 -0.02054022912291
 6  4.95292689548955  0.12584170027003  0.03169453825383
 6  0.02514899389939  0.99180249014901  0.12990388758876
 6  3.75268467616762  0.89587993839384 -0.01598906790679
 6  1.42943488428843  1.32288401610161  0.15592321142114
 6  2.49464736523652  0.35039433913391  0.09029238713871
 6  2.32020188188819 -1.06599077937794  0.27230582418242
 1 -13.04534633543354 -2.78423140094009 -0.86627185118512
 1 -13.56815203890389 -1.27957194139414 -1.70207666236624
 1 -13.70567837003700  0.10178724752475  1.85872855555556
 1 -13.88986838043804  0.50706583368337  0.24217188278828
 1 -14.39668697279728 -1.63715242864286  0.51481308560856
 1 -10.50695931283128 -3.01443822662266 -1.64239953535354
 1 -11.31428163706371 -2.54988978037804 -2.96386467266727
 1 -9.83688587208721 -1.55694490309031 -2.52077368986899
 1 -9.21278993379338  0.70996312731273 -1.18648245834584
 1 -9.96008733633363  0.81466273037304  2.05296103890389
 1 -11.64426978787879  0.59268597019702  2.86314466456646
 1 -10.90550124382438 -0.97507438393839  2.30273106280628
 1 -11.85284782728273  2.30999712171217 -0.33427021102110
 1 -12.36651289068907  2.54645022052205  1.27152086388639
 1 -10.57988827092709  2.24643523402340  0.65959025252525
 1 -12.06427950045004 -2.33514638823882  1.26779125802580
 1 -9.01001184308431 -1.84231258895890  0.53397249614961
 1 -6.14661410751075 -2.59420274537454 -0.70787883228323
 1 -5.35624804010401 -1.84137937053705  0.81636003220322
 1 -6.80471058165817 -2.63233550655066  1.13612976377638
 1 -7.25034634573457  1.42576090519052 -0.23878355485548
 1 -4.43412005670567  0.02571118951895  0.05165138943894
 1  13.39463514061406 -1.10692237963796  2.22004694529453
 1  12.01794697169717 -1.98116749674967  2.00184618431843
 1  13.77514987188719 -2.97689935493549  0.27050397629763
 1  12.76706414491449 -2.20880735923592 -1.91591468616862
 1  11.47034704290429 -2.67862698659866 -0.72219756185619
 1  11.79235884408441  0.42232259895990  3.34101914061406
 1  10.51598857655766  1.01048661176118  2.49261678587859
 1  10.22638025922592 -0.51750006450645  2.97810405160516
 1  13.73753065496550  1.02115073927393  0.44921898669867
 1  12.06553916711671  1.91323076087609  0.69136384208421
 1  13.03382922002200  1.51440591969197  2.34275075667567
 1  12.60810162966297 -0.11608821842184 -3.08730118201820
 1  11.66355342374237  1.18928101900190 -2.44668260316032
 1  13.16329716231623  0.70625667856786 -1.46075156055606
 1 -5.57034925882588  3.02448683548355 -0.52574398519852
 1  9.89396064666467 -0.14620327792779 -1.71305364116412
 1  15.21007385258526 -1.02171198559856  0.37567616691669
 1  8.42594444524453  1.82612493969397 -0.62058933613361
 1 -2.68722380658066  4.52869931963196  0.33386921662166
 1 -2.37986675097510  3.91201842664266 -1.46805991509151
 1 -4.05911229632963  4.42035021682168 -0.63077287878788
 1 -2.70964058415842  0.69271148314831  0.10890793619362
 1  6.60188293819382 -1.92950251235124  0.01874435913591
 1  8.30489570407041 -1.69786451125113 -0.42786356045605
 1  7.70219014061406 -1.64132646104611  1.30292405330533
 1  6.10171531863186  1.66255006040604 -0.54308632833283
 1 -0.64250560756076  3.07414145764576 -0.16590650215021
 1  5.10706669306931 -1.04289078577858  0.25913859495950
 1 -0.49661858505851  0.02333052015201  0.28519113021302
 1  3.92979214711471  1.93398903510351 -0.31685391039104
 1  1.69955683088309  2.36269206110611  0.24306160776078
 1  1.29588842364236 -1.38948555275528  0.82963195879588
 1  2.29502082688269 -1.82284858635864 -0.63955172517252
 1  3.27855455185519 -1.52486671567157  0.97652093869387
=======
>>>>>>> 6a1b998aacd80a23911c140f266e48a14f2d523d

