%nproc=3
%Mem=2GB
# td=(NStates=1) CAM-B3LYP/6-31G(d,p) 

TD

0 1
 8 -11.58567523512351  0.22157280568057 -1.59597676127613
 8 -13.04771560736074 -2.42171047904790  1.44313999899990
 8  10.52072759265927 -1.14260414831483 -1.96198992529253
 8  14.40717408410841 -0.92805152665267 -0.23636812421242
 6 -11.07482564976498 -0.13461741644164 -0.27600702510251
 6 -11.64240052975297 -1.07857903780378 -1.21793063336334
 6 -11.72357440044004  0.44605128792879  0.94209386438644
 6 -13.19933513721372 -1.61225138303830 -0.93225485948595
 6 -13.26372483048305  0.00025257765777  1.04243893179318
 6 -13.53169960346035 -1.40480201800180  0.58264703200320
 6 -10.91426701540154 -1.99453487098710 -2.21788410671067
 6 -9.61339078287829  0.08237537133713 -0.29709666776678
 6 -11.05993197059706 -0.01859745574557  2.25854092119212
 6 -11.69327970827083  1.94860996409641  0.95804389608961
 6 -8.72254567626763 -0.75596363756376  0.09814855385539
 6 -7.18538652825283 -0.72533437953795  0.06582428272827
 6 -6.44193820872087 -2.02912160096010  0.22822505880588
 6 -6.62605826752675  0.52557338723872 -0.14690324552455
 6 -5.24525446704670  0.84193623032303 -0.23276760696070
 6  11.90082932983298  0.04694472397240  1.34604413251325
 6  11.64618190829083 -0.66682283748375 -1.18918279797980
 6  12.60187741584158 -1.20809503920392  1.53471820522052
 6  13.32866755345535 -1.74619915331533  0.31621558595860
 6  12.29811474617462 -1.91349585858586 -0.83116707920792
 6  11.08438532643264  0.03088783668367  0.05822300260026
 6  11.06683808870887  0.30805744774477  2.60422276247625
 6  12.93692680938094  1.26732995379538  1.25296834783478
 6  12.42367867406741  0.41644051735173 -1.98984293209321
 6 -4.65672216791679  2.09429193519352 -0.35208005690569
 6  9.90228141564156  0.56266706950695  0.01501032433243
 6 -3.32758791719172  2.46670542424242 -0.31919217991799
 6  8.76463624962496  1.09060539433943 -0.12598693869387
 6 -3.05151683678368  3.95385684518452 -0.42535226732673
 6 -2.32671958705871  1.56644849354936 -0.26284881958196
 6  7.56674621712171  0.24600518851885  0.02437325322532
 6  7.77517225372537 -1.20442739483948  0.31998192109211
 6  6.32294364236424  0.82162909320932 -0.07792172817282
 6 -0.96043017451745  1.82888201190119 -0.42040021512151
 6  5.03985558835884  0.13944306040604  0.09390075887589
 6  0.05978245724572  0.79371268116812 -0.39332843564356
 6  3.84900430813081  0.83689403980398 -0.00508797779778
 6  1.43415535633563  1.15199692739274 -0.33361574247425
 6  2.52466036653665  0.29398869856986 -0.11519816191619
 6  2.37388725042504 -1.26625080538054  0.01826041964196
 1 -13.35367716851685 -2.66642962076208 -1.13393861786179
 1 -13.83361858555856 -1.01508549274928 -1.59254570927093
 1 -13.46624442664266 -0.02440537173717  2.09131181388139
 1 -13.74132352595259  0.80735586268627  0.30210787638764
 1 -14.70915821992199 -1.50682939633963  0.77723932823282
 1 -10.60450906780678 -2.98961574437444 -1.82637793319332
 1 -11.74754496339634 -2.28006279767977 -3.12386067226723
 1 -9.94986717021702 -1.52937214581458 -2.42081369386939
 1 -9.42887154195420  1.02129426042604 -0.69839364946495
 1 -9.92164349194920  0.23011427552755  2.18003374617462
 1 -11.69022438333833  0.26580328192819  3.27478582868287
 1 -10.85987668136814 -1.08168504500450  2.39402019171917
 1 -12.20918346084608  2.35083120512051 -0.14649143314331
 1 -12.25030126952695  2.27828340384038  1.63045675747575
 1 -10.71301158325833  2.42294288478848  1.14155844934493
 1 -12.11167423992399 -2.43314618821882  1.33933841274127
 1 -9.02345318721872 -1.74220257795780  0.34517361626163
 1 -5.78529797589759 -2.20756408150815 -0.67918596299630
 1 -5.80335275057506 -2.01755698829883  1.10923932013201
 1 -7.16267637823782 -2.90415268826883  0.20006615741574
 1 -7.20905221632163  1.43144147324732 -0.04880455695570
 1 -4.52008865356536  0.05846446484648 -0.10169394509451
 1  13.43714939203920 -1.06725841324132  2.46810175077508
 1  11.89698487548755 -2.00005938593859  1.91099709940994
 1  13.95323768066807 -2.77512917791779  0.57817474337434
 1  12.90414785328533 -2.30462694119412 -1.74931802650265
 1  11.47405741394140 -2.68344746864686 -0.65843118521852
 1  11.69586919511951  0.02829319601960  3.41818685738574
 1  10.44244122182218  1.17986354945495  2.48697622182218
 1  10.28850647184719 -0.52839115361536  2.74744098529853
 1  13.57375427732773  1.29095771997200  0.26160022482248
 1  12.21423403660366  2.05712515031503  1.13601830753075
 1  13.56212204930493  1.22052653175317  2.24902138373837
 1  12.75464628412841 -0.40512712231223 -2.76132858475848
 1  11.73300036843684  1.08972106300630 -2.55255319021902
 1  13.11262209480948  0.91194724762476 -1.52251773717372
 1 -5.34154637853785  2.86932131893189 -0.59210062086209
 1  9.85839709030903 -0.42738139573957 -2.12884522032203
 1  14.75109795499550 -0.88603841824182  0.56840543984398
 1  8.56084793559356  2.06933926112611 -0.38041531873187
 1 -2.31790687488749  4.26835328502850  0.47717354705471
 1 -2.83389215351535  4.22706993179318 -1.38700180928093
 1 -4.00052643774377  4.53466164796480 -0.12933273477348
 1 -2.53283290339034  0.52952516451645 -0.20774372897290
 1  6.88096084598460 -1.96049561166117  0.55267775247525
 1  8.40871608610861 -1.80313503830383 -0.51566234033403
 1  8.32301222282228 -1.30154248264826  1.27448120902090
 1  6.27055220232023  2.00451425682568 -0.45266728642864
 1 -0.64111546854685  2.86857090059006 -0.44368427992799
 1  4.73393938033803 -0.85520201690169  0.26707938903890
 1 -0.18591751495150 -0.31573338623862 -0.35832322122212
 1  3.98670783868387  2.08681431763176 -0.10226245124513
 1  1.93017989318932  2.25844163606361 -0.39326202460246
 1  1.40327916271627 -1.47677428162816 -0.18782978737874
 1  3.07516884168417 -1.86530283178318 -0.62991076107611
 1  2.63979067546755 -1.54703893289329  1.07101038763876

