%nproc=3
%Mem=2GB
# td=(NStates=1) CAM-B3LYP/6-31G(d,p) 

TD

0 1
<<<<<<< HEAD
 8 -11.61851851945194  0.28438908730873 -1.58436560016002
 8 -13.24616545234523 -2.47680598859886  1.31082676767677
 8  10.58034355425543 -1.17236712461246 -2.01888561486149
 8  14.60987435413541 -1.02842156365637 -0.32399688708871
 6 -11.05571373857386 -0.07997195189519 -0.33943336773677
 6 -11.62606889658966 -1.17046822672267 -1.24685352565257
 6 -11.78212025502550  0.38922560536054  0.91490114511451
 6 -13.06946214991499 -1.63121327922792 -0.96447808180818
 6 -13.28969742774277  0.04459701210121  0.88587327522752
 6 -13.59925635913591 -1.39334087188719  0.43977274457446
 6 -10.80929651835184 -2.00703612111211 -2.19102142044204
 6 -9.53906335013501  0.05014214801480 -0.33284024212421
 6 -11.18835481288129 -0.19681527752775  2.19445451255126
 6 -11.70509088938894  1.96563166626663  1.00426851855186
 6 -8.69990341204120 -0.86832487368737  0.16095483448345
 6 -7.25105309490949 -0.68684053015302  0.12354005430543
 6 -6.35006902180218 -1.90325901470147  0.32843507980798
 6 -6.56425208690869  0.60969179907991  0.05682712751275
 6 -5.30388032963296  0.87134917161716 -0.14687901810181
 6  12.04565381228123  0.02719274877488  1.31348087618762
 6  11.65500279037904 -0.67085324052405 -1.26249012871287
 6  12.91151837993799 -1.29833406310631  1.48431316471647
 6  13.43166785348535 -1.71971650505050  0.19678364276428
 6  12.43268820352035 -1.95837034603460 -0.88301226372637
 6  11.13740062796280 -0.03693894599460  0.03621080138014
 6  11.16879828472847  0.18488513051305  2.52316465666567
 6  12.89754287098710  1.23757697849785  1.23910696169617
 6  12.38829513571357  0.32443131643164 -2.05546949474947
 6 -4.72496899259926  2.12276478247825 -0.46265111401140
 6  10.00146133363336  0.51343214601460 -0.10172134883488
 6 -3.40164532293229  2.46671542524252 -0.37955821652165
 6  8.70467025302530  1.03866019981998 -0.19045338533853
 6 -3.07419910501050  3.90161162066207 -0.71717144924492
 6 -2.37805472057206  1.57067891659166 -0.30069260396040
 6  7.47541708420842  0.24468505650565  0.04713552945295
 6  7.63954869136914 -1.19943689578958  0.30708063096310
 6  6.31391273927393  0.87670460076008 -0.00617455345535
 6 -1.04097822932293  1.89372849654966 -0.16905508060806
 6  5.01660326312631  0.27751686778678  0.09539090789079
 6 -0.07239076007601  0.92762607250725  0.02261315851585
 6  3.81545095279528  0.95391574197420 -0.09145661466147
 6  1.34738667946795  1.20893262096210 -0.12430481138114
 6  2.49830773127313  0.38925822552255  0.13316667456746
 6  2.31433129482948 -1.13067724802480  0.44026261986199
 1 -13.24463626442644 -2.72685566336634 -1.26213143714371
 1 -13.77873309700970 -1.06317030123012 -1.53316977167717
 1 -13.78042584478448  0.45475254405441  2.04961764446445
 1 -13.87857725132513  0.67776290339034 -0.05647798219822
 1 -14.72400970507051 -1.39599831323132  0.28994059835984
 1 -10.26457507440744 -2.80358714151415 -1.64325962136214
 1 -11.39361957085709 -2.50899569096910 -3.08013629982998
 1 -10.00027221072107 -1.52035124372437 -2.48230984348435
 1 -9.23158181298130  0.89652178317832 -0.74189799989999
 1 -10.09074040164016 -0.21787052295229  2.18006374917492
 1 -11.75472083298330  0.38059476107611  2.90703905400540
 1 -11.50266095979598 -1.26880375687569  2.41059184888489
 1 -11.92358490099010  2.41920804280428 -0.03200998499850
 1 -12.59685592499250  2.25186076157616  1.64715842764276
 1 -10.79742002410241  2.33397398789879  1.14640893439344
 1 -12.35030810331033 -2.74322719631963  1.09507398629863
 1 -8.97261810371037 -1.82479083678368  0.43465256415642
 1 -5.85536498259826 -2.13520684578458 -0.46618466286629
 1 -5.62020443574357 -1.85127035963596  1.16812520872087
 1 -6.97855796639664 -2.73215548854886  0.65588173897390
 1 -7.28198951005101  1.57433576267627  0.17565788928893
 1 -4.33733037773777  0.11219983838384 -0.31595537123712
 1  13.97391306840684 -0.98557024442444  2.20194513511351
 1  12.19526470347035 -2.04301368136814  1.84736073577358
 1  13.74298665556556 -2.72881454645465  0.43128005390539
 1  13.02876031453145 -2.00465694419442 -1.87732082678268
 1  11.74850485868587 -2.62480160406041 -0.50413575567557
 1  11.69646925512551  0.45035540224022  3.55956099479948
 1  10.24372134983498  0.84867043014301  2.58835635983598
 1  10.45104272547255 -0.77107542204220  2.77590383158316
 1  13.80438734063406  0.92362098629863  0.61291535633563
 1  12.19176178937894  2.16258569636964  0.82100680638064
 1  13.27583342044204  1.67461194029403  2.19458594019402
 1  12.59022984248425 -0.33856046564657 -3.06103855575558
 1  11.74631169956996  1.25946803770377 -2.20166810171017
 1  13.52707353995399  0.80145619851985 -1.64037952335233
 1 -5.53555577947795  2.97583196999700 -0.41626303710371
 1  9.99485073567357 -0.65923458105811 -2.14468680448045
 1  15.30487333253325 -0.93863367776778  0.37483608290829
 1  8.58938078887889  1.93875620282028 -0.55849312651265
 1 -2.51662674687469  4.31763821352135  0.15000082978298
 1 -2.45306407070707  3.85225245004500 -1.67380048914891
 1 -4.05011139623962  4.54761294309431 -0.98631843334333
 1 -2.66986660676068  0.54426663866387 -0.16462941754175
 1  6.70205295519552 -1.72294185628563  0.31926441114111
 1  8.26446166066607 -1.67505223002300 -0.32174294839484
 1  8.00294021562156 -1.28323065146515  1.37245100600060
 1  6.27093224032403  2.04406821222122 -0.14296631633163
 1 -0.78485984298430  2.98460250375038 -0.18904881638164
 1  4.94181016741674 -0.80240673737374  0.24535721682168
 1 -0.38553747694769 -0.25927774067407  0.09754236533653
 1  3.82632180008001  2.06940257645765 -0.51106333133313
 1  1.66005288048805  2.21516730863086 -0.49999269766977
 1  1.11095993079308 -1.37846445064506  0.30869986558656
 1  3.06554787958796 -1.71107740924092 -0.01283905390539
 1  2.45059175557556 -1.21483571257126  1.61099438603860
=======
>>>>>>> 6a1b998aacd80a23911c140f266e48a14f2d523d

