%nproc=3
%Mem=2GB
# td=(NStates=1) CAM-B3LYP/6-31G(d,p) 

TD

0 1
 8 -11.68224489208921  0.22728337673767 -1.58599576317632
 8 -13.13652448824883 -2.31060936893689  1.44715040004000
 8  10.68966448634863 -0.86282617051705 -2.18461218751875
 8  14.57180054675467 -0.82430115161516 -0.05985047244724
 6 -11.05733390059006 -0.10848480318032 -0.30711013541354
 6 -11.76105239493949 -1.11525270517052 -1.11642048234823
 6 -11.82240428342834  0.50457714051405  0.92742239723972
 6 -13.07603280698070 -1.66777693559356 -0.84203583758376
 6 -13.30195865386539  0.14614716711671  0.80742543044304
 6 -13.57910434393439 -1.36061759955996  0.52597136443644
 6 -10.93509909860986 -1.97874329182918 -2.16564888318832
 6 -9.56832627642764  0.03847098089809 -0.38111506960696
 6 -11.22449842724272 -0.02100769676968  2.24460952805281
 6 -11.66372675297530  1.95129023212321  0.85135322702270
 6 -8.65279870157016 -0.87423546474647  0.15578431743174
 6 -7.18813680328033 -0.66994884098410  0.13588128842884
 6 -6.37602161706171 -1.92775146394639  0.61963419971997
 6 -6.60240590229023  0.51456228612861 -0.18947750295030
 6 -5.15231517311731  0.76922895959596 -0.27301163136314
 6  11.86033528042804  0.07710774027403  1.35214474257426
 6  11.79115640574057 -0.54707086228623 -1.25404928462846
 6  12.69886711481148 -1.26327055675568  1.46953168656866
 6  13.46232091879188 -1.82679721312131  0.21607557195720
 6  12.52907784248425 -1.91136564556456 -0.92776673917392
 6  11.08375526342634  0.03475822372237  0.04680186048605
 6  10.97948935383538  0.25138178017802  2.57132947314731
 6  12.88202131883188  1.26245946674667  1.35946899789979
 6  12.57999430563056  0.55728460176018 -1.98595254305431
 6 -4.69669616531653  2.10319282528253 -0.37419226812681
 6  9.88948013551355  0.60403120592059  0.07336615991599
 6 -3.42412757115712  2.38635738943894 -0.37105736643664
 6  8.59421920792079  0.98621495529553 -0.03410775077508
 6 -3.04899658475848  3.86725818531853 -0.67354708680868
 6 -2.29206612171217  1.58423027172717 -0.14661719641964
 6  7.37622716521652  0.05406599459946 -0.01981116521652
 6  7.74371910841084 -1.49869682178218 -0.03364344144414
 6  6.15743709170917  0.59584651495150 -0.00793472947295
 6 -0.92902703420342  1.85671479517952 -0.27998617371737
 6  4.95069667246725 -0.02370325422542 -0.06589522072207
 6  0.09337581658166  0.88424173407341 -0.13750285308531
 6  3.81893130083008  0.76836718711871 -0.04713218221822
 6  1.40186212701270  1.14864659235924 -0.25405778667867
 6  2.51297919841984  0.27697699739974  0.00592395029503
 6  2.35869573127313 -1.24540872117212  0.06837543114311
 1 -13.13939574037404 -2.76729970777078 -0.92440766476648
 1 -13.65178040174017 -1.16309029322932 -1.82019847454745
 1 -13.97016481868187  0.52021909070907  1.81805448814881
 1 -13.70003939753975  0.81156628372837 -0.03755609000900
 1 -14.63061036513651 -1.15911462486249  0.66896850115012
 1 -10.52386100300030 -2.88153493629363 -1.76837213261326
 1 -11.41109131803180 -2.23053784518452 -3.08138642484248
 1 -9.89554173767377 -1.44488369696970 -2.38373998649865
 1 -9.22626128092809  0.91937406840684 -0.87230104020402
 1 -10.08842016961696  0.36838810291029  2.28310405320532
 1 -11.57224258515851  0.59824652625262  3.07406575667567
 1 -11.38546924062406 -1.10588746524653  2.42070285998600
 1 -11.98907144964496  2.40227634963496 -0.10135691969197
 1 -12.30244648404840  2.47584315981598  1.56031974377438
 1 -10.66971725382538  2.34903549404940  1.14128842234223
 1 -12.22974604710471 -2.25789866346635  1.40041452035204
 1 -9.14931577347735 -1.75047340504050  0.43335243414341
 1 -5.76074552065206 -2.53753707880788 -0.13391143554355
 1 -5.70645306060606 -1.50336556915692  1.28711710791079
 1 -7.10847095769577 -2.66069834283428  1.04202035283528
 1 -7.28679999109911  1.32857118621862 -0.33540321682168
 1 -4.50782742744274 -0.18659004060406 -0.37301107680768
 1  13.27413309040904 -1.07205889328933  2.52339728032803
 1  12.15310048704871 -1.97720710071007  1.98995499519952
 1  13.76595895279528 -2.77472913791379  0.56303322922292
 1  12.77874531303130 -2.30105658415842 -1.94508760346035
 1  11.73515352355236 -2.67290641454145 -0.46840218231823
 1  11.51642125032503  0.12284265096510  3.47873291199120
 1  10.74935191289129  1.41413697679768  2.54328185238524
 1  10.19052667386739 -0.48616693119312  2.53055929712971
 1  13.71579848174818  1.10803942814281  0.64674873967397
 1  12.18455106830683  2.09823926172617  1.07331203690369
 1  13.27372320942094  1.63388786788679  2.38804528612861
 1  12.84785560506051  0.03115650605060 -2.92066451835184
 1  11.98009507790779  1.67156924782478 -1.99610754565457
 1  13.59213004560456  0.91629768266827 -1.52802828822882
 1 -5.65795801970197  2.88540292709271 -0.46032744354435
 1  9.99973122372237 -0.21998065566557 -2.19027136293629
 1  15.23212605780578 -0.79248906330633  0.66071467076708
 1  8.50378222902290  1.88149047624762 -0.10664794199420
 1 -2.08535361956196  4.12973942364236  0.02463829352935
 1 -2.73236200050005  4.10282750755076 -1.68579168826883
 1 -3.82873925902590  4.59078726052605 -0.55232503400340
 1 -2.72540216031603  0.49229144114411  0.07875492089209
 1  6.65414816471647 -1.98592815491549  0.15678816351635
 1  8.21927714221422 -2.04926965176518 -1.10564133823382
 1  8.52672259385939 -1.78805113351335  0.91988574947495
 1  6.15668081518152  1.75804961036104  0.10373835413541
 1 -0.67470882788279  2.87066110961096 -0.29800971247125
 1  4.88847483388339 -1.13920041674167  0.08412109320932
 1 -0.29495841904190 -0.26123793669367 -0.00655804470447
 1  3.90245941384138  1.84898053425343 -0.12207443244324
 1  1.46415329052905  2.34281007290729 -0.33375607400740
 1  1.39991882668267 -1.62931953615362 -0.72909391379138
 1  3.52327365216522 -1.82910921242124 -0.62711048104810
 1  2.08691538793879 -1.54109833883388  1.36152943954395

