%nproc=3
%Mem=2GB
# td=(NStates=1) CAM-B3LYP/6-31G(d,p) 

TD

0 1
<<<<<<< HEAD
 8 -11.69184585218522  0.34895554395440 -1.45720288388839
 8 -13.16012684848485 -2.41140944894489  1.38191387638764
 8  10.51496701660166 -1.09143903180318 -2.09592331863186
 8  14.48150151685168 -1.04769349084909 -0.24222871027103
 6 -11.04888305550555 -0.07685163986399 -0.36447587198720
 6 -11.73687997769777 -1.05116629652965 -1.33992283258326
 6 -11.75919796279628  0.40448713151315  0.82054170917092
 6 -13.11031623532353 -1.66410656855686 -0.95395702970297
 6 -13.23364182218222  0.04358691109111  0.84040872877288
 6 -13.56973340684068 -1.37412895069507  0.48827759505951
 6 -10.80818640734073 -1.88036345384538 -2.27528984728473
 6 -9.52867231103110  0.04691182498250 -0.42605956405641
 6 -11.10594657205720 -0.20072566856686  2.17668273537354
 6 -11.61248162846285  2.01978708180818  0.90122821452145
 6 -8.64099752145215 -0.84679272047205  0.03313205220522
 6 -7.23273126272627 -0.64952679877988  0.00714841514151
 6 -6.43051706660666 -1.78298698749875  0.51729396569657
 6 -6.62438810051005  0.57291812171217 -0.12357091229123
 6 -5.35210515211521  0.82571460816082 -0.09906423662366
 6  11.95555480238024  0.25093512301230  1.26078560666067
 6  11.61243853395340 -0.60842699789979 -1.29444332403240
 6  12.71808903700370 -1.15618984868487  1.48795352875288
 6  13.36027071377138 -1.82331686508651  0.24429839423942
 6  12.30500543524352 -1.86276078507851 -0.89018298079808
 6  11.06073296119612  0.03702845074507 -0.01351417111711
 6  11.09882128702870  0.33830047204720  2.51797413761376
 6  13.01368448514851  1.38150137093709  1.10613366436644
 6  12.45358166436644  0.42046091939194 -2.12154610241024
 6 -4.72191868756876  2.14807731373137 -0.31298614751475
 6  9.87936912441244  0.59436023882388  0.02997182048205
 6 -3.34570972937294  2.38613736743674 -0.23293355405541
 6  8.69329911591159  0.99920625442544 -0.16591093109311
 6 -2.94740642574257  3.84911637113711 -0.63157288938894
 6 -2.43106002110211  1.39265111381138 -0.07763029772977
 6  7.50918046054605  0.09631021902190  0.07938875477548
 6  7.80223495999600 -1.35545249734973  0.40023994689469
 6  6.27419876787679  0.70315724602460 -0.08461239723972
 6 -1.02840697219722  1.67687681138114 -0.25477365246525
 6  4.98010961376138  0.14543365946595  0.17239860866087
 6  0.00004648364836  0.80673398329833  0.01175207240724
 6  3.86615602330233  0.92631298169817 -0.09797726672667
 6  1.39264120492049  1.09554128182818 -0.14035641654165
 6  2.52318021852185  0.29262856255626  0.08762212011201
 6  2.40470033173317 -1.17817199749975  0.46939553315332
 1 -13.20062186298630 -2.81057403520352 -1.24316954095410
 1 -13.63132835653565 -1.20077406160616 -1.75696215091509
 1 -13.58519632183218  0.28895596439644  1.76549923262326
 1 -13.80778017161716  0.79690481758176  0.12228989458946
 1 -14.68548585268527 -1.56347506090609  0.57257886218622
 1 -10.53736235313531 -2.91828861166117 -1.69300459585959
 1 -11.35144535343534 -2.11480627202720 -3.22669095529553
 1 -9.98163034653465 -1.27612682128213 -2.72222383488349
 1 -8.98369702450245  0.97238936993699 -0.72283609370937
 1 -10.21076240384038  0.24910617471747  2.39962570537054
 1 -11.70692605350535 -0.14862816121612  3.09743809390939
 1 -10.87308800250025 -1.35537241374137  1.91383217291729
 1 -11.94329687218722  2.37755387738774 -0.08830561456146
 1 -12.36052229162916  2.40798637413741  1.49566327812781
 1 -10.57040732283228  2.30964155465547  1.12417671117112
 1 -12.13722679517952 -2.52350522412241  1.13656813571357
 1 -8.85083592549255 -1.84035239293929  0.50491959085909
 1 -5.35601504760476 -1.89669299439944 -0.28758680308031
 1 -5.90812322762276 -1.60668590119012  1.54100249644965
 1 -7.04244435503550 -2.76858913191319  0.31948809960996
 1 -7.24275558665867  1.50269859895990 -0.35381505800580
 1 -4.74628127282728 -0.04502588418842  0.43759998429843
 1  13.42233791089109 -0.97758944634463  2.46888182878288
 1  12.01186636363636 -1.88869824982498  1.92709870957096
 1  13.58897125402540 -2.97871953695370  0.35417234313431
 1  12.84183162166217 -2.33997047554756 -1.73669676437644
 1  11.62010201840184 -2.45370449434943 -0.52455779787979
 1  11.62622223042304  0.23401376807681  3.34438947764776
 1  10.90833781148115  1.42918848194819  2.48229575377538
 1  10.34351197239724 -0.20522883738374  2.61900814201420
 1  13.82663956585658  1.19682830703070  0.36971103590359
 1  12.38067068026803  2.28165760356036  0.86963166886689
 1  13.50005584268427  1.57827230633063  2.01162764436444
 1  12.92337315681568 -0.00085669526953 -2.94974742664266
 1  12.06169323772377  1.30848293919392 -2.48634656955696
 1  13.09382021462146  0.87975402830283 -1.58486397179718
 1 -5.38965118901890  2.98987337413741 -0.40338174897490
 1  9.77898914951495 -0.38126678427843 -2.06358869466947
 1  15.10208305350535 -1.42153196759676  0.37881648094809
 1  8.66381823262326  2.02216454365437 -0.52958023522352
 1 -2.14863994819482  4.22106855655566  0.18745457515752
 1 -2.20975974027403  3.65627285208521 -1.41522463156316
 1 -3.84559094419442  4.41938011981198 -0.91899170067007
 1 -2.73157277737774  0.50693290529053  0.10222726812681
 1  6.98724147404740 -2.16433599569957  0.20915340004000
 1  8.54546976147615 -1.80237496229623 -0.27486826092609
 1  8.34147406900690 -1.42487481588159  1.34527828872887
 1  6.31245639273927  1.72269607500750 -0.37803982368237
 1 -0.78431978897890  2.59094313781378 -0.55839575107511
 1  4.82624861126113 -0.88024452115212  0.36337901900190
 1 -0.41363028622862 -0.09493130603060  0.19311192229223
 1  3.66587575547555  1.88844448064806 -0.13864608960896
 1  1.48961583678368  2.01984777667767 -0.74046674507451
 1  1.31554038883888 -1.52394899909991  0.27142613821382
 1  2.72342366716672 -1.72153845534553 -0.46088385838584
 1  2.78888558495850 -1.41528575757576  1.30938422502250
=======
>>>>>>> 6a1b998aacd80a23911c140f266e48a14f2d523d

