%nproc=3
%Mem=2GB
# td=(NStates=1) CAM-B3LYP/6-31G(d,p) 

TD

0 1
 8 -11.69349601720172  0.29517016541654 -1.43870103370337
 8 -13.04259509530953 -2.40385869386939  1.35345103010301
 8  10.67346286618662 -1.09588947684768 -2.05686941324132
 8  14.43615698239824 -1.05462418391839 -0.06570105750575
 6 -11.04745291249125 -0.15361931663166 -0.30907033143314
 6 -11.68797508720872 -1.14816599649965 -1.26725556585659
 6 -11.69574161716172  0.31289797259726  0.96476613161316
 6 -12.98332353605361 -1.77411756965697 -0.94733636763676
 6 -13.17851630963096 -0.03600104770477  0.87164185208521
 6 -13.51565799929993 -1.45800733853385  0.49027779507951
 6 -10.84759034773477 -1.89109452695270 -2.37799011731173
 6 -9.50717016081608  0.10509764356436 -0.27052401050105
 6 -10.93333931133113 -0.24967056305631  2.16711177827783
 6 -11.57758813911391  1.89043414651465  1.05165325702570
 6 -8.58188160986099 -0.81738978017802  0.15270400940094
 6 -7.15467345694570 -0.61737358345835  0.15634333463346
 6 -6.20495451035104 -1.78396708550855  0.46731896819682
 6 -6.66325198689869  0.62922375227523 -0.19471802700270
 6 -5.33790373197320  1.02401443814381 -0.07116144634463
 6  11.85526477337734  0.18496852635264  1.29161868996900
 6  11.62415970607061 -0.67008316351635 -1.20571445114511
 6  12.53259048714872 -1.30479470917092  1.47991272467247
 6  13.24768945564557 -1.87090162356236  0.33481744614461
 6  12.42010694539454 -1.89341385038504 -0.88267222972297
 6  11.01271815971597  0.04604935283528  0.05293247354735
 6  10.86253765866587  0.40258690069007  2.54978731893189
 6  12.77830094679468  1.37450067086709  1.30766381738174
 6  12.36221252745274  0.43273214651465 -2.00055400320032
 6 -4.68957545324532  2.24295680168017 -0.28042289118912
 6  9.84901608910891  0.51410221302130 -0.08666984368437
 6 -3.36518167656766  2.61008976267627 -0.32225248594860
 6  8.61427121312131  0.90523685748575 -0.16968130813081
 6 -3.01535322042204  4.01753321282128 -0.76673640574057
 6 -2.30169708480848  1.63541539023902 -0.16205874057406
 6  7.37862740524052  0.07695828382838 -0.02480166426643
 6  7.65752048854886 -1.36766371847185  0.29322924582458
 6  6.27395874387439  0.73561049134913 -0.13012694869487
 6 -0.92942707420742  1.78684780848085 -0.24435261036104
 6  4.99048065086509  0.20292940904090  0.10412178097810
 6  0.07970444944494  0.81875518541854 -0.18248735153515
 6  3.74280368806881  0.84387473787379 -0.15554302330233
 6  1.42063400420042  1.11454318201820 -0.23012539343934
 6  2.46954485498550  0.28082738243824 -0.11831847394739
 6  2.22584244594459 -1.24516869716972  0.17282587618762
 1 -13.14524632543254 -2.92467544534453 -1.00302552655266
 1 -13.54455967966797 -1.26878086228623 -1.69155561026103
 1 -13.61054885708571  0.03686075487549  1.86390907360736
 1 -13.83248264186419  0.53288841594159  0.22445011061106
 1 -14.60891819591959 -1.53173188658866  0.57934953925393
 1 -10.52955157205720 -2.92079886268627 -2.07031232663266
 1 -11.30707091599160 -2.10967575897590 -3.24342262846285
 1 -9.92612479597960 -1.12568177677768 -2.44961657415742
 1 -8.96828548334834  0.90620275127513 -0.80509431953195
 1 -9.79704103170317  0.39300056415642  2.21007675047505
 1 -11.48786414731473 -0.20780407880788  3.12107045714572
 1 -10.65501619531953 -1.34602147864786  2.22825361506151
 1 -12.09432197469747  2.29581570357036  0.18106132213221
 1 -12.10290653005300  2.22107768326833  2.01995570737074
 1 -10.47635791789179  2.30525111561156  1.00838513201320
 1 -12.12280535303530 -2.43498637223722  1.29754423332333
 1 -8.85397623952395 -1.81623998169817  0.52272137103710
 1 -5.70542998909891 -1.80262358745875 -0.43037108150815
 1 -5.46958937423742 -1.57916314891489  1.34994339053905
 1 -6.75171528212821 -2.75492776577658  0.78907505830583
 1 -7.20505181628163  1.63052138123812 -0.07587726422642
 1 -4.64021066576658  0.20199881828183  0.09586581088109
 1  13.49306498359836 -1.17249893729373  2.18097303790379
 1  11.70298547554756 -1.97822720272027  1.62582858255826
 1  13.46052840974097 -2.93621528652865  0.64603152905290
 1  13.06405384388439 -2.39430590909091 -1.74627772247225
 1  11.82226223442344 -2.76188531243124 -0.85952129422942
 1  11.43324293249325  0.67991835853585  3.62013705240524
 1  10.14834181188119  1.17901346444644  2.54160168436844
 1  10.26347396859686 -0.39151746624663  2.70416665786579
 1  13.17833473537354  1.39245786998700  0.28959302410241
 1  12.03198581178118  2.36979641744174  1.23357806350635
 1  13.48502433953395  1.14757923702370  2.19475595719572
 1  12.55305612511251 -0.08174478407841 -2.94114656655666
 1  11.78761582998300  1.30267235813581 -2.24549248414842
 1  13.16482731533153  0.61697775067507 -1.56012149754975
 1 -5.24414663856386  3.02542692949295 -0.45578698949895
 1  10.12721397199720 -0.25675433303330 -2.18066040184018
 1  15.19206205140514 -1.11411122552255  0.62787138643864
 1  8.37490934173417  1.97070939813981 -0.54214149134914
 1 -2.01947703190319  4.48147459715972 -0.02846701700170
 1 -2.62778154245425  4.03112033683368 -1.89726283538354
 1 -3.70457684278428  4.77426560836084 -0.81171097259726
 1 -2.57690731083108  0.56979919191919 -0.20164311891189
 1  6.81359410931093 -2.05822538463846 -0.01052856815682
 1  8.96893210771077 -1.71889661446145 -0.02113288738874
 1  7.71899182078208 -1.57328965736574  1.43784754565457
 1  6.44991013811381  1.60071387678768 -0.40179219891989
 1 -0.45311666866687  2.72861690519052 -0.73960387188719
 1  4.91041702810281 -0.80665716241624  0.21987466856686
 1 -0.47795671887189 -0.01487330023002  0.15514812591259
 1  3.75394456235624  1.86979261546155 -0.45530775577558
 1  1.53635051025103  2.22272806470647 -0.36676937533753
 1  1.27482631743174 -1.26698330253025  0.50986998259826
 1  2.35846717151715 -1.90051635313531 -0.84765253525353
 1  2.93297999439944 -1.37610183918392  1.14783807040704

