%nproc=3
%Mem=2GB
# td=(NStates=1) CAM-B3LYP/6-31G(d,p) 

TD

0 1
<<<<<<< HEAD
 8 -11.72794946254625  0.23553420182018 -1.43934109770977
 8 -12.99346018181818 -2.61257956595660  1.43582926792679
 8  10.69276479637964 -1.05248513641364 -2.11072479877988
 8  14.49664303100310 -0.93210193169317 -0.06172065946595
 6 -10.96592475967597 -0.00680463516352 -0.21105052945295
 6 -11.60340663036304 -1.06720790069007 -1.22507134743474
 6 -11.78035007800780  0.36345302810281  1.03206286128613
 6 -13.05075027872787 -1.79203936183618 -0.93710534453445
 6 -13.24859331733173 -0.06251369896990  0.91021570947095
 6 -13.57111354485449 -1.65607714551455  0.50858962626263
 6 -10.77789337803780 -1.83041845934593 -2.19289160746075
 6 -9.51871131493149  0.14120125392539 -0.42831979007901
 6 -11.15407138453845 -0.18498409440944  2.22105717281728
 6 -11.76004638493849  1.88232333543354  1.05601369306931
 6 -8.72945636733673 -0.71817985918592  0.21775051405140
 6 -7.23053104270427 -0.47261910801080  0.14614231453145
 6 -6.44171818671867 -1.72890157895790  0.69629186548655
 6 -6.68410407210721  0.74327515741574 -0.05289384458446
 6 -5.33789373097310  0.91416345304530 -0.23806813701370
 6  11.92297154405441 -0.00879084958496  1.32678220632063
 6  11.71495878597860 -0.61025718091809 -1.14466834653465
 6  12.64747197529753 -1.35854008370837  1.51551628502850
 6  13.47509219591959 -1.84572910631063  0.28557252165216
 6  12.47932286698670 -1.91740624962496 -0.79937389988999
 6  11.11704859275928  0.05595034293429  0.07596477677768
 6  10.96837824272427  0.21795843784378  2.66514885508551
 6  12.76787990469047  1.24535775657566  1.55374842584258
 6  12.63158946514652  0.41307018031803 -1.91027497529753
 6 -4.74427092279228  2.16731923792379 -0.44061891079108
 6  9.89024021152115  0.38769957275728 -0.02581375807581
 6 -3.39341449984998  2.53767252095210 -0.47452771347135
 6  8.66823660966097  0.98552488628863 -0.09895423542354
 6 -3.07505919101910  3.97471893139314 -0.69740947304730
 6 -2.32732964806481  1.52720456915692 -0.25848838353835
 6  7.51760130263026  0.13048363636364 -0.08939812391239
 6  7.70045478197820 -1.34046099819982  0.14921484438444
 6  6.25360670867087  0.73493042334233 -0.20184412041204
 6 -1.03026715821582  1.87685680938094 -0.34707288238824
 6  4.92364396719672  0.12869198529853 -0.21838046924692
 6  0.07499397839784  0.92994630453045 -0.21583068586859
 6  3.78106751445145  0.85430578097810 -0.27088455745575
 6  1.39987192799280  1.12147387508751 -0.37546992789279
 6  2.52780068056806  0.35457475717572 -0.20642728482848
 6  2.19490935263526 -1.15157933823382 -0.02443384978498
 1 -13.00429223002300 -2.78470144794479 -1.03035825982598
 1 -13.68336356005601 -1.34321830603060 -1.66366282098210
 1 -13.95391319351935  0.18622569136914  1.88718140084008
 1 -13.73114250785079  0.41923705080508  0.16000366596660
 1 -14.69006631073107 -1.74422313571357  0.63845544984498
 1 -9.97322593949395 -2.60780756355636 -1.63009830523052
 1 -11.47634784368437 -2.28270306170617 -2.92857114331433
 1 -10.15261744524453 -1.01851105970597 -2.69077068956896
 1 -9.22797145194520  0.92724485548555 -1.05166897699770
 1 -10.04844617221722  0.26572783688369  2.36995273807381
 1 -11.61672703360336  0.08708541014101  3.26701505160516
 1 -11.02253294699470 -1.28145502200220  2.24199498919892
 1 -12.27737027952795  2.14258038003800  0.00936415241524
 1 -12.35008124752475  2.40982655815582  1.93548726052605
 1 -10.76576685878588  2.32575316581658  1.06786107960796
 1 -12.23559663216322 -2.59942281588159  1.17956243514351
 1 -9.16314715661566 -1.46841519921992  0.76847594649465
 1 -5.84497394349435 -2.05096842194219 -0.19323736813681
 1 -5.76531894719472 -1.28186341894189  1.53283167936794
 1 -6.83052316291629 -2.64879715271527  0.98747489828983
 1 -7.14628593969397  1.59905823492349 -0.31963163966397
 1 -4.59617626232623  0.15466408480848  0.04182040634063
 1  13.35392106920692 -1.24797648504850  2.61737667826783
 1  11.96433161016102 -2.21230061006101  1.68422442214221
 1  13.99157151405140 -2.90533219821982  0.46824375027503
 1  12.90027746624662 -2.26576305480548 -1.80654374907491
 1  11.72457246544655 -2.51295041894189 -0.56451179327933
 1  11.59403901210121  0.49350971767177  3.49414445314531
 1  10.13843082078208  1.08485404850485  2.77903542774277
 1  10.41575919711971 -0.69309762426243  2.90538677987799
 1  13.52576947884788  1.23718234243424  0.68329239403940
 1  12.30384299749975  2.23716315411541  1.58694340004000
 1  13.21583742084208  0.77321180028003  2.54145062666267
 1  13.42367318681868 -0.04716132573257 -2.64990744264426
 1  11.98273534193419  1.15869796069607 -2.32566050095009
 1  13.37944877747775  0.93589964286429 -1.24156964236424
 1 -5.47374959885989  3.01128551535154 -0.82006341714171
 1  10.13344459505951 -0.25229388698870 -2.49847218301830
 1  15.05638848404840 -0.84091390579058  0.75849444874487
 1  8.53297514831483  2.01191351855185 -0.23245052225223
 1 -2.61435651985199  4.62841929162916  0.07093292299230
 1 -2.38763752805281  3.93240046484648 -1.52343545264526
 1 -4.07709409450945  4.55977415921592 -0.95376517801780
 1 -2.71062068216822  0.49642185418542  0.00753779917992
 1  6.72574532443244 -1.83241280338034  0.10243272797280
 1  8.43852906740674 -1.87752247704770 -0.31481225532553
 1  7.84956487808781 -1.16738906730673  1.20499426032603
 1  6.03982913001300  1.91186499189919 -0.15729774947495
 1 -0.60663202020202  2.80778482198220 -0.74185409690969
 1  4.98462444884488 -0.94398089478948 -0.11340865976598
 1 -0.15880480368037 -0.15126693959396 -0.00636802570257
 1  3.82477164506451  2.07764340054005 -0.29101132613261
 1  1.56402327752775  2.19014480638064 -0.50665336373637
 1  1.06207504230423 -1.30190679487949  0.39195819141914
 1  2.19634095889589 -1.84560086158616 -1.17804557455746
 1  3.03253995039504 -1.37433166216622  0.85072835943594
=======
>>>>>>> 6a1b998aacd80a23911c140f266e48a14f2d523d

