%nproc=3
%Mem=2GB
# td=(NStates=1) CAM-B3LYP/6-31G(d,p) 

TD

0 1
<<<<<<< HEAD
 8 -11.63796046364637  0.28312896129613 -1.71107827142714
 8 -13.12314315011501 -2.34826313431343  1.39998568356836
 8  10.46252177207721 -1.17480736863686 -1.98537226352635
 8  14.38073143984398 -0.94771349284928 -0.30892537993799
 6 -11.01950011721172 -0.18657261196120 -0.41494091849185
 6 -11.63520981068107 -1.15566674657466 -1.31377021732173
 6 -11.77144918791879  0.38431511431143  0.80132978797880
 6 -13.00598580228023 -1.81770192809281 -0.97596923092309
 6 -13.24285274327433  0.01594414681468  0.72920760866087
 6 -13.60222665616562 -1.49701123892389  0.38924769206921
 6 -10.84661024972497 -2.08436385388539 -2.21179349764976
 6 -9.56387583138314  0.09375650945095 -0.40557751585159
 6 -11.08803478087809 -0.02013760976098  2.06340140724072
 6 -11.70698107840784  1.96054115721572  0.66633472517252
 6 -8.67948136983698 -0.79907794899490  0.10746948594859
 6 -7.24370235983598 -0.69613145924592  0.24050175047505
 6 -6.36967098199820 -1.85887457625763  0.52807504380438
 6 -6.60977663936394  0.55372620252025  0.14592603740374
 6 -5.25618556015602  0.75676771347135  0.01396706650665
 6  11.98388763566357  0.06451648114811  1.21994152225223
 6  11.59460675077508 -0.67709386458646 -1.24818869856986
 6  12.67795502360236 -1.25064929462946  1.51058579197920
 6  13.35289997669767 -1.76588112151215  0.21888585298530
 6  12.25517045174517 -1.99922443144314 -0.89579354185419
 6  11.13569045694569  0.05282002990299  0.04528170847085
 6  11.16262766766677  0.35069171117112  2.51388372857286
 6  13.09201231793179  1.20187340814081  1.11308435943594
 6  12.44564087028703  0.27179605290529 -2.12675662346235
 6 -4.79545604130413  2.02835534153415 -0.06590143904390
 6  9.97306849434944  0.51760256305631  0.04561338463846
 6 -3.41966712511251  2.49726848054806 -0.22413267396740
 6  8.75094488048805  0.91153748754876 -0.20861520152015
 6 -3.18758044314431  4.00035149464946 -0.36405613771377
 6 -2.42222913801380  1.56720856955696 -0.11533406810681
 6  7.47024656715672  0.18736932493249  0.02664348024802
 6  7.62774751125113 -1.31201815391539  0.32248217111711
 6  6.33166451445144  0.77185411571157 -0.22575651165117
 6 -0.96657078857886  1.94188331203120 -0.27752592769277
 6  4.98615021782178  0.22726184228423  0.06681805060506
 6  0.03495997499750  1.03352666256626  0.01271216841684
 6  3.78560796849685  0.91058140854085 -0.12297976697670
 6  1.47538947974797  1.31569329702970 -0.08362074297430
 6  2.53180108060806  0.39918921862186  0.01654501240124
 6  2.49225908760876 -0.99173335363536  0.25273386698670
 1 -12.99805160596060 -2.96457943574357 -0.80117534153415
 1 -13.59740496419642 -1.50253423762376 -1.73214966966697
 1 -13.81631943414341  0.46743381218122  1.61845452815282
 1 -13.61519091269127  0.44299942704270 -0.37074940934093
 1 -14.65545284938494 -1.38897761116112  0.46859846414642
 1 -10.44407302420242 -2.98656543934393 -1.81307660306031
 1 -11.45592580148015 -2.21747653905391 -2.94026231243124
 1 -10.00670285378538 -1.44110331893189 -2.40638225072507
 1 -9.16838549334934  0.95600773177318 -1.04660847094709
 1 -9.94301562916292  0.35506677077708  2.36757250005001
 1 -11.59140450135013  0.48633533513351  2.91352970307031
 1 -10.98932962666267 -1.04394127062706  2.42113290299030
 1 -12.01412395489549  2.26421254325433 -0.35654243824382
 1 -12.36801304070407  2.41386696219622  1.28915262706271
 1 -10.83341362346235  2.21799238973897  1.09226351985199
 1 -12.17198027052705 -2.52292516611661  1.21090556945695
 1 -8.97867870977098 -1.69627798549855  0.62388148704870
 1 -5.99864931103110 -2.55865919101910 -0.50291833623362
 1 -5.50132254755475 -1.54115934853485  1.24920331653165
 1 -6.94562467306731 -2.69712198519852  0.97774392519252
 1 -7.33667497859786  1.30966929602960  0.21187151065107
 1 -4.53842048674867 -0.06768815041504  0.20373659795980
 1  13.46871254835484 -0.99460114751475  2.28443338393839
 1  12.12444762176218 -2.18510789078908  1.90225622532253
 1  13.74883724062406 -2.74454611961196  0.55756268216822
 1  12.72575001350135 -2.30505698419842 -1.86724981968197
 1  11.56181618981898 -2.78199732363236 -0.55258060016002
 1  11.71732134033403  0.15905627232723  3.27629266796680
 1  10.71234821252125  1.27230279337934  2.72916044024402
 1  10.36023364456446 -0.47357567206721  2.71091733293329
 1  13.94282118401840  1.05502412661266  0.55544960976098
 1  12.60499311251125  1.95007444524452  0.77141184688469
 1  13.53260909800980  1.35702018111811  2.18218470007001
 1  12.62881370087009 -0.31850846044604 -3.00922337423742
 1  12.08815588398840  1.17197928882888 -2.30485842074207
 1  13.48728956155615  0.23894994789479 -1.57525301070107
 1 -5.57977020092009  2.82636702350235 -0.23566497729773
 1  9.79914116471647 -0.57571622922292 -2.04495683148315
 1  14.97355020022002 -0.78737855225523  0.29941854115412
 1  8.57418926972697  1.96137846504650 -0.35292256945695
 1 -2.53748883308331  4.37654410411041  0.51289711941194
 1 -2.38349711401140  4.05884310911091 -1.18599170827083
 1 -4.05017140224022  4.47778596039604 -0.45116491799180
 1 -2.57746736683668  0.53309552155215  0.16801384678468
 1  6.59302205210521 -1.77618718081808  0.71678416311631
 1  8.04763997849785 -1.90773549834984 -0.66702747684769
 1  8.38169809140914 -1.42140446884688  1.25378913981398
 1  6.25998114521452  1.87101090649065 -0.32104412411241
 1 -0.64729608660866  2.91425546904690 -0.14429434093409
 1  4.91201718811881 -0.92279877657766  0.04646732783278
 1 -0.18215713891389 -0.06450826372637  0.00187279837984
 1  3.99024819271927  1.92446808300830 -0.35285751075108
 1  1.85145202040204  2.37775356725673 -0.16041874027403
 1  1.66807564236424 -1.44433103730373  0.63113210881088
 1  2.87648897369737 -1.52397869936994 -0.56982475247525
 1  3.06508320472047 -1.24718894789479  1.12791607820782
=======
>>>>>>> 6a1b998aacd80a23911c140f266e48a14f2d523d

