%nproc=3
%Mem=2GB
# td=(NStates=1) CAM-B3LYP/6-31G(d,p) 

TD

0 1
 8 -11.80544721232123  0.28346899529953 -1.46509367296730
 8 -12.97222805860586 -2.51892020002000  1.41054673967397
 8  10.70347586748675 -1.19646953485349 -2.02822654895490
 8  14.55581894859486 -0.79193791529153 -0.04544903230323
 6 -11.00318848604861 -0.18534248894890 -0.25137456185619
 6 -11.74429071877188 -1.09048022792279 -1.19596843714371
 6 -11.67127917091709  0.37504418721872  1.05305496049605
 6 -13.18212341604160 -1.65094525242524 -0.84916655065507
 6 -13.13821227922792 -0.06263371097110  1.08706339423942
 6 -13.42251868536854 -1.47561909970997  0.62598136543654
 6 -11.05412100080008 -1.95090050755075 -2.26884920322032
 6 -9.51000044384439  0.04101123492349 -0.41312827092709
 6 -10.93114909230923 -0.22469806580658  2.26459152625263
 6 -11.53331371167117  1.89815491859186  1.07530562226223
 6 -8.63868729042904 -0.88875691689169 -0.03037429842984
 6 -7.24096208580858 -0.56519836593659 -0.03651595129513
 6 -6.29150316521652 -1.78722741154115  0.19684192049205
 6 -6.61879754145415  0.65402623252325 -0.26996555175518
 6 -5.23623356495650  0.88485052175218 -0.30441477167717
 6  11.84636388328833  0.03353338283828  1.33194272237224
 6  11.78257554765477 -0.82383853905391 -1.21944582428243
 6  12.71256848494849 -1.26509073877388  1.46471120452045
 6  13.50685537223722 -1.67445197859786  0.31734569896990
 6  12.55734066876688 -1.95217972697270 -0.89361332383238
 6  11.13286017391739 -0.02203745584558 -0.00782360206021
 6  10.85027643254325  0.05989263126313  2.49827216741674
 6  12.64752786948695  1.31021424222422  1.42610566156616
 6  12.46927323352335  0.29586846014601 -1.99762371017102
 6 -4.75003149884988  2.11509401540154 -0.44857970687069
 6  9.97107829532953  0.36875767856786 -0.13757493419342
 6 -3.42908806720672  2.50668942264226 -0.53646390709071
 6  8.65932571857186  0.90606694049405 -0.10502484248425
 6 -3.06640832593259  3.94671613111311 -0.63095282738274
 6 -2.34496141124112  1.71071291999200 -0.43239577427743
 6  7.47286682918292  0.10176076407641 -0.00360954505451
 6  7.55086982348235 -1.36079303140314  0.13575349824983
 6  6.26467781578158  0.78245517581758 -0.08810274627463
 6 -0.96441057255726  1.97559668336834 -0.41716989208921
 6  4.90486208900890  0.29934905100510  0.18104947374737
 6  0.04547102610261  0.94006731663166 -0.22867196999700
 6  3.68302771047105  0.97630798119812 -0.01001847084708
 6  1.31796373717372  1.27890961866187 -0.22881526242624
 6  2.40210811131113  0.41997129682968  0.05862922082208
 6  2.25615547724772 -1.09384356465647  0.45788438203820
 1 -13.27645944674467 -2.66706968476848 -1.21117634163416
 1 -13.85012023572357 -1.05771975617562 -1.42779923462346
 1 -13.54091189338934 -0.06150908210821  2.03789647234723
 1 -13.82244163776378  0.69137426452645  0.34960262586259
 1 -14.54840214431443 -1.45885459885989  0.63124472877288
 1 -10.77671628852885 -3.09365614841484 -1.91069636503650
 1 -11.71940214911491 -1.93695848724872 -3.15538382458246
 1 -10.13337552105211 -1.38991820042004 -2.68909052155215
 1 -9.13814246904690  0.92647477847785 -0.74106791689169
 1 -9.77855918351835  0.07035829992999  2.33364910771077
 1 -11.61022638353835  0.09962666426643  3.22174052415242
 1 -10.82972366606661 -1.27201407790779  2.51315210491049
 1 -11.98851139363936  2.26843296529653  0.24180739673967
 1 -12.19385562496250  2.33517909340934  1.86228994079408
 1 -10.58931921402140  2.22790338083808  1.24832912641264
 1 -12.03042611511151 -2.43478635223522  1.28660313921392
 1 -8.71523236513651 -1.73468182588259  0.52412151105110
 1 -5.93442288838884 -2.17589091419142 -0.92814085848585
 1 -5.48383079837984 -1.60241547414741  0.90047844404441
 1 -6.92817292789279 -2.65925819881988  0.73555970677068
 1 -7.37620893199320  1.57659598869887 -0.28058773527353
 1 -4.43482012671267  0.09054767316732 -0.32942671837184
 1  13.51205688278828 -1.19847153455346  2.28233317391739
 1  12.04624980198020 -2.01677105710571  1.69162516221622
 1  13.99165152205221 -2.53043470847085  0.66077300320032
 1  13.14667210571057 -2.12161864036404 -1.74404749944995
 1  11.87654766296630 -2.78829795369537 -0.66194153625363
 1  11.31144075227523  0.08745911261126  3.58670370907091
 1  10.42525950365036  1.14262982608261  2.50917844204420
 1  9.98705632683268 -0.67712602710271  2.33755999719972
 1  13.49082598449845  1.53729235343534  0.47042110691069
 1  11.96853946714671  2.13151258905891  1.20993569926993
 1  13.12551838893889  1.26605108420842  2.43382986458646
 1  12.87474829432943  0.10091348174818 -2.92885533743374
 1  11.74209127752775  1.27126921782178 -2.20221815671567
 1  13.39268010061006  0.68905495839584 -1.62954844024402
 1 -5.39596182008201  3.02123651045105 -0.43915532633263
 1  10.09741099169917 -0.41437009460946 -2.23016535233523
 1  15.27595044024402 -0.93449326372637  0.67679627892789
 1  8.55486733753375  1.94712703990399 -0.39797707490749
 1 -2.44634971917192  4.24830127982798  0.23681951165117
 1 -2.62187095139514  4.33869109390939 -1.66373948304830
 1 -3.89718610371037  4.66632481428143 -0.34205400690069
 1 -2.72418203830383  0.64786699869987 -0.11738469306931
 1  6.58863161306131 -1.94915447754775  0.14433691839184
 1  8.40071528602860 -1.89869459425943 -0.30427120122012
 1  7.87463738533853 -1.43659598799880  1.34713847474747
 1  6.21237638473847  1.76740054545455 -0.45357737743774
 1 -0.64902625962596  3.03520756425643 -0.40711062256226
 1  4.92829881628163 -0.61514801150115  0.50898357945795
 1 -0.30970989418942 -0.06004781768177  0.01009362046205
 1  3.83226239413941  1.94437007320732 -0.36623884888489
 1  1.42840971617162  2.23204899679968 -0.52288498689869
 1  0.96690552535253 -1.30955755995600  0.54762375797580
 1  2.75885721052105 -1.71952825432543 -0.44637240724072
 1  2.66140283668367 -1.16302053105311  1.37858114471447

