%nproc=3
%Mem=2GB
# td=(NStates=1) CAM-B3LYP/6-31G(d,p) 

TD

0 1
 8 -11.68236490409041  0.23052370077008 -1.57854501810181
 8 -12.92937377317732 -2.39268757675768  1.54870055505551
 8  10.52252777267727 -0.94314420232023 -2.01733545984598
 8  14.49521288798880 -0.93430215171517 -0.30446493389339
 6 -10.97778594579458 -0.15602955765577 -0.39259868426843
 6 -11.66538282798280 -1.14082526242624 -1.23997283758376
 6 -11.71525356835683  0.30748743154315  0.89508916391639
 6 -13.00766597029703 -1.81087124502450 -0.79889152315232
 6 -13.25029348734873 -0.02357980558056  1.02497718561856
 6 -13.43123955745575 -1.51655319311931  0.54091285858586
 6 -10.90478606730673 -2.04296971447145 -2.07384970327033
 6 -9.52717216101610  0.05867300110011 -0.50275723382338
 6 -10.92188816621662 -0.11155675167517  2.13520858795880
 6 -11.60274065436544  1.89479458255826  0.95615370707071
 6 -8.58633205490549 -0.75910395159516 -0.00595185618562
 6 -7.20219820942094 -0.54641648774877  0.02988068836884
 6 -6.30990500540054 -1.68006669546955  0.49858209450945
 6 -6.64087974967497  0.68499932983298 -0.30131868706871
 6 -5.30282022362236  0.94112614931493 -0.28698302850285
 6  11.92865211211121 -0.01165113561356  1.44654418251825
 6  11.67770506060606 -0.63575973117312 -1.25450933063306
 6  12.71622885098510 -1.25902013171317  1.45938067146715
 6  13.41343603030303 -1.78759329272927  0.04537850225023
 6  12.40269520422042 -1.87969247824783 -0.95175913841384
 6  11.03857074497450 -0.03013826592659  0.12971015131513
 6  10.95214661956196  0.01378802080208  2.59636197639764
 6  12.80148326502650  1.17907112791279  1.40274332533253
 6  12.53277958415842  0.42959183248325 -2.05389933773377
 6 -4.80647714341434  2.20025253125312 -0.45757060596060
 6  9.87109829732973  0.49075987878788  0.03970279357936
 6 -3.38144330273027  2.60865961966197 -0.54140440114011
 6  8.64771455745574  0.87660399419942 -0.10098443844384
 6 -3.00702238733873  4.01198265776578 -0.70568030013001
 6 -2.39975689078908  1.51003285198520 -0.32301483618362
 6  7.56224576707671  0.13315390339034  0.14500531643164
 6  7.58447318381838 -1.31380833293329  0.44504442734273
 6  6.27986933493349  0.69985691599160 -0.01290522652265
 6 -1.05135926742674  1.86760588428843 -0.28215639073907
 6  4.96488809160916  0.17569668576858 -0.02348097929793
 6  0.00190666966697  0.96459976987699 -0.05449455225523
 6  3.77637704540454  0.90820117051705 -0.05469293829383
 6  1.30721266206621  1.29051077877788 -0.12062444334433
 6  2.36220412091209  0.38593789348935  0.08501185908591
 6  2.18242810451045 -1.10301448174817  0.20199879347935
 1 -12.88031983278328 -2.79052203000300 -0.76884210821082
 1 -13.86263148684868 -1.59686367056706 -1.32963941864186
 1 -13.61761956415642 -0.08647157835784  1.92617530023002
 1 -13.90751014461446  0.21958708580858  0.15242290789079
 1 -14.46073337743774 -1.65022373577358  0.63902550685069
 1 -10.45091370827083 -2.96240302310231 -1.71284658005801
 1 -11.34573478237824 -2.37190198159816 -2.89451773797380
 1 -9.91839402290229 -1.53429263786379 -2.54658627112711
 1 -9.35355401020102  0.85706783778378 -1.04366817691769
 1 -9.99230055765577  0.57564882898290  2.04153989678968
 1 -11.53497885878588  0.13370007160716  3.00295864596460
 1 -10.83144383808381 -1.18570544704470  2.25670646034603
 1 -12.12725526802680  2.53227934993499  0.18982219821982
 1 -12.16169240864086  2.12231780728073  1.90657436923692
 1 -10.61152143424342  2.29813040354035  1.07445173867387
 1 -11.97866093859386 -2.75853872747275  1.25508998789879
 1 -9.00718156005601 -1.71939029672967  0.55079417831783
 1 -5.47591703780378 -1.86849017411741 -0.30995904030403
 1 -5.86451886718672 -1.72683791639164  1.58920731693169
 1 -7.02079218981898 -2.68118039103910  0.43487963876388
 1 -7.34663597469747  1.41808013711371 -0.33611328782878
 1 -4.66680332503250 -0.04435581718172  0.06507273157316
 1  13.50553623072307 -1.28808049544954  2.30701564216422
 1  12.12892806980698 -2.09298867886789  1.72171817151715
 1  13.83093545044504 -2.88849051405140  0.03539046494649
 1  12.71009844834483 -2.17507398589859 -2.05530862556256
 1  11.68380838903891 -2.86839596349635 -0.60122546464646
 1  11.48422803100310  0.22699306600660  3.59155419411941
 1  10.22195917361736  0.72108767186719  2.30188771297130
 1  10.37302492369237 -0.87962627712771  2.74406064726473
 1  13.63387028892889  1.04741336553655  0.68267233203320
 1  12.43347596079608  2.13152259005901  1.03284799049905
 1  13.20279611671167  1.32965744484449  2.46247272887289
 1  12.76880770027003  0.05887927832783 -3.01798425032503
 1  11.66207327572757  1.38430052095209 -2.10705864076408
 1  13.50778161076108  0.57656370927093 -1.57997348274827
 1 -5.30882310621062  3.01528591539154 -0.76108751955196
 1  9.93958520912091 -0.19346800440044 -2.04375671147115
 1  15.31214405960596 -1.16183599799980  0.34787338663866
 1  8.39728157895790  1.89738206540654 -0.22705998319832
 1 -2.39943502770277  4.32055850555056  0.09822565226523
 1 -2.32209097339734  4.24665188998900 -1.44731784088409
 1 -3.70772715781578  4.74684286608661 -0.94992479397940
 1 -2.56636625672567  0.45109732173217 -0.32621557615762
 1  6.64072682258226 -1.79780934303430  0.22821530623062
 1  8.31804701920192 -1.70351507630763 -0.22764353845385
 1  7.80933085468547 -1.61817414581458  1.51256501740174
 1  6.04492964006401  1.77367117251725 -0.34466648634864
 1 -0.79969132613261  2.97639168266827 -0.43772368386839
 1  4.76516250265026 -0.85575207190719  0.11476415751575
 1 -0.54514343754376 -0.03809562246225  0.15172778387839
 1  3.78153732163216  1.99628526472647  0.01747952295229
 1  1.34264113931393  2.55921171307131 -0.10326302470247
 1  1.12380121492149 -1.24044064826483  0.66324532013201
 1  2.36261758655866 -1.60102640414041 -0.69253702370237
 1  3.12500919731973 -1.48947317631763  0.96302958955896

