%nproc=3
%Mem=2GB
# td=(NStates=1) CAM-B3LYP/6-31G(d,p) 

TD

0 1
 8 -11.91926859445945  0.49894054245425 -1.22759992359236
 8 -12.83350418621862 -2.59875818381838  1.36009169416942
 8  10.69880540044004 -1.12473236113611 -2.01382510881088
 8  14.60820418711871 -0.89601832333233  0.22522803540354
 6 -11.12439060626063 -0.05422937763776 -0.18752817721772
 6 -11.76128241794179 -1.00634181408141 -1.29660850115011
 6 -11.72790483348335  0.29157584038404  1.15028468346835
 6 -13.09096430013001 -1.57732789068907 -0.86466810081008
 6 -13.28410686868687 -0.12205965356536  1.18597328522852
 6 -13.46968340184018 -1.54759629742974  0.58708747604760
 6 -10.92407799649965 -1.51212663016302 -2.50416273457346
 6 -9.63065250905091  0.18808594239424 -0.39222618071807
 6 -11.00485646304630 -0.30664626062606  2.37434250135014
 6 -11.57385776607661  1.86689179227923  1.36581467316732
 6 -8.70976439813981 -0.68828686988699  0.08686742574257
 6 -7.19983797339734 -0.55916776287629  0.05100280058006
 6 -6.49584359925993 -1.82633132193219  0.23632586888689
 6 -6.62126778847885  0.60411124102410 -0.13105166036604
 6 -5.25740568216822  0.88348038473847 -0.23095742594259
 6  11.77217646454645  0.15395542504250  1.47866739483948
 6  11.64067135723572 -0.67097325252525 -1.17072095179518
 6  12.67110433853385 -1.12993722342234  1.68410314371437
 6  13.43771845854586 -1.65579011241124  0.51692565696570
 6  12.55771070577058 -1.90872538153815 -0.74998896139614
 6  11.12501938983898 -0.02941819391939  0.12476965726573
 6  10.69986139103910  0.44427106910691  2.58561090129013
 6  12.71833495019502  1.43930715151515  1.47412046304630
 6  12.56100240644064  0.39381825512551 -1.90583453125313
 6 -4.72517901360136  2.17289979597960 -0.17231208010801
 6  9.91710289778978  0.50257105990599 -0.05138631533153
 6 -3.33879903830383  2.45722447614761 -0.39607986868687
 6  8.66540632663266  0.87019335313531 -0.37932227222722
 6 -3.05844752985299  3.85968742824282 -0.84133386548655
 6 -2.33427034213421  1.50873272197220 -0.32642517721772
 6  7.50349989248925 -0.05236464846485 -0.23931311541154
 6  7.77851258775878 -1.42204915701570  0.20059998289829
 6  6.28779012701270  0.61652858315832 -0.37128106410641
 6 -0.94566869836984  1.78257738143814 -0.51018919401940
 6  4.89197079987999  0.02497161326133 -0.09186781798180
 6  0.09194567356736  0.76967027692769 -0.34625372817282
 6  3.77837724542454  0.71879222962296 -0.36908437743774
 6  1.42606454725473  1.14817654535454 -0.45048742964296
 6  2.41422932343234  0.24897419711971 -0.29505614771477
 6  2.26794665636564 -1.27408158845885 -0.05415682208221
 1 -12.91326312711271 -2.65290826862686 -0.94532975697570
 1 -13.94610983468347 -1.47759174337434 -1.50719717441744
 1 -13.82862066426643  0.02268933773377  2.22639532223222
 1 -13.98128752235223  0.63442856995700  0.47197486308631
 1 -14.62087939203920 -1.53703241664166  0.61091269556956
 1 -10.76592520942094 -2.70928771157116 -2.41807710311031
 1 -11.54534474337434 -1.52668746014601 -3.48597688388839
 1 -10.17166935043504 -0.82538174677468 -2.57195880838084
 1 -9.35653430823082  1.04636676767677 -0.94135794589459
 1 -10.03168449604961  0.11377264136414  2.40156589938994
 1 -11.55165052595260  0.05551225282528  3.38053640374037
 1 -11.17781847554755 -1.34762163866387  2.44381517121712
 1 -12.01461400390039  2.43344946694669  0.43996721272127
 1 -11.93878011741174  2.34853042854285  2.27302101390139
 1 -10.55860614271427  2.15171576207621  1.65938023152315
 1 -11.81834490699070 -2.41769464306431  0.99501398029803
 1 -8.85739658155816 -1.78871722942294  0.46704580348035
 1 -5.97248669476948 -2.05482880798080 -0.71368941334133
 1 -5.64552696799680 -1.78625385798580  1.06007440364036
 1 -6.98907901850185 -2.80290256325633  0.34757090789079
 1 -7.30125143624362  1.58731706080608 -0.20072974947495
 1 -4.44076072077208 -0.01620300190019 -0.07073084878488
 1  13.39923560066007 -1.01587327472747  2.51892683328333
 1  12.03187836483648 -1.82618199819982  1.85695169486949
 1  13.84298665556556 -2.78976064106411  0.70235716161616
 1  13.09741718021802 -2.10284676317632 -1.60962405710571
 1  11.89843985218522 -2.60300942484248 -0.27511285338534
 1  11.36579618781878  0.58006837353735  3.51618665736574
 1  10.45252222992299  1.43363892699270  2.38339586378638
 1  9.87738535973597 -0.30414872937294  2.57074331553155
 1  13.60794769666967  1.37131575577558  0.72818688348835
 1  11.96352896609661  2.33073251105111  1.19471417711771
 1  13.16674251135113  1.74380885998600  2.48303478507851
 1  13.08681950145015  0.02872626302630 -2.75251770367037
 1  11.78729579797980  1.15382747364737 -2.23541147604760
 1  13.41948278087809  0.82999905280528 -1.41756724212421
 1 -5.39561178507851  3.04032841964196 -0.48557996879688
 1  10.02223347394740 -0.52976163376338 -2.39225156095610
 1  15.19443228842884 -0.72524233863386  0.90097869716972
 1  8.67434928572857  1.95589791699170 -0.53639091629163
 1 -2.47508259245925  4.35365181488149  0.00761659135914
 1 -2.37250601490149  3.89571679647965 -1.72107521662166
 1 -3.92482886798680  4.55277345914591 -1.10477027852785
 1 -2.58665828592859  0.43088530053005  0.18354539993999
 1  6.76803955385539 -2.08679824192419 -0.02131964726473
 1  8.53363857835784 -1.73102782758276 -0.35558633273327
 1  8.32326224782478 -1.33729605800580  1.24417817871787
 1  6.50087523462346  1.79701350675067 -0.68773079277928
 1 -0.41013237023702  2.58205224872487 -0.72200211171117
 1  4.85061104750475 -0.86066256295630  0.45370805190519
 1 -0.25678460166017 -0.30063187608761  0.11212382348235
 1  3.91676084398440  1.67983361956196 -0.83197542254225
 1  1.67105398059806  2.10545633753375 -0.62048474687469
 1  1.20352918771877 -1.54649125332533 -0.27940894529453
 1  2.82935426022602 -1.95579188068807 -0.62502027202720
 1  2.34899159555956 -1.28725295429543  1.09470275687569

