%nproc=3
%Mem=2GB
# td=(NStates=1) CAM-B3LYP/6-31G(d,p) 

TD

0 1
 8 -11.69412608020802  0.30042069046905 -1.62946010961096
 8 -13.16205704150415 -2.35526383438344  1.43513919891989
 8  10.75818133803380 -0.97906779467947 -2.13722744904490
 8  14.61696506320632 -1.09901862336234 -0.08112259965997
 6 -11.13228139533953 -0.13132708740874 -0.33057248164816
 6 -11.70320661036103 -1.15306648654866 -1.21665050535054
 6 -11.82072411541154  0.42203888668867  0.90640029502950
 6 -13.03434863856386 -1.80264042194219 -1.02608424242424
 6 -13.29768822682268 -0.02864031163116  0.87483217111711
 6 -13.51802823632363 -1.45746728452845  0.40041880918092
 6 -10.79866545524552 -2.02317773527353 -2.00881319961996
 6 -9.53999344314431  0.13394052785279 -0.29664662276228
 6 -11.11015699309931 -0.03146874287429  2.24266933403340
 6 -11.78814919521952  1.90729583268327  0.89166725842584
 6 -8.67918133983398 -0.80758880008001  0.13651239023902
 6 -7.18348633823382 -0.62567441354135  0.27290499079908
 6 -6.33981799669967 -1.78914760356036  0.51978421472147
 6 -6.57225288698870  0.61459228912891 -0.00164872007201
 6 -5.26807674927493  0.92925496219622 -0.05207953815382
 6  11.90478972587259  0.10941097059706  1.40876040414041
 6  11.77158444854486 -0.53795995119512 -1.18935281498150
 6  12.64466169426943 -1.24809903960396  1.55406013941394
 6  13.41230591729173 -1.85344987838784  0.28668263266327
 6  12.50428536323632 -1.78749325832583 -0.82053601610161
 6  11.12763965186519  0.00264501240124  0.03310049034904
 6  10.95356676157616  0.26187282928293  2.57854019421942
 6  12.84913803050305  1.34266748754875  1.38073112411241
 6  12.64329063526353  0.54432330563056 -1.89975392319232
 6 -4.71271776747675  2.24311681768177 -0.32610745964596
 6  9.83270445794579  0.50703150595060 -0.03663484018402
 6 -3.41353651205121  2.46745549924993 -0.43342360306031
 6  8.56424621062106  0.86898323212321 -0.13529786978698
 6 -3.08022970807081  3.96486794629463 -0.50546027812781
 6 -2.31041795689569  1.50562241094109 -0.25961849654965
 6  7.49013855635564 -0.01335074707471 -0.12265144924492
 6  7.65981071757176 -1.33259021112111  0.29779970287029
 6  6.29591093909391  0.60671760206021 -0.16657059305931
 6 -0.95011914341434  1.79730885458546 -0.19225740084008
 6  4.97884948774878  0.02426154225423 -0.20859949114911
 6  0.04174065306531  0.89442275217522 -0.09825892869287
 6  3.81272067976798  0.75321567196720 -0.28357582658266
 6  1.37815975677568  1.24893662136214 -0.27073945484548
 6  2.44868276877688  0.39743904360436 -0.13085972807281
 6  2.14835469716972 -1.16410059035904 -0.11224263066307
 1 -13.02134393519352 -2.92578555635564 -0.97321254525453
 1 -13.84147937163716 -1.21404538873887 -1.50137659235924
 1 -13.87173497569757  0.07950501930193  1.88796147884788
 1 -13.96022541614161  0.45952107920792  0.05439310491049
 1 -14.57341464556456 -1.71063977737774  0.42119372367237
 1 -10.53920253715371 -2.84942172497250 -1.51925722112211
 1 -11.49272948184819 -2.27998278967897 -3.03107139333933
 1 -9.95093727722772 -1.47252646124612 -2.53914552705270
 1 -9.32337099189919  1.21318344934493 -0.58075188528853
 1 -9.94813614121412  0.41988325242524  2.18268401120112
 1 -11.63351871277128  0.57045374697470  3.13036138623862
 1 -11.03400409410941 -1.09928680518052  2.45349613931393
 1 -12.12858540104010  2.06179230123012 -0.15764254825483
 1 -12.47929416881688  2.29411498699870  1.62968668046805
 1 -10.81759204130413  2.06666725722572  1.17591188468847
 1 -12.12663573607361 -2.46755962956296  1.72210668956896
 1 -8.99731057295729 -1.83669202690269  0.69523862276228
 1 -6.17663710981098 -2.61623494859486 -0.44399244364436
 1 -5.47666008130813 -1.44019925252525  1.20622901910191
 1 -7.00382049264926 -2.50861313431343  1.12886903770377
 1 -7.34801611271127  1.65794412351235  0.04221454495450
 1 -4.48423506820682  0.01234985338534  0.28766499079908
 1  13.36996267336734 -1.07518920632063  2.37627256785679
 1  11.89629480648065 -1.99959933993399  1.80619661936194
 1  13.65049740664066 -2.84294595959596  0.47539446534654
 1  13.02577001550155 -2.03437991649165 -1.70597369206921
 1  11.72059206740674 -2.32807193109311 -0.55028037013701
 1  11.40987059525953  0.28854922162216  3.61583662236224
 1  10.39467644534453  1.29459502260226  2.52841036523652
 1  10.33517113831383 -0.69844815931593  2.48424466566657
 1  13.75143204510451  1.00513913811381  0.54060812561256
 1  12.20138275147515  2.13952339013901  1.05816052175218
 1  13.34587042414241  1.58000247934793  2.29204568616862
 1  12.98328914841484  0.06852024242424 -3.04634708660866
 1  12.21842891129113  1.46381847274727 -2.02578051295130
 1  13.69316014861486  0.74617066996700 -1.21923740914091
 1 -5.45087731163116  2.98883327012701 -0.66499791059106
 1  10.21525277587759 -0.05565422302230 -2.16453878967897
 1  15.06471931713171 -1.01301111551155  0.59791839113911
 1  8.35871772257226  1.79126145334533 -0.52350962816282
 1 -2.80310539473947  4.59457590729073  0.60747657735774
 1 -2.35227399169917  4.07824504930493 -1.22206531563156
 1 -3.86398278337834  4.66102428422842 -0.95875567706771
 1 -2.67345696579658  0.35797800980098 -0.34291724632463
 1  6.86272902280228 -2.08248781088109  0.02845533023302
 1  8.34299951445145 -1.92301702650265 -0.30914168826883
 1  7.91069099069907 -1.35406773517352  1.38416217711771
 1  6.29086423352335  1.64992879827983 -0.53138515821582
 1 -0.66702805980598  2.93904794829483 -0.19933984548455
 1  5.14793077947795 -1.08102459915992 -0.23023034193419
 1 -0.32985190839084 -0.22383419631963  0.10021263236324
 1  4.00570973887389  1.72348798499850 -0.49884210921092
 1  1.54708158335834  2.29079487138714 -0.35562826122612
 1  1.18951778657866 -1.39071567576758  0.29647864346435
 1  2.61971329612961 -1.60267656915692 -0.98210598059806
 1  3.01139783618362 -1.62867709670967  0.64098738533853

