%nproc=3
%Mem=2GB
# td=(NStates=1) CAM-B3LYP/6-31G(d,p) 

TD

0 1
<<<<<<< HEAD
 8 -11.79405607320732  0.41339198759876 -1.50617778137814
 8 -13.06534737053705 -2.36502481048105  1.54375006000600
 8  10.61668718861886 -0.93196308420842 -2.05258898519852
 8  14.49405277197720 -1.08030675217522  0.14453996659666
 6 -11.11853002020202 -0.14879883458346 -0.26995642004200
 6 -11.79650594029403 -1.04841602150215 -1.21780062036204
 6 -11.73160520352035  0.31612829562956  1.03209286428643
 6 -13.24242944664466 -1.66152631053105 -0.92500413441344
 6 -13.22792125012501 -0.00453790139014  1.14694938283828
 6 -13.63298973247325 -1.45091662946295  0.58857762506251
 6 -11.02126771547155 -1.88911432893289 -2.22192451075107
 6 -9.60093953775377  0.05913304710471 -0.43823078117812
 6 -10.94136011341134 -0.26531212721272  2.29668473557356
 6 -11.65330571087109  1.90290539363936  1.11175926762676
 6 -8.67741116281628 -0.74433247444744  0.12341108010801
 6 -7.21703969356936 -0.61261310741074  0.09206690699070
 6 -6.42352636753675 -1.83561225002500  0.22814505080508
 6 -6.69795545724572  0.66046687658766 -0.12680123532353
 6 -5.35809575117512  0.83719575627563 -0.12515684588459
 6  11.81657090399040  0.18629865936594  1.43589311741174
 6  11.73167045714571 -0.56612276747675 -1.14302818251825
 6  12.47915514361436 -1.18284251395140  1.64347908130813
 6  13.25380006670667 -1.78326285968597  0.44351831623162
 6  12.41037597229723 -1.81488599759976 -0.78866282878288
 6  11.18124501240124  0.14360910881088  0.14523170347035
 6  10.74538594349435  0.54883152515252  2.55363770397040
 6  12.92846596329633  1.24714793559356  1.45106815781578
 6  12.64859116531653  0.43727260056006 -1.83817776557656
 6 -4.64583107880788  2.04615712171217 -0.32292714161416
 6  9.93662484998500  0.48641944474447  0.04204302760276
 6 -3.35393055145515  2.45289404310431 -0.48392865356536
 6  8.66529631563156  0.91188752255226 -0.23796813681368
 6 -2.96237792289229  3.85482694219422 -0.47921765386539
 6 -2.23574048914891  1.53979582828283 -0.43719625432543
 6  7.53669321182118 -0.00751016301630 -0.21391057515752
 6  7.75699043554355 -1.43726067816782 -0.03331340844084
 6  6.32568391639164  0.59087601790179 -0.31080501650165
 6 -0.83966809830983  1.81083020672067 -0.33050122522252
 6  4.98115971877188  0.13079219531953 -0.26361499269927
 6  0.02321880088009  0.78756206610661 -0.24067317011701
 6  3.84901430913091  0.87833818421842 -0.26221369036904
 6  1.44004594539454  1.11694342204220 -0.27557993889389
 6  2.57723562406241  0.22866216591659 -0.27794443654365
 6  2.42675253695370 -1.24363854415442  0.02650124372437
 1 -13.07382918371837 -2.77236021382138 -1.09030425442544
 1 -13.89570479417942 -1.43649763396340 -1.54882133683368
 1 -13.72384018621862  0.18153522232223  2.00781346404640
 1 -13.71417081068107  0.54037916501650  0.31827949354936
 1 -14.90682798689869 -1.43773248664866  0.68260986528653
 1 -10.28881749864986 -2.59797658045805 -1.59798509390939
 1 -11.81352156105611 -2.31717650905090 -2.95116340254025
 1 -10.45106729022902 -0.98657786638664 -2.83082469496950
 1 -9.40200885568557  0.79045117611761 -1.29747355745575
 1 -9.94755608320832  0.16262752685269  2.34244998779878
 1 -11.43786914781478  0.19422612421242  3.14481283138314
 1 -10.90607130083008 -1.43652052855286  2.50789157885789
 1 -12.10904344684469  2.36373249524953  0.34555777177718
 1 -12.10008624802480  2.28063363886389  1.92103581538154
 1 -10.58142842494249  2.29976056655666  1.42304659815982
 1 -12.17318039053905 -2.67031990559056  1.21130560946095
 1 -9.16865770767077 -1.57803616131613  0.76924602350235
 1 -6.07053649974998 -2.06671999709971 -0.94530257465747
 1 -5.68590100540054 -1.78978421102110  0.95298369456946
 1 -6.90129023962396 -2.69613188618862  0.63631978277828
 1 -7.46422773387339  1.60074840394039 -0.21094077057706
 1 -4.67145379007901 -0.00595197679768 -0.22646642234223
 1  13.36699237633763 -1.07524921232123  2.52104704530453
 1  11.71890706770677 -2.09784916491649  1.98958495819582
 1  13.37547990489049 -2.95481714671467  0.70777770367037
 1  12.83578101660166 -2.26474295279528 -1.68441153585358
 1  11.56613662186219 -2.66758588248825 -0.63811915401540
 1  11.41066067426743  0.79314968166817  3.51688672737274
 1  10.27929490719072  1.44179974307431  2.37854537873787
 1  10.15435305650565 -0.32362067656766  2.60782702390239
 1  13.64621152305230  1.28300692489249  0.36423048784879
 1  12.54060667386739  2.24072351015101  1.52178688438844
 1  13.78497433453345  0.94911939103910  2.40733721532153
 1  12.92626344584458  0.04061745214521 -2.74879733163316
 1  12.20236730513051  1.54143623452345 -2.01736967186719
 1  13.74508534113411  0.51048710161016 -1.44970045544554
 1 -5.42813503740374  2.74244863166317 -0.47323873467347
 1  10.09044029462946 -0.10289894749475 -2.48671100690069
 1  14.80851369656966 -0.57458727312731  1.16317491679168
 1  8.55976782758276  2.08060038723872 -0.48838611581158
 1 -2.37643272747275  4.19596604630463  0.31937776747675
 1 -2.34177294159416  4.06017324212421 -1.27884099319932
 1 -3.92123850895090  4.60165834763476 -0.58031783328333
 1 -2.32476209630963  0.56316852885289 -0.49077203180318
 1  6.87062981288129 -1.94560412251225 -0.38704621992199
 1  8.58224343884388 -1.80356508130813 -0.61374214831483
 1  7.99826974857486 -1.68737106550655  0.93047680858086
 1  6.60546569366937  1.70368417381738 -0.80459247894790
 1 -0.40399175617562  2.82010605410541 -0.32698260976098
 1  5.05460144654465 -1.02279877657766 -0.32550986988699
 1 -0.19907883108311 -0.26829864276428 -0.28600598949895
 1  3.97181634953495  1.97397303350335 -0.36194841984198
 1  1.59502637783778  2.16643243514351 -0.31387408580858
 1  1.40800963576358 -1.91696830103010 -0.05342634703470
 1  3.17510883568357 -1.73401970347035 -0.73038080808081
 1  2.76938363476348 -1.26155038403840  1.10820410701070
=======
>>>>>>> 6a1b998aacd80a23911c140f266e48a14f2d523d

