%nproc=3
%Mem=2GB
# td=(NStates=1) CAM-B3LYP/6-31G(d,p) 

TD

0 1
<<<<<<< HEAD
 8 -11.66209287688769  0.18785943434343 -1.50862802640264
 8 -12.96569740554055 -2.50563887188719  1.35641132613261
 8  10.62399791969197 -1.07638752665267 -2.20796452275228
 8  14.46958032473247 -1.00047876937694 -0.10758524592459
 6 -10.92194036123612 -0.23008696339634 -0.34543396779678
 6 -11.64132042174217 -1.19055023492349 -1.34381322162216
 6 -11.67393943694369  0.30588727152715  1.02473212821282
 6 -12.99013421712171 -1.70406056395640 -1.03959559355936
 6 -13.17837629562956 -0.03586103370337  1.00986567446745
 6 -13.46616304980498 -1.52654419221922  0.41551031833183
 6 -10.76298188688869 -2.01248666616662 -2.27717003530353
 6 -9.45891533533353 -0.02424529072907 -0.35564252235224
 6 -11.04484046144614 -0.17221281728173  2.28219328642864
 6 -11.57351773207321  1.84750985408541  0.92505059675968
 6 -8.57869129082908 -0.80028807000700  0.13076181518152
 6 -7.13667165676568 -0.62981482758276  0.23800150045005
 6 -6.29121313621362 -1.82352104090409  0.66931916821682
 6 -6.54746040774077  0.64521535143514 -0.15455401060106
 6 -5.18865880748075  0.88178021472147 -0.11060539073907
 6  11.76947619451945 -0.04779474997500  1.36298582668267
 6  11.68205549564957 -0.67558371357136 -1.24175805550555
 6  12.57699492759276 -1.35037926762676  1.51417615101510
 6  13.37628231493149 -1.79039357275728  0.21337530193019
 6  12.43950888558856 -1.92968747774777 -0.91913587608761
 6  11.00628751665166 -0.08727397949795  0.10611779207921
 6  10.71388279317932  0.09730637263726  2.47828016821682
 6  12.75016813351335  1.19551277207721  1.34327737873787
 6  12.48769507570757  0.35720459375938 -1.94550849864986
 6 -4.68509500520052  2.22982548854885 -0.34286913581358
 6  9.76700788828883  0.33309411221122 -0.06830800750075
 6 -3.38291344974497  2.66061481518152 -0.44860512121212
 6  8.59710949694969  0.89611594539454 -0.23605794579458
 6 -3.07920960606061  4.11511297079708 -0.82895262736274
 6 -2.34671158625863  1.73391524022402 -0.33683621832183
 6  7.39118866136614  0.16540712871287 -0.10845002910291
 6  7.61265600210021 -1.32261921402140  0.16825674857486
 6  6.24617596559656  0.80408733903390 -0.28155209120912
 6 -0.93976810831083  2.07838696239624 -0.33464163926393
 6  4.96812841564156  0.21451056715672 -0.01400003120312
 6 -0.03075659665967  1.08504181408141 -0.11745084788479
 6  3.74886429412941  0.98203855425543 -0.08786625562556
 6  1.40241218201820  1.33361508920892 -0.09829221012101
 6  2.38032593309331  0.45714501420142  0.20516387428743
 6  2.31850171187119 -0.97603178347835  0.47075566916692
 1 -13.07856965776578 -2.76686966476648 -1.22810803480348
 1 -13.53349857355736 -1.16900088428843 -1.68339479417942
 1 -13.66595439763976 -0.07751068226823  2.07637031973197
 1 -13.77403679727973  0.60428555565557  0.30785845144514
 1 -14.55334263836384 -1.51693040644064  0.38859046334633
 1 -10.44005262216221 -2.98961574437444 -1.82886818221822
 1 -11.33862407130713 -2.21274606600660 -3.19093737993799
 1 -9.94835701920192 -1.40546975557556 -2.83327493999400
 1 -9.15542419721972  0.93470560156016 -0.82737654775478
 1 -10.12747407500750  0.27636890099010  2.34797053985398
 1 -11.75354071497150  0.25815251685169  3.21832018211821
 1 -10.97067776147615 -1.22656953345335  2.63397418711871
 1 -11.92204474697470  2.28232435443544 -0.10465724972497
 1 -12.24921116051605  2.13392896839684  1.74446815861586
 1 -10.65649593169317  2.11221181168117  1.25327962146215
 1 -11.89844291679168 -2.11889476307631  1.41430590949095
 1 -8.62982382428243 -1.70772913061306  0.65713481238124
 1 -5.73287273337334 -2.32996632173217 -0.08287633203320
 1 -5.54712712801280 -1.40905613821382  1.30479887608761
 1 -7.10417052765277 -2.54226649964997  1.36781293209321
 1 -7.27816912801280  1.51893022212221 -0.10454013051305
 1 -4.54979162386239  0.03437205560556  0.20818704300430
 1  13.29373505060506 -1.34049573697370  2.41574651525152
 1  11.92926810381038 -1.98089746974697  1.90635663536354
 1  13.60549290619062 -2.76684834983498  0.64769169506951
 1  12.99857729622962 -2.16954343284328 -1.75950904560456
 1  11.73773378157816 -2.55745486938694 -0.65782112421242
 1  11.25200480868087 -0.22304193749375  3.52572761146115
 1  10.38506548424842  1.14232979607961  2.47974549874987
 1  9.91337895909591 -0.65426374087409  2.36811305250525
 1  13.45601250315032  0.98001662586259  0.67347141194119
 1  12.12679529272927  2.09957939573957  1.27493219891989
 1  12.96741257835784  1.47994247334733  2.34424090569057
 1  12.74335515501550  0.00699408980898 -2.89527197909791
 1  12.05834290269027  1.35866795769577 -2.08405634053405
 1  13.39971080368037  0.70670672357236 -1.64779026442644
 1 -5.44609683358336  3.01086547334734 -0.88086949774978
 1  10.03535478607861 -0.24836349394940 -2.30680301610161
 1  15.04800764596460 -0.87889770417042  0.71477007630763
 1  8.72839469026903  2.03710603780378 -0.41025830303030
 1 -2.65696078027803  4.54875132483248  0.04928075777578
 1 -2.36186495079508  4.06716394119412 -1.60227333643364
 1 -4.14495088018802  4.57779596139614 -1.23437323882388
 1 -2.67063668376838  0.71394360636064  0.06418346374637
 1  6.81702445234523 -2.12269183128313 -0.08678619391939
 1  8.51555677017702 -1.81028575337534 -0.42434320842084
 1  7.68625854745475 -1.71367369576958  1.18427218811881
 1  6.33397854495450  1.85237904330433 -0.39790180988099
 1 -0.46155751275128  3.03575761926193 -0.51497140864086
 1  4.94368035443544 -0.86790328702870  0.23278595969597
 1 -0.50649957315732  0.02911109820982  0.09560217131713
 1  3.77546671457146  2.15201083728373 -0.28022024702470
 1  1.69843671887189  2.41793758565857 -0.09390208860886
 1  1.18926776157616 -1.45682228642864  0.30588958455846
 1  3.01395272007201 -1.66916321782178 -0.24201197119712
 1  2.41604830123012 -1.02028625762576  1.55986927352735
=======
>>>>>>> 6a1b998aacd80a23911c140f266e48a14f2d523d

