%nproc=3
%Mem=2GB
# td=(NStates=1) CAM-B3LYP/6-31G(d,p) 

TD

0 1
<<<<<<< HEAD
 8 -11.77263393099310  0.29081973037304 -1.51392855645565
 8 -12.92229306510651 -2.44754306230623  1.44404008900890
 8  10.68868438833883 -1.01731161906191 -2.08467219351935
 8  14.52430579727973 -0.91627034853485  0.01326683928393
 6 -11.07476564376438 -0.10687464216422 -0.28675810021002
 6 -11.78036432613261 -1.15755693559356 -1.19464830513051
 6 -11.85771781478148  0.31689837263726  0.99483913891389
 6 -13.13640884458446 -1.65687584548455 -0.84488612261226
 6 -13.30022848084809 -0.04255170277028  1.00444513241324
 6 -13.59449588308831 -1.38679021682168  0.61100986828683
 6 -11.04575016371637 -2.10235565306531 -2.18499081738174
 6 -9.61826126992699  0.02388952275228 -0.32006896499650
 6 -11.01009698709871 -0.07241283728373  2.19725479257926
 6 -11.74814519481948  1.91087619071907  1.00079817151715
 6 -8.60143356505650 -0.76051409260926 -0.01223248424842
 6 -7.19129711931193 -0.52468431453145 -0.01704400410041
 6 -6.33985800070007 -1.78295698449845  0.21706394269427
 6 -6.62381804350435  0.63570440034003 -0.07655621082108
 6 -5.22389233083308  0.88001003770377 -0.37803213341334
 6  11.85351459835984  0.13253328282828  1.36888641674167
 6  11.74926221632163 -0.61494764996500 -1.26820069976998
 6  12.53350057815782 -1.28431266096610  1.47312204560456
 6  13.40064475117512 -1.81440597399740  0.30974493889389
 6  12.50858579327933 -1.97256176517652 -0.96963092559256
 6  11.04850173807381  0.03318806670667  0.07826500680068
 6  10.91583298819882  0.27352399439944  2.45490783098310
 6  12.96075919261926  1.17979119991999  1.33274632563256
 6  12.63772007820782  0.43568244154415 -1.94158810661066
 6 -4.64624111981198  2.12995550155015 -0.39065391429143
 6  9.86953814131413  0.52597340014001 -0.02844402110211
 6 -3.28634379277928  2.51261001470147 -0.49991025172517
 6  8.62073185918592  0.92686902070207 -0.10169450945095
 6 -3.03203488858886  3.96294775427543 -0.57967769986999
 6 -2.29381629672967  1.53373522222222 -0.36480901560156
 6  7.38630817331733  0.11758234623462  0.02888370427043
 6  7.68634337083708 -1.35563251535154  0.23579350225022
 6  6.22304365236524  0.82866979727973 -0.01326526252625
 6 -0.92771690319032  1.82758188188819 -0.32423059815982
 6  5.04480608340834  0.21165028112811  0.07996936573657
 6  0.02474895389539  0.82209551945195 -0.18472757555756
 6  3.79665907360736  0.83963431383138  0.01376390739074
 6  1.45691763256326  1.14551627932793 -0.27668004890489
 6  2.51457935843584  0.31731103080308 -0.00361700380038
 6  2.23618348004800 -1.21388556885689  0.23806239983998
 1 -13.17166896769677 -2.70825380318032 -1.16069129312931
 1 -13.92934815851585 -1.21090507470747 -1.31499795449545
 1 -13.50726852905291  0.27048411721172  2.03181586428643
 1 -13.81963135673567  0.78819394649465  0.43315098069807
 1 -14.65673297739774 -1.72175088848885  0.73585518981898
 1 -10.77923654055405 -3.17332411521152 -1.88921421682168
 1 -11.35655586448645 -2.00388517991799 -3.29588787498750
 1 -10.09972215571557 -1.56529573817382 -2.32846445894589
 1 -9.37034568936894  1.02762489348935 -0.68769257935794
 1 -10.03125445304530  0.18766003010301  2.26720246304630
 1 -11.57555291619162  0.05602230383038  2.98309665976598
 1 -10.93387408110811 -1.03853072957296  2.46436722642264
 1 -12.29463200570057  2.24623074507451  0.14918813481348
 1 -12.25480171957196  2.18822439793979  1.94701841364136
 1 -10.80920120222022  2.09362995349535  1.17269156265627
 1 -12.08165123762376 -2.05794866846685  1.38479295819582
 1 -9.04739558145815 -1.53906226392639  0.46313541244124
 1 -5.62057150325032 -1.96233955905591 -0.62834087848785
 1 -5.69547196249625 -1.75706093869387  0.99995839203920
 1 -7.06368647924792 -2.60937321032103  0.26756290709071
 1 -7.38067937903790  1.68858718781878 -0.26787646414641
 1 -4.54582122682268 -0.05032641424142 -0.34532830853085
 1  13.17202287938794 -1.29985167256726  2.28847378797880
 1  11.77520269726973 -1.85973535353535  1.56407240694069
 1  13.87043940084008 -2.79073073807381  0.38617554345435
 1  13.31020845934593 -2.27467394589459 -1.82580567526753
 1  11.72055206340634 -2.72667179107911 -0.79484482658266
 1  11.69466907510751  0.20160052675268  3.31415645434543
 1  10.49216619431943  1.34761032413241  2.21414893909391
 1  10.30568819001900 -0.49481779627963  2.60101634283428
 1  13.79160606250625  0.79486811101110  0.56523058785879
 1  12.41180379357936  2.14833427122712  0.97810251595160
 1  13.42285812291229  1.42180665976598  2.32430891249125
 1  12.98463928342834 -0.07801441104110 -3.00252270417042
 1  12.13919098749875  1.37771986288629 -2.14982291719172
 1  13.53500433303330  0.65259131203120 -1.47946343174317
 1 -5.51455367926793  2.79466385318532 -0.15072648344834
 1  10.27030828142814 -0.12909156675668 -2.46001833763376
 1  15.14969781498150 -0.74347416181618  0.86758535783578
 1  8.51860371117112  2.13893622082208 -0.47936521372137
 1 -2.09820490469047  4.22486893659366  0.10004583428343
 1 -2.94196296059606  4.03640086488649 -1.82565567466747
 1 -3.95209159425943  4.55897407920792 -0.33427322882288
 1 -2.71476109620962  0.61561377337734  0.03502054745475
 1  6.75361811171117 -2.14785434753475  0.47743022772277
 1  8.40127534203420 -1.65668039283928 -0.67521829592959
 1  8.38193811541154 -1.43873620202020  1.11337509840984
 1  6.22243739083908  1.86544034943494 -0.21616363606361
 1 -0.67541889888989  2.79509355285529 -0.39806971847185
 1  4.73319930633063 -0.93152964966497  0.22206488758876
 1 -0.25480440364036 -0.16645845874587 -0.15003239213921
 1  3.77560672857286  1.96711234743474 -0.05619784478448
 1  1.76538341354135  2.25032082398240 -0.79854255265527
 1  1.06863569836984 -1.26579318351835  0.28607760336034
 1  2.85100642544254 -1.72741904340434 -0.58453622362236
 1  2.61967866426643 -1.46164039303930  1.21808509510951
=======
>>>>>>> 6a1b998aacd80a23911c140f266e48a14f2d523d

