%nproc=3
%Mem=2GB
# td=(NStates=1) CAM-B3LYP/6-31G(d,p) 

TD

0 1
<<<<<<< HEAD
 8 -11.83464013161316  0.36424707310731 -1.42061922552255
 8 -12.89179001480148 -2.67662597059706  1.37233291829183
 8  10.47662318221822 -1.13571345924592 -2.03111683798380
 8  14.39971333803380 -1.09418814031403 -0.03935842324232
 6 -11.06725489268927 -0.14349830453045 -0.28973839823982
 6 -11.67274356405640 -1.06180736063606 -1.26420526082608
 6 -11.72818486148615  0.24691137393739  1.07148680368037
 6 -12.88890409410941 -1.73213337123712 -0.88074970897090
 6 -13.22933139113911 -0.26161360896090  1.06826151405141
 6 -13.50081651515151 -1.63448498629863  0.50368913621362
 6 -10.85690127882788 -1.71169658715872 -2.39654197249725
 6 -9.56081552535253  0.18322545634563 -0.37407436553655
 6 -11.02308828622862 -0.30401599759976  2.38944401150115
 6 -11.72877325762576  1.82115721882188  1.20019811151115
 6 -8.67187060876088 -0.76556459765977 -0.07370863186319
 6 -7.14907289688969 -0.53513535963596  0.02688038833883
 6 -6.26963097799780 -1.67527621642164  0.54575681198120
 6 -6.58564422612261  0.67310814071407 -0.30559911511151
 6 -5.16274621622162  1.01472350905091 -0.32271660186019
 6  11.87338658555856  0.08846887638764  1.25227475557556
 6  11.58941623172317 -0.70473662886289 -1.29298317801780
 6  12.51627885598560 -1.29231346104610  1.55537027042704
 6  13.28690337703770 -1.85219975337534  0.34818878327833
 6  12.27250218491849 -1.97055156415642 -0.78709267176718
 6  11.13125001290129  0.05707045494549 -0.01107392709271
 6  10.99383078797880  0.31060770277028  2.44694703490349
 6  12.97046016271627  1.16520974177418  1.20223327432743
 6  12.50801710791079  0.16707558085809 -2.06014996279628
 6 -4.69066556225623  2.28906141214121 -0.51043589248925
 6  9.91376256375638  0.53772457525753 -0.05085626232623
 6 -3.34049920832083  2.62411116481648 -0.61239149984999
 6  8.58935872187219  1.05794212801280 -0.11696603660366
 6 -2.96658834393439  4.06568802830283 -0.80379011111111
 6 -2.30398731383138  1.63597544624462 -0.31634416911691
 6  7.40240978347835  0.19121970997100  0.02705352125213
 6  7.59571430793079 -1.17437438953895  0.31153107600760
 6  6.24292564056406  0.93495042534253 -0.07472140814081
 6 -0.93675780728073  1.78655777947795 -0.41776995209521
 6  5.02335393819382  0.20187930403040  0.16251762056206
 6  0.03659013801380  0.88532184208421 -0.14094319711971
 6  3.78343775147515  0.90627097749775  0.05870840184018
 6  1.37947988878888  1.15872760046005 -0.15545792669267
 6  2.51209911041104  0.35920522022202  0.12872623052305
 6  2.36669653135314 -1.13790797109711  0.25690428402840
 1 -12.78776057685769 -2.90376335413541 -1.26739196319632
 1 -13.57254247794779 -1.42341632583258 -1.68291474617462
 1 -13.90247805000500 -0.18085101630163  2.01937462016202
 1 -13.86659605320532  0.27950307740774  0.43261092669267
 1 -14.49986729082908 -1.75643435683568  0.62734433873387
 1 -10.47624624152415 -2.67710449324933 -1.93632892829283
 1 -11.44684489338934 -1.86115090649065 -3.13353163936394
 1 -9.97947013051305 -0.95684489308931 -2.70781239373937
 1 -9.51723037783778  1.27070920192019 -0.65764957505751
 1 -9.96409773737374  0.12109337343734  2.62375811861186
 1 -11.74411977287729 -0.04118741714171  3.11074942504250
 1 -10.91450214391439 -1.49806668316832  2.43650444014401
 1 -12.30689323182318  2.27587370937094  0.21107432343234
 1 -12.39387562696270  2.06573214871487  2.00174388618862
 1 -10.71610189228923  2.28888947944795  1.56641093459346
 1 -11.84649772227223 -2.78291116471647  1.26458093699370
 1 -9.07577841974197 -1.72877123482348  0.39992909180918
 1 -5.41365081118112 -1.97421074617462 -0.28663670807081
 1 -5.72047446274627 -1.51818705130513  1.50801919811981
 1 -6.84993510411041 -2.68950122312231  0.35284143494349
 1 -7.22141345244524  1.57751608070807 -0.45855553205321
 1 -4.57756440114011  0.02749136753675 -0.38012178787879
 1  13.17447312441244 -1.18820050745075  2.43237817841784
 1  11.89214439143914 -2.01254063406341  2.07083308300830
 1  13.70977333423342 -2.80156182118212  0.75729265516552
 1  12.69706714521452 -2.29014549304930 -1.66124921962196
 1  11.51124113231323 -2.65749487338734 -0.33316865896590
 1  11.69549915811581  0.51515188188819  3.36621165986599
 1  10.30030700840084  1.14037960106011  2.36265378957896
 1  10.45416303750375 -0.66483479797980  2.53793003420342
 1  13.60383728562856  1.06864548874888  0.15370943574357
 1  12.53372598579858  2.13365280308031  1.50259496519652
 1  13.68244408150815  1.08909338843884  2.14317079867987
 1  12.68061888138814 -0.37490410001000 -2.95224767666767
 1  12.01580864926493  1.11623371427143 -2.27784571947195
 1  13.33720455305530  0.47290334323432 -1.65452093749375
 1 -5.40035225912591  3.08247263406341 -0.54157556835684
 1  9.92991424202420 -0.32368102570257 -2.22390472627263
 1  14.89613245844584 -0.74977479187919  0.83029162846285
 1  8.62880473127313  2.02856518371837 -0.38748602580258
 1 -2.27759284348435  4.34879132883288 -0.24401857215722
 1 -2.52805156945695  4.36779400420042 -1.74180728982898
 1 -3.80727711281128  4.66905508730873 -0.66192599409941
 1 -2.49862948304831  0.54562677467747 -0.04439739433943
 1  6.72551530143014 -1.96998656075608  0.19760224492449
 1  8.43781899639964 -1.61387611241124 -0.20093086718672
 1  7.76301622322232 -1.22300462886289  1.32527628852885
 1  6.01548669576958  1.82986679207921 -0.51471349104910
 1 -0.56088744574458  2.68965300880088 -0.91661157265727
 1  4.96060204660466 -0.81101759845985  0.28640132123212
 1 -0.31398032123212 -0.23905571847185 -0.10642803170317
 1  3.90045921382138  1.98492412861286 -0.16529875487549
 1  1.53506038123812  2.28488428032803 -0.30864356275628
 1  1.36032486728673 -1.35059166336634  0.15431442704270
 1  2.84648597339734 -1.74740104160416 -0.63410118011801
 1  2.68669536593659 -1.64932916191619  1.24150743734373
=======
>>>>>>> 6a1b998aacd80a23911c140f266e48a14f2d523d

