%nproc=3
%Mem=2GB
# td=(NStates=1) CAM-B3LYP/6-31G(d,p) 

TD

0 1
<<<<<<< HEAD
 8 -11.60399706730673  0.30108075647565 -1.55576273987399
 8 -13.33997483328333 -2.51444975297530  1.39424510951095
 8  10.54860037993799 -0.82997288518852 -2.06578030433043
 8  14.42245561226123 -1.27825654715472 -0.28388287568757
 6 -10.97995616281628 -0.11849580428043 -0.33579300370037
 6 -11.68185447514751 -1.10655183508351 -1.18365720602060
 6 -11.81273331633163  0.35678236103610  0.91683133813381
 6 -12.98126333003300 -1.79819997789779 -0.90497213121312
 6 -13.34932339033903  0.07006955935594  0.76081076897690
 6 -13.66217265076508 -1.47216875467547  0.38925769306931
 6 -10.70448603730373 -2.00587600510051 -2.10730304860486
 6 -9.56334577837784  0.12142927672767 -0.39516647474747
 6 -11.14985096249625 -0.16348194419442  2.16737180428043
 6 -11.72978335863586  1.90113521662166  0.96401449314932
 6 -8.69962338403840 -0.69679772097210  0.16614535353535
 6 -7.19063705330533 -0.61632347844784  0.26405410571057
 6 -6.52930694559456 -1.88196688548855  0.60973320962096
 6 -6.48322398409841  0.55020585048505 -0.09387794299430
 6 -5.09990993259326  0.82555459215922 -0.16098042824282
 6  12.00826007290729  0.09078910841084  1.36643617171717
 6  11.60392768286829 -0.52147830303030 -1.27082096179618
 6  12.78551577967797 -1.28978320802080  1.38887362076208
 6  13.30715540224022 -1.89984451785178  0.10441440584058
 6  12.34720965566557 -1.82371688068807 -1.07132109460946
 6  11.17273416131613  0.11979672757276  0.02302948324832
 6  11.17477888278828  0.21173781578158  2.57420976117612
 6  13.11025414211421  1.17835105590559  1.28407145814581
 6  12.53002930913091  0.53583245654565 -1.94604855265527
 6 -4.71656815251525  2.06788929492949 -0.45910075897590
 6  9.94681586908691  0.60681148394839  0.12710153345335
 6 -3.41954711311131  2.52575132883288 -0.49106936763676
 6  8.69126891289129  0.93498983278328 -0.01838617861786
 6 -3.14178586368637  3.91942340184018 -0.89624935703570
 6 -2.27697461256126  1.63161501020102 -0.22227476217622
 6  7.48836837933793  0.04022461046105  0.09730054595460
 6  7.72978771527153 -1.36614356645665  0.33697362026203
 6  6.25093644164416  0.61870880118012  0.00088615261526
 6 -0.97727185868587  1.95628475217522 -0.30648882398240
 6  4.90508211101110  0.10167928402840  0.12519388818882
 6  0.01513799279928  0.94141745164516 -0.13365246804680
 6  3.79966937463746  0.91316166656666 -0.06843431243124
 6  1.36787872867287  1.26817854555456 -0.22728510941094
 6  2.44194209470947  0.36391569126913 -0.01302794489449
 6  2.29258912061206 -1.09787396769677  0.51191978557856
 1 -12.71381318211821 -2.93671664946495 -1.30654587858786
 1 -13.53878910261026 -1.48796278047805 -1.90129658435844
 1 -13.84404220642064  0.20202727152715  1.69692237493749
 1 -13.52749214281428  0.53162828992899 -0.06355869026903
 1 -14.63988129222922 -1.58443715711571  0.49885148944894
 1 -10.47753637053705 -2.90959774257426 -1.44504980038004
 1 -11.23939414831483 -2.12827761916192 -3.01246953315332
 1 -9.72469465296530 -1.45636484508451 -2.48111972447245
 1 -9.29637829262926  1.20462259325933 -0.57369117921792
 1 -10.25525685328533  0.54753601770177  2.41955769856986
 1 -11.82093745464546 -0.28938223662366  2.83426177627763
 1 -10.73677437113711 -1.31729860636064  2.02477326702670
 1 -12.09645218771877  2.26262238423842  0.10804402040204
 1 -12.31790803020302  2.40446602210221  1.65137884968497
 1 -10.83358364046405  2.24041463196320  0.99457375087509
 1 -12.28439151165116 -2.40110298389839  1.50438491739174
 1 -9.23694453635363 -1.63055141284128  0.60826992589259
 1 -5.76263570967097 -2.05500882598260 -0.19974801920192
 1 -5.70036245154515 -1.84194942754275  1.43266166236624
 1 -7.33002311291129 -2.58954122712271  0.72009816061606
 1 -6.97551886298630  1.42514084318432 -0.49762943944394
 1 -4.46068271297130  0.01340995939594  0.19582580688069
 1  13.84460013711371 -1.35933762116212  2.03946888748875
 1  11.95602077907791 -1.91554093409341  1.90608660836084
 1  13.54608696559656 -3.00728239323932  0.38005493139314
 1  12.74865230373037 -2.18984546304630 -1.91640473517352
 1  11.34839484768477 -2.35287441134113 -0.70008535063506
 1  11.79783939213922  0.34740510721072  3.39254429312931
 1  10.72017899559956  1.28349391249125  2.57665518971897
 1  10.23029065026503 -0.56463477797780  2.76730297149715
 1  13.83012991489149  0.89642826702670  0.29346341114111
 1  12.55976859005901  2.06822626042604  1.19074378007801
 1  13.86111194829483  1.20734521362136  2.16751323292329
 1  12.65289610911091  0.33720711111111 -3.03843629552955
 1  11.87463453185319  1.36569866076608 -1.97648558345835
 1  13.35825665826582  0.81990804370437 -1.41719720512051
 1 -5.58609083298330  2.87749213601360 -0.82039345014501
 1  9.98578982958296 -0.01720037763776 -2.35912824862486
 1  15.05112795799580 -1.23932374677468  0.48021662096210
 1  8.59783163396340  2.11476380358036 -0.18300557775778
 1 -2.69295437963796  4.63169961966197 -0.04371854215422
 1 -2.07117588188819  3.95986321112111 -1.49301241034103
 1 -4.06761314641464  4.57369555135513 -1.53023282478248
 1 -2.53287290739074  0.62916512851285 -0.04416737133713
 1  6.66000875077508 -1.95747530963096  0.48730121482148
 1  8.09779499399940 -1.82038676347635 -0.52379315341534
 1  8.36346626822682 -1.46593892229223  1.21771553245324
 1  6.19910505760576  1.77921172657266 -0.14989700940094
 1 -0.79752110911091  2.98625266876688 -0.70947085858586
 1  5.02080806720672 -1.02293879057906  0.36413909500950
 1 -0.04322324552455 -0.17629944284428  0.34545715681568
 1  3.92089125702570  1.81037667386739 -0.72490471547155
 1  1.63484035923592  2.15261105300530 -0.36703940234023
 1  1.28035687048705 -1.60700730493049  0.46301529712971
 1  2.90773209800980 -1.62739904140414 -0.22215998599860
 1  2.74044074047405 -1.28437266626663  1.52584587118712
=======
>>>>>>> 6a1b998aacd80a23911c140f266e48a14f2d523d

