%nproc=3
%Mem=2GB
# td=(NStates=1) CAM-B3LYP/6-31G(d,p) 

TD

0 1
<<<<<<< HEAD
 8 -11.89016568416842  0.41663231163116 -1.33549071267127
 8 -13.05623645944594 -2.50920922892289  1.34621030603060
 8  10.53017853775378 -1.04537442534253 -1.97191091739174
 8  14.53106647334734 -1.11574029552955 -0.05344983238324
 6 -11.02699086628663 -0.10761471617162 -0.27860728512851
 6 -11.69181547124712 -1.04395557545755 -1.23700254055406
 6 -11.73574561756176  0.28389507230723  1.09907956295630
 6 -13.10232543624362 -1.70056021392139 -0.90715234923492
 6 -13.24251270927093 -0.07542499009901  0.97681236913691
 6 -13.59728616211621 -1.45587712551255  0.45542430973097
 6 -10.89508509720972 -1.76904232173217 -2.27015933423342
 6 -9.58871831563156  0.06662379617962 -0.32029898799880
 6 -11.10779675707571 -0.34150974697470  2.33372843994399
 6 -11.63566394669467  1.75796089918992  1.15746383808381
 6 -8.70029345104510 -0.71232927412741 -0.03468472947295
 6 -7.22832082168217 -0.55797764386439  0.07681538183818
 6 -6.40666468136814 -1.71415010381038  0.65360759705971
 6 -6.55366102780278  0.57628845874587 -0.22238079327933
 6 -5.17659760136014  0.79180121682168 -0.24571890209021
 6  11.94942418931893  0.04072410191019  1.41044057215722
 6  11.59423671377138 -0.57914406960696 -1.19416329602960
 6  12.72566979507951 -1.27804203390339  1.61292602600260
 6  13.33775846254625 -1.85945047844784  0.25350931533153
 6  12.39671460616062 -1.94491900090009 -0.90226418891889
 6  11.12910979887989  0.08612336023602  0.13821100140014
 6  11.18321972687269  0.27876451845185  2.61678401860186
 6  12.97787090379038  1.21342456325633  1.25552860386039
 6  12.42869917611761  0.53885275857586 -2.03554750255025
 6 -4.71925842154215  2.11082358835884 -0.50542539143914
 6  9.90897208470847  0.55691649444945  0.00591941524152
 6 -3.39755491389139  2.47925667936794 -0.60869112981298
 6  8.70156994299430  1.00854718851885 -0.23365770577058
 6 -3.03193487858786  3.93317477697770 -0.89391912401240
 6 -2.29386630173017  1.56672852155216 -0.34815735043504
 6  7.51955149764976  0.23366395439544  0.09999081498150
 6  7.75729046554655 -1.25872282438244  0.31722164506451
 6  6.26277762576258  0.83133006330633  0.00673673767377
 6 -0.98413254475448  1.87187631133113 -0.43449162426243
 6  4.98773037583758  0.14766388248825  0.10387175597560
 6  0.04565104410441  0.89821313121312 -0.24169327212721
 6  3.81892129982998  0.86919727012701 -0.05953342234223
 6  1.41086302710271  1.15320704840484 -0.28561094199420
 6  2.46956485698570  0.22361166086609 -0.18395503760376
 6  2.19726958865887 -1.21901608190819  0.11773036663666
 1 -13.13021482228223 -2.72444542234223 -1.02913813781378
 1 -13.74656988068807 -1.26350033423342 -1.70018647334734
 1 -13.61674947714772  0.09105617441744  1.97859054175418
 1 -13.72790218381838  0.70601572867287  0.48559622522252
 1 -14.70429773387339 -1.56611532493249  0.40346195049505
 1 -10.62912152905290 -2.67222400520052 -2.08498379377938
 1 -11.46655686458646 -1.85106989838984 -3.21891017721772
 1 -10.09975215871587 -1.10161937053705 -2.74191580408041
 1 -9.44733338813881  1.09172130313031 -0.79448325842584
 1 -10.08349967756776 -0.10561929782978  2.32842858565857
 1 -11.67144250515051 -0.00105340374037  3.02238058815882
 1 -11.12409310301030 -1.39674655115512  2.49596038573857
 1 -12.12649519201920  1.96103222522252  0.41168438443844
 1 -12.12505874527453  2.22805838133813  1.93312702450245
 1 -10.56158644074407  2.11565215571557  1.21677597109711
 1 -12.03806687918792 -2.51266414001400  1.23283776267627
 1 -9.01727256915692 -1.77289564726473  0.40026912581258
 1 -5.69238868496850 -2.03150647574757 -0.15110315471547
 1 -5.86561897719772 -1.41714694729473  1.47994639083908
 1 -7.06501661226123 -2.56991926492649  0.81299745054506
 1 -6.99130044114411  1.53671200030003 -0.50760043654365
 1 -4.67146379107911 -0.02809419101910  0.27146337063706
 1  13.48829450655066 -1.27843953135314  2.15289022962296
 1  12.00925610261026 -2.07103648364837  1.73385938563856
 1  13.49439179607961 -3.07460912591259  0.41272819871987
 1  13.12111955045505 -2.48490496899690 -1.74929802450245
 1  11.64901490969097 -2.54765388928893 -0.61459680178018
 1  11.79849945814582  0.21017138383838  3.46281131983198
 1  10.54212118981898  1.15909147224722  2.39280680488049
 1  10.43630125132513 -0.45608392289229  2.72331857305731
 1  13.58421532343234  1.07923654785479  0.37314137893789
 1  12.44935754895489  2.27228666646665  1.09465417111711
 1  13.50404624172417  1.18865334443444  2.13762024362436
 1  12.75741656115612  0.31389477987799 -3.08654110601060
 1  11.83436050445044  1.53930602150215 -2.13350128502850
 1  13.42881371397140  0.57631368426843 -1.39295478087809
 1 -5.58355057895790  2.72781716851685 -0.79548095889589
 1  9.80884213481348 -0.25537419501950 -1.91355369116912
 1  15.04093693889389 -1.20872068646865  0.74498309760976
 1  8.40206205700570  1.96101842904290 -0.47344462166217
 1 -2.27354243844384  4.28671512121212 -0.24031820212021
 1 -2.84481324562456  4.13753097789779 -1.97998110721072
 1 -3.94583096819682  4.42238041984198 -0.70616041754175
 1 -2.52971259135914  0.43368558055806 -0.36027898249825
 1  6.83503625352535 -1.88027758985899  0.27468995369537
 1  8.54889010351035 -1.51591631643164 -0.33209398349835
 1  7.97685760736074 -1.37103943234323  1.26027978887889
 1  6.37866301340134  1.86750055545555 -0.23682570227023
 1 -0.66443780078008  2.95213925742574 -0.53674358585859
 1  4.78099408580858 -0.87630412711271  0.32065474657466
 1 -0.26612553575357 -0.01338315121512 -0.05702309120912
 1  3.82034120202020  1.92762839903990  0.00446822182218
 1  1.77697457265727  2.12562835473547 -0.46407910631063
 1  1.24300313511351 -1.23916052025203  0.54595359095910
 1  2.39342066686669 -1.80975727722772 -0.95156292629263
 1  2.92618931533153 -1.71078530753075  1.01288457505751
=======
>>>>>>> 6a1b998aacd80a23911c140f266e48a14f2d523d

