%nproc=3
%Mem=2GB
# td=(NStates=1) CAM-B3LYP/6-31G(d,p) 

TD

0 1
<<<<<<< HEAD
 8 -11.71566823442344  0.36985763416342 -1.42432959655966
 8 -12.98011884768477 -2.45773408140814  1.37880356535654
 8  10.61531705160516 -0.98287817571757 -2.07391111741174
 8  14.58875224192419 -1.14408312981298 -0.04418890629063
 6 -11.04539270647065 -0.12958691339134 -0.20885030943094
 6 -11.80903719341934 -1.02552373227323 -1.13679251955196
 6 -11.65900794379438  0.41838852165217  1.07889754475448
 6 -13.19749495319532 -1.60905106300630 -0.97672930693069
 6 -13.20092855085509 -0.06212365996600  1.08649333723372
 6 -13.52746918041804 -1.45450698849885  0.54457322462246
 6 -10.97369295799580 -1.91089650715071 -2.25970828912891
 6 -9.50291973577358  0.06292342614261 -0.29924688278828
 6 -10.98347432483248 -0.20678627462746  2.26895196229623
 6 -11.58585896619662  1.90554565766577  0.94624271597160
 6 -8.62516593829383 -0.79498753995400  0.12243098209821
 6 -7.22718070767077 -0.68953079917992  0.02599029932993
 6 -6.56471048594859 -1.95542423122312  0.28523075937594
 6 -6.60418608030803  0.52566339623962 -0.10215877107711
 6 -5.25317525912591  0.75458749544954 -0.08216254645465
 6  11.84692393929393  0.10308033753375  1.44495402350235
 6  11.69115640574057 -0.63298945414541 -1.15330921062106
 6  12.59340656875688 -1.23201743144314  1.60151488488849
 6  13.28628331503150 -1.80153468686869  0.39865382978298
 6  12.41832676737674 -1.92901741074107 -0.84241820432043
 6  11.07187407530753  0.08735348324832  0.06450363066307
 6  10.82057346224622  0.27166380838084  2.60568290849085
 6  12.82693581028103  1.27591081188119  1.45904895589559
 6  12.54924123032303  0.39988886218622 -1.98551249904990
 6 -4.74879137483748  2.08125063106311 -0.35336018491849
 6  9.89974116161616  0.53956475927593 -0.10608178487849
 6 -3.38788394679468  2.43941269496950 -0.43653391409141
 6  8.71046083208321  1.11143747754775 -0.18134247424742
 6 -3.05921760686069  3.91863332283228 -0.50654038613861
 6 -2.28044495959596  1.53185503420342 -0.32856539123912
 6  7.50836037853785  0.18547913591359 -0.01716090019002
 6  7.67730246674668 -1.21745869796980  0.16773669656966
 6  6.28747009500950  0.87441437173717 -0.10951488748875
 6 -0.91423555505551  1.81566068976898 -0.47031520662066
 6  4.95521712451245  0.25930504660466 -0.08788741994199
 6  0.01934841384138  0.85269857975798 -0.39711881468147
 6  3.80818022572257  0.76261661206121 -0.33939140814081
 6  1.50589253005301  1.16615834353435 -0.40884326522652
 6  2.46034393489349  0.29952925262526 -0.22628927102710
 6  2.38668853055306 -1.08766294659466  0.25523411701170
 1 -13.19025082588259 -2.75551852965296 -1.10280550455045
 1 -13.84135935963596 -1.20628461266127 -1.73138959365937
 1 -13.48292609480948  0.12617968676868  2.11661434413441
 1 -13.71024041764176  0.73705883298330  0.52869053465347
 1 -14.51708901300130 -1.58417713111311  0.72172377667767
 1 -10.90802941984198 -2.88483526632663 -1.83605890129013
 1 -11.68278848774878 -1.84211900330033 -3.19243752995300
 1 -10.20260244374438 -1.41520072867287 -2.58960057255726
 1 -9.03585224002400  0.87800993199320 -0.77338114821482
 1 -9.97225855345535  0.10380164426443  2.15564130693069
 1 -11.34965032593259  0.37432413401340  3.22248059815982
 1 -11.29581027472747 -1.27414429092909  2.32554334403440
 1 -11.96449899239924  2.32658878087809  0.07704092009201
 1 -12.30998723812381  2.36490206570657  1.68543225502550
 1 -10.55739602170217  2.39262985348535  0.90095438893889
 1 -12.00141321382138 -2.47562043564356  0.93970844974497
 1 -9.00573141504150 -1.75621397909791  0.39236833573357
 1 -5.76966641274127 -2.23664698979898 -0.43998204260426
 1 -5.94773718901890 -1.62487772037204  1.14461285748575
 1 -7.12874298489849 -2.76651892489249  0.53382953375338
 1 -7.32395370647065  1.31667999709971 -0.19146882338234
 1 -4.68436508120812 -0.15422680428043  0.10073629792979
 1  13.18429410651065 -0.93496518391839  2.41721666226623
 1  11.90470564756476 -1.92983236323632  1.83880988068807
 1  13.46090844774477 -2.68364002900290  0.61043796969697
 1  12.93622106060606 -2.59736621512151 -1.51759485418542
 1  11.75214522272227 -2.70450957485748 -0.55681102320232
 1  11.39492910111011  0.25791615831583  3.53120815951595
 1  10.31196817451745  1.17208277137714  2.46953447764776
 1  10.08388600980098 -0.61667998249825  2.56421266246625
 1  13.65472237413741  1.02383100730073  0.79193325812581
 1  12.34427704090409  2.23199263706371  1.04215892159216
 1  13.35546138323832  1.26161064016402  2.51083756535654
 1  12.88047886738674  0.04764815521552 -2.98429088098810
 1  11.91837890629063  1.07973006390639 -2.14742267716772
 1  13.42674350695069  0.56376242914291 -1.39686517191719
 1 -5.36626885078508  2.75019940674068 -0.67554896569657
 1  9.95567681828183 -0.17542620022002 -2.29025136093609
 1  15.04067691289129 -1.15360517491749  0.79802840214021
 1  8.59484133493349  1.98898122532253 -0.62196947414742
 1 -2.54632971717172  4.35900234993499  0.58415424512451
 1 -2.37032579687969  4.11228845364536 -1.33556666576658
 1 -3.90849723482348  4.35388357015701 -0.78645844734473
 1 -2.69489911001100  0.51060327232723 -0.08223117771777
 1  6.85586833673367 -1.81268083018302 -0.26029354465447
 1  8.51135635013501 -1.61253597839784 -0.47774854895490
 1  7.99983990559056 -1.58889121752175  1.28107186808681
 1  6.32939808690869  1.76076988238824 -0.47739975967597
 1 -0.55125648264826  2.80644468796880 -0.45482539403940
 1  5.05678166456646 -0.85760225692569  0.37674035513551
 1 -0.13527245044505 -0.23526533943394 -0.35155254415442
 1  4.00092926082608  1.76872250845084 -0.67703992899290
 1  1.74459133433343  2.22683847574757 -0.65436813521352
 1  1.40268910371037 -1.54772137633763  0.27718671427143
 1  2.94846617141714 -1.89020532203220 -0.32703047304731
 1  2.55148184458446 -1.13193742274227  1.45047833443344
=======
>>>>>>> 6a1b998aacd80a23911c140f266e48a14f2d523d

