%nproc=3
%Mem=2GB
# td=(NStates=1) CAM-B3LYP/6-31G(d,p) 

TD

0 1
 8 -11.51183785138514  0.05163581198120 -1.70076724032403
 8 -13.03789462526253 -2.15364367236724  1.55716140114011
 8  10.74381990189019 -0.99101898979898 -2.20752447874787
 8  14.48870223692369 -1.02833155465547 -0.15371985938594
 6 -11.04176234343434 -0.32334628932893 -0.32414183858386
 6 -11.68385467516752 -1.27161834173417 -1.24082292259226
 6 -11.77997004000400  0.49658634143414  0.87210686568657
 6 -13.02756796049605 -1.79215937383738 -0.97130876487649
 6 -13.32240069806981  0.15064761716172  0.81430611851185
 6 -13.53595002850285 -1.34638617641764  0.41905067236724
 6 -10.78125371407141 -2.30024544204420 -2.08147046534653
 6 -9.63599304310431 -0.11564443064306 -0.39846680478048
 6 -11.24743072047205  0.10756516051605  2.19578464556456
 6 -11.63341372167217  1.99352445554555  0.61925001670167
 6 -8.59453287498750 -0.82376041724172  0.06273501250125
 6 -7.15831382098210 -0.69798164426443  0.15270297059706
 6 -6.30260427532753 -1.92538122692269  0.34121635793579
 6 -6.63943960566057  0.56942777267727 -0.01550010521052
 6 -5.26310625222522  0.89372140884088 -0.02546687688769
 6  11.88162740964096  0.00134016351635  1.28699822792279
 6  11.68987627772777 -0.60911706690669 -1.24853873357336
 6  12.70900812891289 -1.33703793349335  1.43625835923592
 6  13.45181986868687 -1.80515504890489  0.20338430283028
 6  12.55111004570457 -1.82102661166117 -1.07862182468247
 6  11.04570145804580 -0.04308956105611  0.04412159245925
 6  10.95263666856686  0.14613125512551  2.56036837703770
 6  12.82339545624562  1.24078729952995  1.44290734173417
 6  12.58367467366737  0.52240111341134 -2.03947789558956
 6 -4.69174567026703  2.13528603460346 -0.12973782268227
 6  9.85804699219922  0.46614741754175 -0.01486266296630
 6 -3.37369252765277  2.48558731243124 -0.25842610331033
 6  8.62526231223122  0.89263559735974 -0.07080142014201
 6 -3.08453013811381  3.99341080058006 -0.52186191829183
 6 -2.29895681078108  1.62819466816682 -0.21612414711471
 6  7.38396793929393  0.15575616361636 -0.05026421052105
 6  7.50234497099710 -1.42094904700470  0.16061598449845
 6  6.19674102210221  0.76440337063706 -0.25406934293429
 6 -0.94489862136214  1.95517464116412 -0.19245742084208
 6  4.87778938173817  0.15067418351835 -0.09278790999100
 6  0.00137661666167  0.98249155905591 -0.03542264506451
 6  3.74491389908991  0.95321567196720  0.03631616261626
 6  1.39150109090909  1.25782751045105 -0.16928930983098
 6  2.37935583608361  0.39206850655066  0.11271462936294
 6  2.32242210391039 -1.06042022232223  0.35541413501350
 1 -12.96473827462746 -2.77687066486649 -0.96651187518752
 1 -13.78751397509751 -1.31770575477548 -1.60763721842184
 1 -13.74898270047005  0.72361943074307  1.66580926362636
 1 -13.77884727832783  0.86762188928893  0.03746141174117
 1 -14.62916022012201 -1.45444415781578  0.49552115641564
 1 -10.42552116901690 -3.12196897969797 -1.29648494389439
 1 -11.41042125102510 -2.69993478487849 -2.82049033523352
 1 -9.97076926042604 -1.68054726332633 -2.48977058955896
 1 -9.23746240104010  0.89002113311331 -0.79963377347735
 1 -10.14019534713471  0.36400766486649  2.18544428722872
 1 -11.73151851275128  0.57101380298030  3.07252560266027
 1 -11.22804349804981 -0.95143201970197  2.49219000870087
 1 -12.03329587208721  2.53620974297430 -0.20830761476148
 1 -12.17125336473647  2.58817439293929  1.41724543634363
 1 -10.64299458155816  2.26472706320632  0.97791208470847
 1 -12.11398447094709 -2.42373524712471  1.36249072797280
 1 -9.10326116801680 -1.78397675537554  0.52697179607961
 1 -5.66684613071307 -1.99870319541954 -0.64493253765377
 1 -5.63312572787279 -1.64312954555456  1.10907930413041
 1 -6.97326743734373 -2.77226949994999  0.46441259205921
 1 -7.37625893699370  1.37211554065407 -0.04900457695770
 1 -4.58973561826183  0.02989160756076 -0.17959173487349
 1  13.44368004510451 -1.25232692009201  2.26370131073107
 1  12.16971214821482 -2.03935331533153  1.83278927862786
 1  13.67911026792679 -2.80814247924792  0.33912083798380
 1  13.27502494099410 -2.04397087558756 -2.00449354405441
 1  11.82156216441644 -2.69283840774077 -0.96684202630263
 1  11.37743735193519  0.20982134883488  3.49302434113411
 1  10.40570754845484  1.06700226332633  2.54475199939994
 1  10.14125174637464 -0.61822013651365  2.44080032123212
 1  13.73126002790279  1.21394001820182  0.66430049484948
 1  12.26193880708071  2.10612004980498  1.12859756545655
 1  13.22823866096610  1.30778525762576  2.38938542014201
 1  12.73651447094709  0.29630302070207 -2.92405485738574
 1  12.07586465486549  1.55607769866987 -2.03972190709071
 1  13.61298213081308  0.76915296819682 -1.59291477687769
 1 -5.44043626752675  3.04520890769077 -0.32263367416742
 1  9.90801205180518 -0.29376803440344 -2.07613994979498
 1  15.21278412361236 -0.88466828122812  0.41902050135014
 1  8.61112296309631  2.02909523672367 -0.27890516771677
 1 -2.44727981218122  4.30922737243724  0.35239106880688
 1 -2.35555431973197  4.04245146994699 -1.32962607170717
 1 -3.90626701180118  4.61310949274927 -0.81409121062106
 1 -2.51326094619462  0.56490870287029 -0.09976293089309
 1  6.55714846474647 -2.00398996109611 -0.13592110741074
 1  8.48729394389439 -1.81033575837584 -0.26108688278828
 1  7.85712563416342 -1.72690501890189  1.24515827672767
 1  6.24505965306531  1.81779558495850 -0.52637465716572
 1 -0.76739809680968  2.94595863936394 -0.23854376587659
 1  4.85900188658866 -0.78966546324632  0.26814949604960
 1 -0.16929585278528 -0.05718753165317  0.23438604970497
 1  3.67787695559556  1.97097273347335 -0.13935616061606
 1  1.87281415661566  2.14042983488349 -0.22883558195820
 1  1.43114194899490 -1.66726333053305  0.18011700730073
 1  2.92934425922592 -1.67750405190519 -0.40795856585659
 1  2.88708540494049 -1.52611684068407  1.33960724732473

