%nproc=3
%Mem=2GB
# td=(NStates=1) CAM-B3LYP/6-31G(d,p) 

TD

0 1
 8 -11.77879454705471  0.30328097649765 -1.51279844344434
 8 -13.18026886268627 -2.28079638763876  1.43866955195520
 8  10.79625514541454 -1.02228211611161 -2.24812853915392
 8  14.57966133283328 -0.87275599709971 -0.18348283568357
 6 -11.08268643584358 -0.10869482418242 -0.36189561396140
 6 -11.73260955065506 -1.10370155005501 -1.37351619191919
 6 -11.75404744774477  0.42343902670267  0.88158781378138
 6 -13.09402460616062 -1.58272843074307 -0.95429706370637
 6 -13.23318177617762  0.18291084348435  0.86490117801780
 6 -13.49723615711571 -1.30772231003100  0.44085285258526
 6 -10.91393698239824 -1.84098951645164 -2.28739105740574
 6 -9.56648609240924  0.09297643144314 -0.45084204230423
 6 -11.12121809920992  0.01903630763076  2.15057012411241
 6 -11.50084046434643  1.98861396449645  0.90491858355836
 6 -8.72744616631663 -0.85678371957196 -0.05110637163716
 6 -7.21424941454145 -0.74309615571557  0.17466516681668
 6 -6.35528954385439 -1.93964265306531  0.35869810611061
 6 -6.65177083878388  0.57628845874587 -0.08426698189819
 6 -5.24103404500450  0.74313635033503 -0.00413474367437
 6  11.91272051895189  0.20045007450745  1.32089161726173
 6  11.70819810991099 -0.56416257145715 -1.31549542924292
 6  12.73308053615362 -1.09954418411841  1.54875960936094
 6  13.42835752245225 -1.63695822922292  0.26163012741274
 6  12.41773670837084 -1.76545105410541 -0.89716367886789
 6  11.12780966886689  0.11148589648965 -0.03271609130913
 6  11.05376678157816  0.32478912091209  2.56565890609061
 6  12.83717683438344  1.33798701950195  1.19399245024502
 6  12.50624693089309  0.56125499879988 -1.99948389618962
 6 -4.69278577427743  1.92601510751075 -0.17451230013001
 6  9.87579876737674  0.35929673247325 -0.06613779047905
 6 -3.33916907530753  2.37314606830683 -0.33336359705971
 6  8.54956474247425  0.87907424122412 -0.15339967996800
 6 -3.02888457355736  3.79642110161016 -0.66924665676568
 6 -2.32739965506551  1.47244909360936 -0.11463399809981
 6  7.44105364786479  0.01373196119612 -0.10593977807781
 6  7.60597533403340 -1.41619857195720  0.16852677557756
 6  6.15139648764876  0.68557548784878 -0.11020495649565
 6 -0.94512864436444  1.76482560626063 -0.24021219631963
 6  4.95226682948295  0.04329344544454  0.00038140694069
 6 -0.01637515851585  0.79978328822882  0.04053495069507
 6  3.71240064776478  0.79985033543354 -0.07049451845185
 6  1.34966690749075  1.00971269896990 -0.12692507340734
 6  2.44968286878688  0.18594789448945  0.08151150905091
 6  2.42283214491449 -1.24775895619562  0.60722931653165
 1 -12.84401620242024 -2.59458243604360 -0.88949417341734
 1 -13.90095531923192 -1.15358934313431 -1.58654510921092
 1 -13.58365616781678  0.37374444324432  1.79928261096110
 1 -13.94428382198220  0.83190831793179  0.31067873347335
 1 -14.63877118121812 -1.57510622402240  0.68630023432343
 1 -10.41392000890089 -2.65302208500850 -1.65624091949195
 1 -11.49757996689669 -2.46758154955495 -2.98394668086809
 1 -10.19962214571457 -1.10439964856486 -2.74079569206921
 1 -9.16677533233323  0.93107523852385 -0.90669447954795
 1 -9.97892922052205  0.08722998709871  2.01180692349235
 1 -11.46598195909591  0.94161086268627  2.92803115321532
 1 -11.36104679837984 -1.15380225672567  2.47751854155416
 1 -11.74564710721072  2.37344346634663 -0.06393317731773
 1 -12.02290853025302  2.48538411391139  1.68363207500750
 1 -10.47390767286729  2.32509309980998  0.98293258675868
 1 -12.21274434693469 -2.35383825742574  1.34146862576258
 1 -8.91813265516552 -1.83527188488849  0.35888498739874
 1 -5.90177962406241 -2.47516084118412 -0.52234027842784
 1 -5.51569398469847 -1.52596782938294  1.08044644084408
 1 -7.00627073767377 -2.91529380238024  0.78129428022802
 1 -7.18130944204420  1.43932226132613 -0.29997967446745
 1 -4.70363700840084 -0.24958634023402  0.01203742804280
 1  13.36509218631863 -1.08786047344735  2.38945388598860
 1  12.06797197419742 -1.82726210621062  1.89253525322532
 1  13.72470482738274 -2.64964662966297  0.52607953385339
 1  12.92995043354335 -2.15601207970797 -1.72855595029503
 1  11.94328433663366 -2.55061418531853 -0.52484782688269
 1  11.64295390359036  0.07456782348235  3.63567860656066
 1  10.43342031973197  1.17713327642764  2.74797232143214
 1  10.13626124732473 -0.37263557805781  2.72769901110111
 1  13.45944284618462  1.37100572477248  0.39813387818782
 1  12.30580319351935  2.37919735753575  1.41139584528453
 1  13.60045588268827  1.30214469356936  2.12268875047505
 1  13.21329214871487  0.05390878127813 -2.90871332323232
 1  11.86337340574057  1.26894898579858 -2.55262319721972
 1  13.23347418001800  0.79793584648465 -1.33152863826383
 1 -5.32172439633963  2.88279266606661 -0.24205561636164
 1  10.02214346494650 -0.32598125572557 -1.88731106690669
 1  15.08740158535853 -0.83319313371337  0.61540013931393
 1  8.54219607040704  1.99652197939794 -0.27458473567357
 1 -2.11490657485749  4.05936238593859 -0.00959512981298
 1 -2.51495025932593  3.75628285308531 -1.72875598469847
 1 -3.90365675077508  4.53746192799280 -0.73416321782178
 1 -2.36405602570257  0.42695490749075  0.07331437683768
 1  6.60148289818982 -1.92012157425743 -0.02763027832783
 1  8.30323553805380 -1.90637536233623 -0.51914268836884
 1  7.95222514411441 -1.75214754315432  1.13660742164216
 1  6.19814496159616  1.97873167856786  0.13025100540054
 1 -0.64956631363136  2.76745078857886 -0.44304421592159
 1  4.87520350675067 -1.11181767846785  0.03743642474247
 1 -0.39387831103110 -0.20430224312431  0.53394600570057
 1  3.64937410531053  1.97381301750175 -0.50113233823382
 1  1.58411528672867  1.94852064396440 -0.60738343674367
 1  1.36716555135514 -1.55190179437944  0.69947894349435
 1  2.73134445924592 -2.04870117161716 -0.09427719771977
 1  3.04995169156916 -1.48630285928593  1.46463975057506

