%nproc=3
%Mem=2GB
# td=(NStates=1) CAM-B3LYP/6-31G(d,p) 

TD

0 1
 8 -11.82125879347935  0.32124277267727 -1.38322548614861
 8 -12.93545438123812 -2.49274758275828  1.27619330433043
 8  10.64558007790779 -0.93815370327033 -2.17950167646765
 8  14.51888525522552 -1.07307602910291 -0.21356584398440
 6 -11.06254442164216 -0.12908686338634 -0.24256368076808
 6 -11.74522081178118 -1.04172535243524 -1.18953779407941
 6 -11.77903994699470  0.31252793559356  1.12114176917692
 6 -13.09757496119612 -1.53996415431543 -0.92134376837684
 6 -13.23784224222422 -0.03607105470547  0.98499318721872
 6 -13.56259269276928 -1.45337687548755  0.58884765206521
 6 -10.99251484018402 -1.79625504300430 -2.36183850215021
 6 -9.58525796959696  0.14427156095610 -0.35286224432443
 6 -11.06404238163816 -0.15913150915091  2.29070413751375
 6 -11.77246762706270  1.95245034813481  1.07700579227923
 6 -8.72664608630863 -0.76841488268827  0.17359609860986
 6 -7.33763175277528 -0.60580242634263  0.08492619291929
 6 -6.42821683658366 -1.88988767756776  0.21170340664066
 6 -6.75210087178718  0.59080991089109 -0.15572412761276
 6 -5.30675061666167  0.79025106180618 -0.29882421262126
 6  11.87823707060706  0.06781681118112  1.40162969106911
 6  11.64287157725773 -0.58972512771277 -1.21352523222322
 6  12.57014424252425 -1.26119034873487  1.52552728612861
 6  13.33958864556456 -1.82314684808481  0.25880984538454
 6  12.44142907760776 -1.86367087608761 -0.95648961146115
 6  11.08540542844284  0.06753150105010  0.07610479077908
 6  11.02380378527853  0.34242088408841  2.61074341454145
 6  13.06541965866587  1.18496171697170  1.26603965496550
 6  12.61379768596860  0.34855372867287 -2.03524747254725
 6 -4.67081357705771  2.01118362436244 -0.53596844574457
 6  9.91537272477248  0.60822162496250 -0.03628480518052
 6 -3.29784494289429  2.32409116281628 -0.57233749444944
 6  8.67600738673867  1.03287962176218 -0.15681002100210
 6 -3.01419310441044  3.79516097559756 -0.92094182628263
 6 -2.29659657475748  1.42618446714671 -0.34743727842784
 6  7.37104664716472  0.16225681368137  0.08382919881988
 6  7.69291402790279 -1.31973892599260  0.27604752765277
 6  6.30165151315131  0.81460839113911  0.05448151215122
 6 -0.90873500500050  1.86107523122312 -0.37634580968097
 6  4.98407000980098  0.20259937603760  0.25333670247025
 6  0.08432491149115  0.90737404730473 -0.20123922672267
 6  3.83412281998200  0.88699905030503  0.01850438143814
 6  1.49109104990499  1.16490821852185 -0.14936731763176
 6  2.52693059355936  0.26302560226023  0.17938129602960
 6  2.34374423612361 -1.13916809710971  0.44832342594259
 1 -13.15953775457546 -2.66592957075708 -1.21908713271327
 1 -13.83269849354935 -0.96309029322932 -1.61972842754275
 1 -13.63653145534554 -0.07896082728273  1.98772145484548
 1 -13.77463685728573  0.80032515961596  0.35750341594159
 1 -14.75307261136114 -1.58079679307931  0.76707831213121
 1 -10.85141375827583 -3.03926070887089 -2.17296259165917
 1 -11.58442865176518 -1.62913770517052 -3.39290757695770
 1 -9.91595377887789 -1.58473768236824 -2.26952856535654
 1 -9.26663531833183  1.10928305930593 -0.73993780388039
 1 -9.96858818641864 -0.02023075897590  2.01770751355135
 1 -11.43631899279928  0.46690339193919  3.19035738583858
 1 -11.34436513021302 -1.31193807030703  2.59505029472947
 1 -12.48668121062106  2.17012313431343  0.30832404840484
 1 -12.19427566696670  2.16184175967597  2.07107081888189
 1 -10.85086536863686  2.33935452595260  0.87244153765377
 1 -12.09797286978698 -2.59322219581958  1.03425790469047
 1 -9.00198104000400 -1.68025638333833  0.64706380528053
 1 -5.88082752885289 -2.28712203730373 -0.63317136153615
 1 -5.58219063436344 -2.03074830743074  0.89251764796480
 1 -7.10956106670667 -2.83062533553355  0.65809195999600
 1 -7.33653496459646  1.47289561866187 -0.30555023152315
 1 -4.64926157085709 -0.28607998959896 -0.39959373507351
 1  13.36414209130913 -1.17369905730573  2.47648258885889
 1  11.72755793279328 -2.10834021402140  1.59942594229423
 1  13.74138649554956 -2.77449911491149  0.58454538043804
 1  12.89833727222722 -2.03619009750975 -1.91678477317732
 1  11.45469547774777 -2.61119024292429 -0.88887422952295
 1  11.64870447864786  0.54295466216622  3.69121416011601
 1  10.66341331903190  1.46445200830083  2.30591811601160
 1  10.27171479267927 -0.35158347284728  2.60729697089709
 1  13.51390829272927  1.11535015921592  0.07171123592359
 1  12.61712432563256  2.21681111891189  1.43209791549155
 1  13.80136597369737  1.07647212631263  2.18878536013601
 1  13.18165898539854 -0.29743635323532 -2.86268872077208
 1  12.04488155655566  1.29500159105911 -2.41813974887489
 1  13.41235206780678  0.56902295519552 -1.22923840924092
 1 -5.33457568146815  2.73563795059506 -0.84342575337534
 1  10.04160541114111 -0.11472012961296 -2.17915025082508
 1  15.00592343754375 -0.85551536593659  0.69717831713171
 1  8.43055490629063  1.98732105930593 -0.40905818301830
 1 -2.45163024722472  4.31203765346535 -0.08899306960696
 1 -2.54396316061606  3.99615684048405 -1.98026113521352
 1 -3.82708909400940  4.48594677647765 -1.04877467896790
 1 -2.28864848494850  0.35703791579158 -0.02363531813181
 1  6.80923367326733 -1.79383894599460  0.03058554325433
 1  8.41228644314431 -1.52605733053305 -0.44351512561256
 1  7.96467638923892 -1.48828115651565  1.27461122202220
 1  6.41261640874087  1.82719652505251  0.02446042634263
 1 -0.58279963696370  2.79993403690369 -0.53264317581758
 1  4.86454244064407 -0.90177667436744  0.57299998109811
 1 -0.23952287548755 -0.02127394029403  0.14045665676568
 1  3.95346451435143  1.90080571677168 -0.63850607560756
 1  1.83944081928193  2.23097888978898 -0.32885558395840
 1  1.26697553235324 -1.20805740994099  0.69562855845585
 1  2.85323664846485 -1.64024032553255 -0.58602637263726
 1  2.94732142854285 -1.53226745574557  1.34688797539754

