%nproc=3
%Mem=2GB
# td=(NStates=1) CAM-B3LYP/6-31G(d,p) 

TD

0 1
<<<<<<< HEAD
 8 -11.69030569816982  0.11989263766377 -1.55039220282028
 8 -12.70081091689169 -2.42932124012401  1.52740842584258
 8  10.44089960986099 -0.89821970987099 -2.07238096439644
 8  14.43026639333933 -1.13506222772277 -0.40496498389839
 6 -11.00989915711571 -0.15580953565357 -0.33956338073807
 6 -11.57023331303130 -1.17196837673767 -1.21010985128513
 6 -11.77669971297130  0.32262894569457  0.80311996699670
 6 -12.95727093079308 -1.86042620052005 -0.94684631863186
 6 -13.18254671267127 -0.13074052165217  0.89268395629563
 6 -13.39731616511651 -1.55507704550455  0.49251801910191
 6 -10.77289287798780 -2.06139155665567 -2.16274859315932
 6 -9.54209365316532  0.06485361916192 -0.45349230733073
 6 -11.01325730313031  0.04127853185319  2.20091515861586
 6 -11.66963734403440  1.91024612771277  0.72733082478248
 6 -8.63995741744174 -0.76936497769777  0.06121486048605
 6 -7.22249023862386 -0.54488633473347  0.12333003330333
 6 -6.29320333523352 -1.82518120692069  0.33836607290729
 6 -6.67900356205620  0.72724355425543 -0.10714927012701
 6 -5.25920586218622  0.92476451315132 -0.21465579577958
 6  11.91835108200820  0.02011204070407  1.29526905500550
 6  11.58531582168217 -0.64621077627763 -1.24454833453345
 6  12.66260348844884 -1.36252048174817  1.37531226462646
 6  13.30013470017002 -1.88890342374237  0.16745070947095
 6  12.20545548024803 -2.02693720272027 -0.97245120762076
 6  11.07093398129813  0.02080682858286  0.00614779507951
 6  11.01719312421242  0.18492513451345  2.51895423562356
 6  12.96245936263626  1.17903112391239  1.33008605960596
 6  12.50009631583158  0.31344021732173 -2.09175312311231
 6 -4.72477897359736  2.20374288028803 -0.39738458735874
 6  9.92148333583358  0.54313511631163 -0.02382355905591
 6 -3.35515067346735  2.58803755745575 -0.43782404310431
 6  8.64166395239524  1.01668800260026 -0.03615795579558
 6 -3.07072875797580  4.04660612011201 -0.76218595069507
 6 -2.44889180428043  1.63237508620862 -0.20498303300330
 6  7.44163370587059  0.21491207920792  0.12589340524052
 6  7.61654639113911 -1.28893584568457  0.46077600050005
 6  6.22973432143214  0.81155808610861  0.12124818881888
 6 -1.09741387288729  1.92861198489849 -0.27624579967997
 6  4.98917051985199  0.22292140824082  0.16213758255826
 6  0.01651813081308  0.98153146304630 -0.06545564836484
 6  3.76353576127613  0.98670902130213  0.24392692369237
 6  1.39242118291829  1.22185391309131 -0.01246362726273
 6  2.47808570907091  0.39332863256326  0.14873823172317
 6  2.25959582128213 -1.05536971727173  0.21752034563456
 1 -12.87460926172617 -2.90014299209921 -0.86848207220722
 1 -13.74185940964096 -1.39904388858886 -1.64060051475147
 1 -13.45353315551555 -0.04627755895590  2.03827651035104
 1 -13.90879027262726  0.62785791289129  0.44168183378338
 1 -14.34326163026303 -1.84456316971697  0.62226383068307
 1 -10.70548916581658 -2.93144992779278 -1.58624391979198
 1 -11.50029023792379 -2.36547133853385 -2.88739702590259
 1 -9.95832801630163 -1.56735594419442 -2.60887249974998
 1 -9.19114776957696  1.00128225922592 -1.02645645574557
 1 -10.11357268486849  0.56789805390539  2.28828457125713
 1 -11.71907726862686  0.28506520812081  2.91932028212821
 1 -10.96152684638464 -1.04864174067407  2.30161095079508
 1 -11.96074861736174  2.21127724972497 -0.19103588758876
 1 -12.30149638903890  2.32401797729773  1.53941765356536
 1 -10.67148743084308  2.20798138863886  0.90945523902390
 1 -11.67452052455245 -2.43343621722172  1.25583006190619
 1 -9.02466330823082 -1.64893325102510  0.53760285918592
 1 -5.87324677077708 -2.06905023012301 -0.70313835823582
 1 -5.55576799209921 -1.37637286988699  0.97539593579358
 1 -6.91431154175418 -2.54781705470547  0.91674782558256
 1 -7.28403971507151  1.53520184928493 -0.37134681118112
 1 -4.63253989868987 -0.10186156775678  0.12166839113911
 1  13.44294997209721 -1.46235792319232  1.96842178277828
 1  12.12368754575458 -2.14716409640964  2.03210921062106
 1  13.72316467336734 -2.87082874787479  0.43184010991099
 1  12.64806224472447 -2.24112059055906 -1.96275937063706
 1  11.54148415661566 -2.63365248914891 -0.70484582668267
 1  11.72784239243924 -0.05890552385238  3.46569160786079
 1  10.42696967466747  0.98475403850385  2.61352887708771
 1  10.04745236643664 -0.49513782828283  2.48707494869487
 1  13.62087898979898  1.15080370457046  0.40804486928693
 1  12.41215382858286  2.19802924072407  1.36698140384038
 1  13.68290412751275  1.09441392049205  2.21702818441844
 1  12.82441326082608 -0.28079468906891 -3.05452790469047
 1  11.99349641804180  1.20914300520052 -2.49960789568957
 1  13.31866269886989  0.54675072797280 -1.30066555195520
 1 -5.36746897079708  3.16586097289729 -0.56487789858986
 1  9.88573982458246 -0.22055071267127 -2.37102943874387
 1  15.22256510171017 -1.31924173857386  0.30582918221822
 1  8.43105495629563  1.98867119431943 -0.44810208740874
 1 -2.20188527272727  4.76001245094510 -0.11077524782478
 1 -2.76610537483748  4.05430265506551 -1.90479358845885
 1 -4.01655804090409  4.65471365316532 -0.76872667416742
 1 -2.78126774687469  0.47279949194919  0.03175022042204
 1  6.81858460836084 -1.93677323942394  0.53405589028903
 1  8.40302551705170 -1.46866159095910 -0.49884065816582
 1  8.25463538513852 -1.45981831023102  1.25218897979798
 1  5.99737488458846  1.98561236663666  0.01104908520852
 1 -0.62505386238624  2.85478952245225 -0.66300621212121
 1  4.63246923332333 -0.83133963066307  0.36593927502750
 1 -0.48487741094109 -0.14234604750475  0.04423703480348
 1  3.95471463936394  2.08269390559056  0.16504427942794
 1  1.48851572677268  2.30262605450545 -0.04456715511551
 1  1.20399923472347 -1.51593819801980 -0.14973597799780
 1  2.87723904870487 -1.61903820532053 -0.47577534753475
 1  2.54122081848185 -1.40384461346135  1.45159844644464
=======
>>>>>>> 6a1b998aacd80a23911c140f266e48a14f2d523d

