%nproc=3
%Mem=2GB
# td=(NStates=1) CAM-B3LYP/6-31G(d,p) 

TD

0 1
 8 -11.61941860946095  0.12381302970297 -1.70169733333333
 8 -13.03208404420442 -2.23086139413941  1.48620430543054
 8  10.72675819571957 -0.92189207710771 -2.17099082538254
 8  14.45710907760776 -0.81494021552155 -0.07373186058606
 6 -11.07356552375238 -0.06641059575958 -0.35190461486149
 6 -11.63004929462946 -1.17752893279328 -1.28640748104810
 6 -11.81582362536254  0.52966964976498  0.80152980798080
 6 -13.00441564526453 -1.71433159105911 -1.01208284228423
 6 -13.31359981798180  0.03556610901090  0.69831451935194
 6 -13.60387682118212 -1.43186472427243  0.47536630393039
 6 -10.74388997769777 -2.11279669716972 -1.96390870917092
 6 -9.53279272307231  0.01936907070707 -0.30514747284728
 6 -11.31405738313831 -0.03483907990799  2.17449251635164
 6 -11.73339371967197  1.96476157925793  0.75885397709771
 6 -8.64551797349735 -0.77881592279228  0.28365710471047
 6 -7.20972896249625 -0.58250009610961  0.29280698099810
 6 -6.28893290819082 -1.78123681248125  0.69089132543254
 6 -6.64047970967097  0.57103793369337 -0.03018157335734
 6 -5.20657059865987  0.81632366906691 -0.11457578777878
 6  11.92480172707271 -0.01960193069307  1.37842737083708
 6  11.72797008710871 -0.52743889908991 -1.19697357705771
 6  12.75058228632863 -1.27031126082608  1.50705543894389
 6  13.40279496619662 -1.76976150955096  0.24060802520252
 6  12.54059899459946 -1.84190869986999 -0.98984294679468
 6  11.12793968186819 -0.05405065716572  0.04912209250925
 6  10.92401380628063  0.10295693769377  2.58225056525653
 6  12.80884400110011  1.10677389818982  1.46086913791379
 6  12.49901620782078  0.47743661696170 -1.95133908170817
 6 -4.76454294999500  2.12934544054405 -0.26402125102510
 6  9.89894108160816  0.39752055485549 -0.10137131383138
 6 -3.35797095549555  2.48444719841984 -0.31431169186919
 6  8.67631741774177  0.87383371717172 -0.15214955495550
 6 -2.88671035613561  3.90171163066307 -0.54211394349435
 6 -2.38459537463746  1.48954080278028 -0.25175771047105
 6  7.38254779727973  0.12617320532053 -0.22166135023502
 6  7.58807354385439 -1.35036198829883 -0.03187326442644
 6  6.25233658165817  0.84833176347635 -0.23205714171417
 6 -1.03174730623062  1.80935005870587 -0.21255943104310
 6  5.02383398619862  0.19300841694169 -0.05442407360736
 6  0.03876035503550  0.93597690759076 -0.11768087088709
 6  3.77667707540754  0.85588593899390 -0.17587505650565
 6  1.33404534533453  1.17467919561956 -0.12184456535654
 6  2.45882378287829  0.28122742244224 -0.01147778987899
 6  2.20780064176418 -1.22964714501450  0.19729832343234
 1 -13.25560736153615 -2.84425740354035 -1.04546977097710
 1 -13.66466168986899 -1.12798678287829 -1.71729818451845
 1 -13.64039184138414  0.28326539533953  1.64511719441944
 1 -13.83505289888989  0.86588171527153  0.22030969656966
 1 -14.52191949604961 -1.66980569396940  0.59765136943694
 1 -10.53369198609861 -2.87783456625663 -1.13869916531653
 1 -11.14092430133013 -2.46900169156916 -2.81386967316732
 1 -9.64789697319732 -1.82197140574057 -2.33434504700470
 1 -9.01211986678668  0.76505863686369 -1.18049185928593
 1 -10.22347367496750  0.24936620072007  2.24831057385739
 1 -11.79704506540654  0.49084578617862  2.97590594069407
 1 -11.21036172987299 -1.32693957045705  2.18031882158216
 1 -11.97835037753775  2.29553567556756 -0.48952573657366
 1 -12.70143638303830  2.48855443094309  1.36244995679568
 1 -10.82127240934093  2.49548013851385  0.97859215271527
 1 -12.18577164966497 -2.59801267486749  1.30630510941094
 1 -9.04702554445445 -1.56651500920092  1.00373947284728
 1 -6.08052749884988 -2.36294962006201 -0.38349639403940
 1 -5.26991940724072 -1.36989222182218  1.29640803700370
 1 -6.91456156675668 -2.67432970597060  1.08905505630563
 1 -7.03746505760576  1.48323665276528  0.05554587808781
 1 -4.59689633433343 -0.03843522512251 -0.02655643134313
 1  13.54687036413641 -1.15094678207821  2.43305824642464
 1  11.98345352235224 -2.06589596959696  1.93297929762976
 1  13.91193355025502 -2.76537820282028  0.49548647454745
 1  13.01591903040304 -1.99879635813581 -1.70156325102510
 1  11.95303531173117 -2.79108823272327 -0.95173051515152
 1  11.37747735593559 -0.18329796309631  3.51130616931693
 1  10.44233121082108  1.16853241634163  2.56728425262526
 1  10.08461608280828 -0.58231654615462  2.66972321352135
 1  13.62065896779678  1.49535816001600  0.69065313011301
 1  12.16306892009201  2.09318875667567  1.64183888958896
 1  13.24886072317232  1.03584806390639  2.41311779337934
 1  12.70467128662866  0.02614600500050 -2.91349380128013
 1  12.22766983538354  1.46721881278128 -2.00718865376538
 1  13.33541437403740  0.85165121802180 -1.56031151655165
 1 -5.62966519041904  2.89059344614461 -0.34673608440844
 1  10.24648589918992 -0.17904656225623 -2.58704103990399
 1  14.97977082228223 -0.77691750615061  0.69377797709771
 1  8.43900575137514  1.93742606980698 -0.48847612481248
 1 -2.35576066026603  4.39417586728673  0.37085291499150
 1 -2.11648041234123  4.29060628542854 -1.36299940904090
 1 -3.77514389948995  4.62624080588059 -0.65060486198620
 1 -2.68339795989599  0.55377758975898  0.10544759015902
 1  6.70249299919992 -2.06809637173717 -0.90953846914691
 1  8.62702791729173 -1.50422514731473 -0.43295406950695
 1  7.45323524512451 -1.62261458985899  1.10664442534253
 1  6.43955910301030  1.77639144454445 -0.53747576727673
 1 -0.76126748374837  2.74217826132613 -0.56849676117612
 1  4.95322130853085 -0.80437693439344  0.24646732783278
 1 -0.34866378957896  0.04592277937794  0.08190080118012
 1  3.82883205110511  1.94703033923392 -0.37900012501250
 1  1.61687856305631  2.24401019291929 -0.28087078547855
 1  1.27812664746475 -1.44576118031803 -0.09899090349035
 1  2.89092041684168 -1.70889719121912 -0.46949471947195
 1  2.53835053145315 -1.30050427942794  1.32128541514151

