%nproc=3
%Mem=2GB
# td=(NStates=1) CAM-B3LYP/6-31G(d,p) 

TD

0 1
 8 -11.77286395399540  0.25756640504050 -1.49959712331233
 8 -12.89505034083408 -2.45053336133613  1.41318700370037
 8  10.35564108400840 -0.95634552245225 -2.05122884918492
 8  14.49394276097610 -0.97222594409441 -0.38472295969597
 6 -11.03045121232123 -0.12689664436444 -0.36736616101610
 6 -11.63477976767677 -1.24633581348135 -1.26978581888189
 6 -11.74238628162816  0.37511419421942  0.89235889088909
 6 -13.10971617531753 -1.70409056695670 -0.92752438643864
 6 -13.27777623562356  0.01158371077108  0.94673936183618
 6 -13.46246267976798 -1.47037857565757  0.54593336063606
 6 -10.91748733743374 -1.98540395789579 -2.39587190549055
 6 -9.56019546334633  0.08042517631763 -0.48835579367937
 6 -11.03591956935693  0.00904530853085  2.12018708580858
 6 -11.56498687898790  1.92268737183718  0.93878196989699
 6 -8.66622004370437 -0.77404544574457  0.08123686268627
 6 -7.26572456205621 -0.55248709480948  0.13635133543354
 6 -6.47784179907991 -1.74299298809881  0.64747698399840
 6 -6.68125378707871  0.65084591449145 -0.21367992319232
 6 -5.29778972057206  0.88312034873487 -0.12985731593159
 6  12.00071931883188 -0.08526849734973  1.33028255635564
 6  11.51058834893489 -0.61065722092209 -1.27627150685069
 6  12.83549077717772 -1.26211044074407  1.51840657405741
 6  13.43550823752375 -1.83948848224822  0.12330629502950
 6  12.34721965666567 -1.87346185518552 -1.06567052955296
 6  11.12915980388039 -0.05953120522052  0.13751093139314
 6  11.13669507440744  0.22895953795380  2.61818415861586
 6  12.97716083278328  1.27396061686169  1.24124717571757
 6  12.39257556375638  0.50955982928293 -2.04630857865787
 6 -4.74037053275327  2.16507901390139 -0.31546639553955
 6  9.88374956245625  0.43738454125413  0.16538536183618
 6 -3.38512367076708  2.47383613731373 -0.36040630133013
 6  8.65301508750875  1.01887822162216 -0.01044538453845
 6 -3.03082476757676  3.87375883538354 -0.76305603770377
 6 -2.33350026512651  1.50193204190419 -0.20443297799780
 6  7.44039358185819  0.12805339333933  0.09324013991399
 6  7.65881061756176 -1.33919087118712  0.50174009690969
 6  6.23723507150715  0.78773570387039  0.03684974897490
 6 -0.98481261276128  1.83822294599460 -0.35975415051505
 6  4.97067867066707  0.09752886898690  0.00534190299030
 6  0.03013949294929  0.87788109800980 -0.17116621942194
 6  3.81250065776578  0.80114046444644 -0.19320678967897
 6  1.38781072187219  1.14405613331333 -0.20764314521452
 6  2.51252915341534  0.32728202790279  0.00988434633463
 6  2.26981684338434 -1.15954013431343  0.43645223882388
 1 -13.12666446724672 -2.78069104690469 -1.12922814681468
 1 -13.65076029972997 -1.15987997219722 -1.63173962866287
 1 -13.70385818801880  0.20280734953495  2.01815449814982
 1 -13.84712410601060  0.68055318241824  0.27409507510751
 1 -14.46292359645965 -1.74101281468147  0.47958956325633
 1 -10.60140875777578 -2.81987877067707 -1.92142743814381
 1 -11.30388059695970 -2.07413220462046 -3.44255254145414
 1 -9.81173335683568 -1.36902611121112 -2.62721433393339
 1 -9.25404405920592  0.96297842884288 -0.96552036213621
 1 -10.03208453605360  0.59279054315431  2.18204394719472
 1 -11.77895325622562  0.47808451005101  3.09345769586959
 1 -11.01317201090109 -1.14313118961896  2.23926471617162
 1 -11.95423796629663  2.24950107210721  0.08059127512751
 1 -12.16713295269527  2.24365994149415  1.99888360016002
 1 -10.48845912801280  2.30371096159616  0.93606790029003
 1 -11.94374744724472 -2.48600147374737  1.19518399729973
 1 -9.01053189508951 -1.79954831253125  0.34825392429243
 1 -5.91011045714571 -2.26418974407441 -0.24922296669667
 1 -5.69408182348235 -1.57607283988399  1.32433082928293
 1 -7.23839394999500 -2.46829910291029  1.16629278007801
 1 -7.30183149424942  1.52105043414342 -0.52071174767477
 1 -4.43085973067307 -0.06227760936094 -0.21856563226323
 1  13.68026370347035 -1.04606629402940  2.36616155675568
 1  12.34513969096910 -1.94043342334233  2.16719271897190
 1  13.84009636653665 -2.68872053705370  0.43957088298830
 1  12.93061049954995 -1.92548902740274 -2.04367746244624
 1  11.69438944714472 -2.58698782268227 -0.84824016611661
 1  11.62938254645465  0.06169653635364  3.48074311301130
 1  10.47431440914091  1.12329789288929  2.57895541974197
 1  10.49595721692169 -0.68986730123012  2.59813605480548
 1  13.57827472937294  1.36070469466947  0.31071513631363
 1  12.31887450065006  2.23934337213721  1.17451215691569
 1  13.60098593569357  1.29136361546155  1.99937641924192
 1  12.28694951445144  0.15685907630763 -3.13284573647365
 1  11.82054912331233  1.54842693359336 -2.01461939683968
 1  13.54876570917092  0.51948800170017 -1.63985947134714
 1 -5.54203642754275  2.97182156895690 -0.53333474427443
 1  9.81566281688169 -0.06198485608561 -1.90680301610161
 1  14.99368221342134 -0.64096391079108  0.26123472277228
 1  8.54602645344534  1.96538886608661 -0.32623990119012
 1 -2.34026911111111  4.45818226792679  0.03064889458946
 1 -2.24748351265126  3.82304952975297 -1.48011112021202
 1 -3.78068445354535  4.61421960376038 -0.96465626712671
 1 -2.73159277937794  0.59821203320332  0.13011005640564
 1  6.80536328622862 -1.95735529762976  0.51359384408441
 1  8.49163437793779 -1.69814453925393 -0.17276805090509
 1  8.46759668126813 -1.38887121552155  1.45416917781778
 1  6.23899904700470  1.83008681408141 -0.24370639033903
 1 -0.62911426842684  2.80552459595960 -0.83817372887289
 1  4.95502148854885 -0.88001449814982  0.20319300040004
 1 -0.36376529972997 -0.06726853975398 -0.00326771567157
 1  3.91837100500050  1.89664530073007 -0.17681990699070
 1  1.65627250245025  2.06408220012001 -0.53041573997400
 1  1.26166500130013 -1.55547215141514  0.24316331193119
 1  2.90853217801780 -1.71945824732473 -0.23121089108911
 1  2.65141183758376 -1.08386261526153  1.53196648324832

