%nproc=3
%Mem=2GB
# td=(NStates=1) CAM-B3LYP/6-31G(d,p) 

TD

0 1
<<<<<<< HEAD
 8 -11.74640130773077  0.20747139553955 -1.55205236883688
 8 -12.94440527632763 -2.43005131313131  1.42233791879188
 8  10.58954447434743 -1.09594948284828 -2.00476420272027
 8  14.54798816551655 -0.97675639713971 -0.20698518591859
 6 -11.01637980518052 -0.14623857855786 -0.35890531493149
 6 -11.71464775447545 -1.16286746664666 -1.24872371267127
 6 -11.68031007400740  0.36332301510151  0.89206886188619
 6 -13.14449965366537 -1.73725388328833 -0.85362699669967
 6 -13.14975343334334 -0.02289973757376  0.95699038693869
 6 -13.55851228472847 -1.44860639843984  0.58217698499850
 6 -11.06009159785979 -2.02037745524552 -2.14139645794579
 6 -9.54099354315431  0.06568370217022 -0.37650460856086
 6 -11.03773975137514 -0.18243383938394  2.21129619671967
 6 -11.48172855315532  1.94002910601060  0.96437452915292
 6 -8.68732215391539 -0.81809985118512  0.05485422442244
 6 -7.25218320792079 -0.70125197129713  0.04386208650865
 6 -6.33911792669267 -1.86370505930593  0.31247348364836
 6 -6.66478213991399  0.57238806870687 -0.09092764796480
 6 -5.22632257385739  0.86953899059906 -0.20349467966797
 6  11.95655490239024  0.07006703620362  1.33207273537354
 6  11.61292858295830 -0.55108126332633 -1.23703758345835
 6  12.72577980608061 -1.37248147784778  1.48079281268127
 6  13.45214990169017 -1.70754528792879  0.12128609300930
 6  12.42774770947095 -1.89522403140314 -0.94027799029903
 6  11.11546843474347 -0.04577983008301  0.12104928522852
 6  11.04332573747375  0.27682432443244  2.56340868106811
 6  12.89882299899990  1.27368058885889  1.24741779277928
 6  12.35132143834383  0.50087896119612 -1.96592053985399
 6 -4.67273376907691  2.10499300530053 -0.40956580548055
 6  9.88690987848785  0.46719752255226  0.15023384668467
 6 -3.39277443584358  2.60233898759876 -0.51732199289929
 6  8.64972475847585  0.83570990479048 -0.02013635363536
 6 -3.10855254035404  4.10552201170117 -0.79142887498750
 6 -2.35349226432643  1.66988883758376 -0.28562109680968
 6  7.41794133663366 -0.03809322132213  0.05203601950195
 6  7.58825356185619 -1.50295724782478  0.18911883478348
 6  6.26831817981798  0.78130506080608 -0.01187512351235
 6 -0.92390652215222  1.99418854255426 -0.34383255835584
 6  4.96847845064506  0.24636375247525  0.22027339613961
 6  0.04152063106311  1.10814412431243  0.01914281148115
 6  3.80158956665667  0.87139749014901 -0.01652912191219
 6  1.45438737953795  1.25083681138114 -0.10866324722472
 6  2.42404030453045  0.35679497919792 -0.06934357645765
 6  2.18642850455046 -1.17466164646465  0.19179777337734
 1 -13.17807960876088 -2.75867884568457 -0.99519474347435
 1 -13.71246647034704 -1.16958094229423 -1.54786124082408
 1 -13.57227502970297  0.39344641344134  1.81168385108511
 1 -13.81468086168617  0.68092321942194  0.21309897549755
 1 -14.46027333143314 -1.44595330873087  0.65510711501150
 1 -10.97075569246925 -3.10498728152815 -1.68217351275128
 1 -11.63422363126313 -2.21441623302330 -3.06164445064506
 1 -10.19848203170317 -1.53800300890089 -2.49289090159016
 1 -9.23957261206121  0.99104123512351 -0.82069587968797
 1 -10.13084441204120  0.23005426952695  2.57018276107611
 1 -11.38914427532753  0.16256295789579  3.13165151525153
 1 -10.99161985568557 -1.17847472397240  2.21781257095710
 1 -12.06920946344635  2.46084220622062  0.06049926592659
 1 -12.07751399079908  2.43958953445345  1.74421813361336
 1 -10.52467274937494  2.13225381588159  0.78836312981298
 1 -11.94138721122112 -2.45377825142514  1.30994547344735
 1 -9.02636347824783 -1.79821817951795  0.52808190709071
 1 -5.46900634673467 -2.02834615971597 -0.57142518691869
 1 -5.64356677197720 -1.85672090469047  1.27432582878288
 1 -7.11384149474948 -2.69563183618362  0.14852100290029
 1 -7.19860117121712  1.43374170327033 -0.32534221072107
 1 -4.54945158985899  0.06472509090909 -0.04162793849385
 1  13.67736341344134 -1.34380606800680  2.21933687428743
 1  12.10236541354135 -2.23430281028103  1.87860386008601
 1  13.79997235413541 -2.86373803880388  0.43561048694869
 1  13.26866430493049 -2.27745422392239 -1.63256635133513
 1  11.61829183738374 -2.69040816471647 -0.78582392449245
 1  11.37530713891389  0.53631399809981  3.40311535023502
 1  10.46539351705170  1.16902246534653  2.41470899509951
 1  10.36568418961896 -0.63312162666267  2.64247048824882
 1  13.78797569946995  1.07591621582158  0.40706477127713
 1  12.22067468066807  2.14779421722172  1.10798550425043
 1  13.52091792889289  1.40771525062506  2.12869935153515
 1  12.56155697519752  0.15662905330533 -2.98285073697370
 1  11.58621568996900  1.23067515841584 -2.20826876177618
 1  13.34126495909591  0.90011606450645 -1.38394387978798
 1 -5.49263148704871  2.90124451125113 -0.45172658345835
 1  9.92770402100210 -0.32464112171217 -2.34867720352035
 1  15.04148699389939 -0.80755056945695  0.53587218651865
 1  8.49857170797080  2.01781410861086 -0.07046432363236
 1 -2.44833991819182  4.58615506520652 -0.06871104140414
 1 -2.39427819211921  4.10595782058206 -1.67450055915592
 1 -3.98581496659666  4.69028721052105 -1.06906670817082
 1 -2.69431905200520  0.77072928492849 -0.43823677827783
 1  6.72164491439144 -2.20698026012601  0.02220470517052
 1  8.48334354885488 -1.85617034183418 -0.29171994609461
 1  7.73476339793979 -1.69060138853885  1.41111487238724
 1  6.44304945204520  1.88705251065107 -0.06481850155015
 1 -0.41591294829483  3.08133217671767 -0.51369128062806
 1  5.01776776317632 -1.03811030773077  0.29184186528653
 1 -0.13356227942794 -0.02422423532353  0.33577618871887
 1  3.95400456835683  2.00670630683068 -0.17536976197620
 1  1.71896877207721  2.33453924582458 -0.26059875827583
 1  1.22707154195419 -1.44660126432643  0.53314230983098
 1  2.26073739853985 -1.63516981848185 -0.77877564756476
 1  2.84261095749575 -1.31335556455646  0.97313059965997
=======
>>>>>>> 6a1b998aacd80a23911c140f266e48a14f2d523d

