%nproc=3
%Mem=2GB
# td=(NStates=1) CAM-B3LYP/6-31G(d,p) 

TD

0 1
 8 -11.79833650125012  0.13837448584858 -1.48855601920192
 8 -13.00774160996100 -2.35053336133613  1.47416310131013
 8  10.84274979487949 -0.97730761866187 -2.15033876017602
 8  14.47874124082408 -0.83599232073207 -0.00125461286129
 6 -11.12956112331233 -0.15936989168917 -0.28295772017202
 6 -11.62741903160316 -1.19720089999000 -1.19013785408541
 6 -11.84674671767177  0.47717440024002  0.92190184518452
 6 -12.95408061176118 -1.85368552645265 -0.89893152715272
 6 -13.31878033603360 -0.03267071467147  0.83732842074207
 6 -13.55176160966097 -1.47102864066407  0.48307707500750
 6 -10.61713730243024 -1.96801221872187 -2.06863918221822
 6 -9.71298074187419  0.14053118691869 -0.29005596369637
 6 -11.18065404280428  0.15478988298830  2.31646671377138
 6 -11.84042442274227  1.91655675877588  0.71649974167417
 6 -8.70815423712371 -0.60356839803980  0.22739147814781
 6 -7.19807779737974 -0.53051489758976  0.16260396069607
 6 -6.29483349824982 -1.75705439423942  0.46245848214821
 6 -6.63670933263326  0.65671650155015 -0.00061861706171
 6 -5.22579252085209  0.89293132983298 -0.16543087328733
 6  11.85861510841084 -0.06650662116212  1.46887641574157
 6  11.72186947704770 -0.54964111931193 -1.18790266996700
 6  12.59040626872687 -1.40576480618062  1.42530726412641
 6  13.52602728942894 -1.74735926932693  0.22295626002600
 6  12.57053198789879 -1.75937044604460 -1.01601556405641
 6  11.06411329922992  0.07756250415042  0.02503968426843
 6  10.85207661256126  0.10357699969997  2.59624196439644
 6  12.81043416011601  1.14782800360036  1.63379643064306
 6  12.60415672187219  0.54257313061306 -1.76174012181218
 6 -4.73689018471847  2.14010651665167 -0.42292714161416
 6  9.85270645814581  0.45250605340534 -0.00940211691169
 6 -3.35825098349835  2.47934668836884 -0.41209146984698
 6  8.67571735773577  0.94358069186919 -0.20969530953095
 6 -2.98937062216222  3.91792325182518 -0.72939267136714
 6 -2.30593750885089  1.63455530423042 -0.21291382608261
 6  7.45958550105011  0.10483107110711 -0.13968315241524
 6  7.68933366986699 -1.39068602070207 -0.01956203330333
 6  6.24945629362936  0.59829675997600 -0.23891782778278
 6 -0.96901103260326  1.84814393809381 -0.24322249734974
 6  4.95066666946695  0.01993110921092 -0.19708834003400
 6  0.00278675767577  0.82905621552155 -0.06538564136414
 6  3.79846925462546  0.80129047944794 -0.26713418241824
 6  1.41039298009801  1.18331005870587 -0.13599598049805
 6  2.40494839533953  0.27585688538854 -0.10990763286329
 6  2.33087294899490 -1.16247042734273  0.07900649424942
 1 -12.90137193799380 -2.91167414521452 -0.91725694969497
 1 -13.55906112981298 -1.51628561276128 -1.83448990369037
 1 -13.69675747794779 -0.05078801000100  2.00391307400740
 1 -13.91804119771977  0.65906103320332  0.29051671727173
 1 -14.58338564266427 -1.58184689808981  0.72819442374237
 1 -10.20253887078708 -2.89427621042104 -1.55461075647565
 1 -11.21731194009401 -2.29448423982398 -2.93059134533453
 1 -9.84741692519252 -1.40310951955196 -2.27716932943294
 1 -9.56573522832283  1.20743287428743 -0.75034884498450
 1 -10.11949327692769  0.49909117321732  2.50918666146615
 1 -12.02036739763976  0.40265696729673  3.30283863396340
 1 -11.07429812351235 -0.99352622912291  2.33091388108811
 1 -12.36330887338734  2.11678780078008 -0.33863064706471
 1 -12.52993923332333  2.48966454195420  1.58285199699970
 1 -10.75200548264826  2.08692928342834  0.87954224772477
 1 -12.13568664116412 -2.86427930153015  1.20344482338234
 1 -9.05304614651465 -1.63749210691069  0.73844294319432
 1 -5.77073651975198 -2.32411573667367 -0.35049309370937
 1 -5.40401281658166 -1.72232746534653  1.08174657085709
 1 -6.96440655125513 -2.54711698469847  1.06942309310931
 1 -7.13842515361536  1.65885421452145 -0.22877255375538
 1 -4.57651429612961  0.13005162356236 -0.00136391209121
 1  13.17480315741574 -1.28988067546755  2.46570151075107
 1  11.69733491049105 -2.28177755775578  1.42636863656366
 1  13.80771312821282 -2.70616228122812  0.41899882578258
 1  13.26250368886889 -1.78400487898790 -2.01745484018402
 1  11.87229723792379 -2.69247837173717 -0.99377471957196
 1  11.23674328252825  0.02734310101010  3.59867490619062
 1  10.40215719341934  1.02243780688069  2.47749527372737
 1  10.11798942014201 -0.72159047354735  2.42270851205121
 1  13.75577247914791  1.29120774497450  0.82128619341934
 1  12.28283089628963  2.13896333413341  1.59239394509451
 1  13.16162199929993  1.22243672277228  2.56054253585358
 1  13.06962778227823  0.20299368976898 -2.70204265616562
 1  12.03907097549755  1.45837792869287 -2.09770770567057
 1  13.51123195579558  0.71364741764176 -1.12990847624762
 1 -5.35887811171117  2.94507889468947 -0.79363077387739
 1  10.03722497309731 -0.42749140674067 -2.06612894869487
 1  15.06810965616562 -0.59102891729173  0.80701930123012
 1  8.58691054185419  1.80141246844684 -0.62898017521752
 1 -2.67147223142314  4.33131958165817  0.07820365006501
 1 -2.23506227052705  4.01808903370337 -1.54937804690469
 1 -3.90668705380538  4.54986316811681 -1.29125892739274
 1 -2.43738335843584  0.59064127612761  0.12416946234623
 1  6.72496524642464 -1.80514007610761 -0.40519803510351
 1  8.56336155065507 -1.70911563636364 -0.52149292339234
 1  7.65215513711371 -1.60021234963496  1.25922968386839
 1  6.11823697079708  1.77137094249425 -0.30230224992499
 1 -0.61729308630863  2.84757880138014 -0.53528343984398
 1  4.92455844224422 -1.13588008470847 -0.31446876577658
 1 -0.38500742394239 -0.18292010491049 -0.00847823672367
 1  3.94530369826983  1.76286192239224 -0.47173939893989
 1  1.68044491969197  2.25683147504750 -0.09060175857586
 1  1.24470330513051 -1.56854345854585 -0.24459546394640
 1  2.79089041384138 -1.58960526202620 -0.65236300630063
 1  2.43934063046305 -1.41101533053305  1.17345063166317

