%nproc=3
%Mem=2GB
# td=(NStates=1) CAM-B3LYP/6-31G(d,p) 

TD

0 1
<<<<<<< HEAD
 8 -11.81277794539454  0.11175182358236 -1.69862702630263
 8 -12.79237007280728 -2.37929623762376  1.53431911691169
 8  10.64931045094509 -0.93183307120712 -2.13372709900990
 8  14.40476384308431 -0.81165988748875 -0.25151963936394
 6 -11.10162833003300 -0.09321327602760 -0.43456288068807
 6 -11.66189247894789 -1.27971915181518 -1.19215805610561
 6 -11.79243128612861  0.48015469826983  0.81898155315532
 6 -12.95036023972397 -1.85387554545455 -0.89048068206821
 6 -13.18251670967097 -0.02318976657666  0.84006869476948
 6 -13.50291672517252 -1.48879041684168  0.65056382368237
 6 -10.84374996369637 -2.03826924442444 -2.29090140844084
 6 -9.62701214501450  0.13539067286729 -0.51861881998200
 6 -11.05452142954295  0.25206961096110  2.07695276237624
 6 -11.69204958525853  2.01351645474547  0.43135122682268
 6 -8.72679610131013 -0.66279432063206 -0.02769403040304
 6 -7.23539152875288 -0.62654450055005  0.09649735003500
 6 -6.44205822072207 -1.82059074787479  0.58621085738574
 6 -6.61764742644264  0.67155798569857  0.10270171497150
 6 -5.23097303890389  0.93052508920892  0.06703237303730
 6  11.87325657255726  0.02850287978798  1.28687821592159
 6  11.54520181028103 -0.55152130733073 -1.31549542924292
 6  12.71947917601760 -1.26760098979898  1.40582531593159
 6  13.41784647134714 -1.79377391079108  0.14854881928193
 6  12.35627056175617 -1.88972348134814 -1.00452441494149
 6  11.03351023892389  0.08520326822682 -0.04993781348135
 6  11.02589399429943  0.19578622062206  2.60193253345335
 6  12.77964108080808  1.24626784758476  1.24506755775578
 6  12.50960726692669  0.44891376467647 -2.06774072187219
 6 -4.78679517521752  2.21721422742274 -0.21894674357436
 6  9.90559174667467  0.54237504030403 -0.04400557725773
 6 -3.41533669206921  2.58143689738974 -0.30868112881288
 6  8.53124291029103  0.87750408420842 -0.08288262826283
 6 -3.08541022612261  3.98151961146115 -0.65263499559956
 6 -2.35290220532053  1.60275212391239  0.07668513381338
 6  7.42272181468147  0.05807639563956  0.11784260016002
 6  7.67756249274928 -1.39788674077408  0.34135405830583
 6  6.26522787078708  0.65828275857586  0.05040110411041
 6 -0.86606073757376  1.82619174287429 -0.03625180028003
 6  5.03747535033503  0.00675979207921  0.07380874967497
 6  0.07162364136414  0.91035434533453  0.02487338453845
 6  3.86291569926993  0.69151950235024  0.02348487948795
 6  1.47435937673767  1.09958168586859 -0.08029040994099
 6  2.55122302280228  0.21667096679668 -0.02541918401840
 6  2.22799266096610 -1.28104228452845  0.06750534413441
 1 -12.86812861366137 -3.05273825162516 -0.78466369036904
 1 -13.63661888558856 -1.71290527472747 -1.61683813851385
 1 -13.66643444564457  0.48420548934893  1.87531021372137
 1 -13.63006239983998  0.47696282338234  0.01937960356036
 1 -14.58373567766777 -1.83175188858886  0.70911251555156
 1 -10.52956157305731 -3.18029481228123 -1.88226352175217
 1 -11.36499670857086 -2.12816760816082 -3.24324261046105
 1 -9.86402858635864 -1.54762397099710 -2.47823943644364
 1 -9.35810446524652  1.01696382738274 -1.04219802990299
 1 -10.08774010161016  0.61531279537954  2.06764250705070
 1 -11.67311267216722  0.68951565316532  2.97887623772377
 1 -11.04069476317632 -0.80612748924893  2.37400819051905
 1 -12.15283782628263  2.24258038003800 -0.64412119611961
 1 -12.23161940134013  2.66354192969297  1.26979069086909
 1 -10.61174145624562  2.19524011451145  0.39742403590359
 1 -11.77638071057106 -2.38272114571457  1.42909738863886
 1 -9.11713255515552 -1.53960231793179  0.21508060696070
 1 -5.98200764686469 -2.42457578267827 -0.30988903330333
 1 -5.70504291959196 -1.49701493409341  1.18365676187619
 1 -6.99341945254525 -2.64809708270827  0.90366651745175
 1 -7.31241255235524  1.50521885098510  0.17089741324132
 1 -4.45893253795380  0.06804542294229  0.11641786608661
 1  13.40753643074307 -0.99075076247625  2.23126806740674
 1  11.94636981398140 -1.95280466046605  1.75084108380838
 1  13.78712106900690 -2.81636330133013  0.35498242414241
 1  13.08809624812481 -2.04303078157816 -1.89048214291429
 1  11.59606961516152 -2.74713383728373 -0.87750309240924
 1  11.87988759695970 -0.11112074537454  3.35001003970397
 1  10.50526750445044  1.21776733983398  2.78597612181218
 1  10.08167578877888 -0.30154846934693  2.74077031823182
 1  13.79244614651465  0.93649227342734  0.81311537633763
 1  12.28380099329933  2.17793723152315  0.90411511721172
 1  13.17269310641064  1.53142762186219  2.22383886548655
 1  12.54291511101110  0.06185957635764 -3.10955340724072
 1  11.73895096349635  1.31401349224922 -2.19455739063906
 1  13.55262609520952  0.64805085798580 -1.48796428182818
 1 -5.41158338223822  2.93964835163516 -0.38904031483148
 1  9.96923817441744 -0.27007566516652 -2.18940127592759
 1  15.08851169636964 -0.61722153655365  0.61394999429943
 1  8.42731458225823  1.98332065926593 -0.20721799899990
 1 -2.55460054425443  4.51836828652865  0.22760859055906
 1 -2.08234699899990  4.00582780758076 -1.42960606970697
 1 -3.95683206830683  4.59722790459046 -1.04273407490749
 1 -2.58114773487349  0.54779699169917  0.33842088748875
 1  6.95690844074407 -2.22521208330833  0.20346283098310
 1  8.49520473497350 -1.70791551635163 -0.27940871497150
 1  7.97049697129713 -1.58750107850785  1.32292605350535
 1  6.39687483458346  1.74166797219722  0.13416139643964
 1 -0.44406576357636  2.74543858735874 -0.04107401890189
 1  4.94476046244624 -1.13912040874087  0.05888856995700
 1 -0.26035495869587 -0.16263807670767  0.07827043814381
 1  3.83517268516852  1.75001063726373 -0.08542076707671
 1  1.99507638283828  2.23374916681668 -0.16751945034503
 1  1.19219805460546 -1.55152175637564  0.01258025362536
 1  2.66378770357036 -1.63204950645064 -1.02843061306131
 1  2.79511620802080 -1.87855208420842  0.82021530813081
=======
>>>>>>> 6a1b998aacd80a23911c140f266e48a14f2d523d

