%nproc=3
%Mem=2GB
# td=(NStates=1) CAM-B3LYP/6-31G(d,p) 

TD

0 1
<<<<<<< HEAD
 8 -11.77427409500950  0.37445809420942 -1.43154031763176
 8 -12.99141997779778 -2.58888719671967  1.40987667266727
 8  10.55306082598260 -1.11141102900290 -1.99807353365337
 8  14.48168153485349 -0.96439516101610 -0.07994248164816
 6 -11.04113228042804 -0.04378833353335 -0.22099152355236
 6 -11.61948823852385 -1.14670585048505 -1.19184802510251
 6 -11.79319136213621  0.30019670247025  1.02931258625863
 6 -12.96567177087709 -1.73797395529553 -0.90266190019002
 6 -13.21694015201520 -0.15017246484648  0.99233392129213
 6 -13.46239267276728 -1.60090162796280  0.57392615991599
 6 -10.70554614331433 -1.83597901540154 -2.16064838313831
 6 -9.59472891669167  0.17653478727873 -0.34387134523452
 6 -10.99594557195720 -0.25251084708471  2.25785085218522
 6 -11.78829921022102  1.91868697179718  1.08423651535153
 6 -8.70700412211221 -0.69510755195520 -0.00119138013801
 6 -7.25312330193019 -0.47002884898490  0.07653535383538
 6 -6.39973398829883 -1.69591828062806  0.32958519481948
 6 -6.59873553525352  0.72184301420142 -0.23185174037404
 6 -5.21136107770777  0.95932796949695 -0.24221855205521
 6  11.93412265916592  0.03236326582658  1.40068959705971
 6  11.61862915301530 -0.56048220342034 -1.20598447814782
 6  12.61503873197320 -1.33952818251825  1.50958569196920
 6  13.36635132183218 -1.78592312571257  0.28377234163416
 6  12.44070900560056 -1.87501201020102 -0.96169013151315
 6  11.02625951385138 -0.05806105820582  0.07709488978898
 6  11.00744214911491  0.27889453145315  2.67420976117612
 6  12.83854697139714  1.13025624642464  1.36439949094909
 6  12.47926423262326  0.53716258955896 -2.04766871467147
 6 -4.73222971867187  2.20800330633063 -0.48537338623862
 6  9.84110529802980  0.49355015781578  0.05020384368437
 6 -3.30482564096410  2.46825557925793 -0.50647090779078
 6  8.63492327832783  1.01014734853485 -0.16373071307131
 6 -2.82148383348335  3.97591905140514 -0.81280101220122
 6 -2.34659157425743  1.50436228492849 -0.30692322702270
 6  7.44369391189119  0.16542713071307  0.00497131303130
 6  7.56760149664967 -1.25875282738274  0.31592151505151
 6  6.24048539653965  0.81969890019002 -0.21197513351335
 6 -0.97553168466847  1.78308743244324 -0.29974814991499
 6  5.04470607340734  0.17470658675868 -0.03783241444144
 6 -0.01552507350735  0.84244755465547 -0.04240334313431
 6  3.78712812051205  0.76203655405541 -0.26460392939294
 6  1.36945888668867  1.04937666536654 -0.27813019391939
 6  2.42109000950095  0.18428772847285 -0.18253489558956
 6  2.25959582128213 -1.13274745504550  0.34348294189419
 1 -12.88230003080308 -2.83241621942194 -1.10151537553755
 1 -13.68968419211921 -1.27737172137214 -1.61741819651965
 1 -13.64822262446245  0.19423649244925  1.95252793549355
 1 -13.54943433703370  0.47885301240124  0.19928759435944
 1 -14.60147745184518 -1.84003271667167  0.52074367866787
 1 -10.39779839673967 -2.90419720252025 -1.85267056245625
 1 -11.58521873077308 -2.05014980638064 -2.96526481268127
 1 -9.97757994149415 -1.12337154575458 -2.37731934443444
 1 -9.09429808460846  1.12290442144214 -0.73892770287029
 1 -10.06520784838484  0.32717398149815  2.35862160496050
 1 -11.44340970187019  0.15101180278028  3.29356770687069
 1 -10.84603529722972 -1.27078395489549  2.12691348104810
 1 -12.21916445894590  2.15892201420142  0.04493770977098
 1 -12.59699593899390  2.51904748024802  1.83515722752275
 1 -10.79501978407841  2.25155574607461  1.02978727222722
 1 -12.07246031853185 -2.45074794839484  1.37244172307231
 1 -8.93007384928493 -1.72007036473647  0.45350444934493
 1 -5.98545799189919 -2.07032035713571 -0.54564260866087
 1 -5.56712912821282 -1.59322455505551  0.92457085328533
 1 -7.02467257785779 -2.51916418941894  0.86813296409641
 1 -7.30941225232523  1.52791112021202 -0.67686736323632
 1 -4.65832247694769  0.05484410281028 -0.13902767846785
 1  13.39228490559056 -1.23530521792179  2.36362130273027
 1  11.98277345434543 -2.17101648164816  1.72030803050305
 1  13.71156351325132 -2.75012667766777  0.47663458935894
 1  13.20275771427143 -2.02127860636064 -1.94273736843684
 1  11.83562357055706 -2.69022814671467 -1.17089243134313
 1  11.44980458865887  0.27966833353335  3.66808184688469
 1  10.50257723542354  1.20888645174517  2.54600212441244
 1  10.05815343654365 -0.52349066356636  2.64738097929793
 1  13.66170307220722  0.82229085328533  0.59353341814181
 1  12.52109472267227  2.23304274207421  1.34630933663366
 1  13.38347418451845  1.38655313441344  2.36042252385239
 1  13.03409422892289  0.08662205260526 -2.87029948184818
 1  11.56861392979298  1.37129922082208 -2.27937587248725
 1  13.18993982658266  1.01502755565557 -1.35073055845585
 1 -5.22398462236224  3.17305169196920 -0.67261867266727
 1  10.13412466306631 -0.39265792339234 -2.24168650445044
 1  15.10533337853785 -0.79896971137114  0.75371397069707
 1  8.52690454125413  2.07789011621162 -0.53013029022902
 1 -2.08975405960596  4.13657010671067  0.05703153285329
 1 -2.57840660496050  3.83684090889089 -1.98808191729173
 1 -3.68331471657166  4.77458564036404 -0.81084088558856
 1 -2.57799741984198  0.54810702270227 -0.16253920852085
 1  6.68337108700870 -2.06570613271327  0.05421790649065
 1  8.54894010851085 -1.69237396219622 -0.18970974507451
 1  7.85579550115012 -1.48489081748175  1.36202996389639
 1  6.29445459255926  1.84491829722972 -0.39567158685869
 1 -0.73895525252525  2.91151519501950 -0.43324323582358
 1  4.79903588998900 -0.88631512821282  0.62697537863786
 1 -0.39663858705871 -0.16463827672767  0.15079769086909
 1  3.85014418231823  1.90410604680468 -0.38105033003300
 1  1.54232110731073  2.20115590749075 -0.41094379277928
 1  1.17345618041804 -1.28616522072207  0.22163115871587
 1  2.91135246004600 -1.95643194469447 -0.37123489348935
 1  2.50561725812581 -1.37581181018102  1.42924621122112
=======
>>>>>>> 6a1b998aacd80a23911c140f266e48a14f2d523d

