%nproc=3
%Mem=2GB
# td=(NStates=1) CAM-B3LYP/6-31G(d,p) 

TD

0 1
<<<<<<< HEAD
 8 -11.72080874847485  0.10059070747075 -1.58738590219022
 8 -12.86641747754775 -2.37879618761876  1.49523520852085
 8  10.54067958785879 -0.90864075197520 -2.13328705500550
 8  14.48328169486949 -1.12293101460146 -0.38117260466047
 6 -11.11692986018602 -0.09492344704470 -0.27440686508651
 6 -11.67911420112011 -1.30879205910591 -1.16198503880388
 6 -11.96938898189819  0.40608729152915  0.87040669566957
 6 -12.98620382408241 -1.83466362426243 -0.84946658065807
 6 -13.39637809580958 -0.03862130973097  0.79619430733073
 6 -13.59440587408741 -1.58293983178318  0.56302506980698
 6 -10.76725231393139 -2.04642005950595 -2.09074139243924
 6 -9.62047149094909  0.13423055685569 -0.34572153025303
 6 -11.31253723112311  0.14431883588359  2.31356642374237
 6 -11.94820520082008  1.94691979507951  0.81419951165117
 6 -8.64682810451045 -0.74115215641564  0.03284202320232
 6 -7.23202119171917 -0.68603044914491 -0.05454775447545
 6 -6.36323033793379 -1.88099678847885  0.25696793309331
 6 -6.66761242294229  0.59738056795680 -0.19758831403140
 6 -5.27785772737274  0.83403544024402 -0.15390972117212
 6  12.01663090999100 -0.03461343184318  1.32189171727173
 6  11.63995128522852 -0.55869202440244 -1.25477935763576
 6  12.66431365946595 -1.49487371707171  1.41482621602160
 6  13.33757844454446 -1.96248078147815  0.08345230963096
 6  12.34120905560556 -1.85296980598060 -1.05248921142114
 6  11.07176406430643  0.00300504840484  0.08699587988799
 6  11.22462386728673  0.12895953795380  2.53285562576258
 6  13.05087820452045  1.11495471627163  1.26418946994699
 6  12.51623792999300  0.47769664296430 -2.01921586938694
 6 -4.70616711241124  2.06630913691369 -0.42088693759376
 6  9.91711289878988  0.45982678547855  0.16417524082408
 6 -3.24418957735774  2.53508226192619 -0.37742800350035
 6  8.72819260526053  1.01868820262026  0.09269492949295
 6 -3.14222590769077  3.94170563006301 -0.77393712581258
 6 -2.23403031813181  1.57266911561156 -0.22903543824382
 6  7.52309185168517  0.20448103610361  0.21425224112411
 6  7.62298703520352 -1.20611756385639  0.48750867376738
 6  6.29339068706871  0.78752568286829  0.02674873887389
 6 -0.95389952145215  1.90192931663166 -0.22627080218022
 6  5.00533213601360  0.18462757885789  0.18919028782878
 6  0.09660613961396  1.06575988588859 -0.15437454025403
 6  3.79192860056006  0.88236858725873  0.00077260826083
 6  1.42378431923192  1.36755848354835 -0.21577395829583
 6  2.52462036253625  0.47920722042204 -0.03220986308631
 6  2.34997485918592 -0.91589576987699  0.32022061566157
 1 -13.07289909070907 -3.01432441024102 -1.03377860186019
 1 -13.55908113181318 -1.49204318851885 -1.76817327202720
 1 -13.88132593479348  0.15176224502450  1.69749243194319
 1 -13.84521391499150  0.39276440354035 -0.03840617501750
 1 -14.66840414451445 -1.66259497289729  0.55098670297030
 1 -10.44264288118812 -3.15436221902190 -1.82855815121512
 1 -11.09925013391339 -2.02713750515051 -3.25778406460646
 1 -9.73657584108411 -1.64043325192519 -2.32653426592659
 1 -9.12254090889089  0.91520365136514 -0.76447025712571
 1 -10.13413474107411  0.21134239833983  2.00928667146715
 1 -11.55691105200520  0.86700340194019  3.20177852795280
 1 -11.60846153985399 -0.93954083058306  2.73731452115211
 1 -12.34685722822282  2.30377649964997 -0.22356914091409
 1 -12.72952919231923  2.34047962346235  1.56089980178018
 1 -11.02863314541454  2.43684427492749  1.12035632913291
 1 -11.95285835833583 -2.60905377897790  1.06700117901790
 1 -9.04201504340434 -1.70824918261826  0.32827192609261
 1 -6.10712015811581 -2.55404872997300 -0.75376342074207
 1 -5.63880629592959 -1.61259649224923  0.97659605580558
 1 -7.07673778437844 -2.43097537053705  1.21341749254925
 1 -7.30626193729373  1.45698402750275 -0.24644432093209
 1 -4.58968561326133 -0.14886626822682 -0.05310908660866
 1  13.45616129322932 -1.24909659705971  2.28489342994299
 1  11.95056023302330 -2.06672605260526  1.83939993969397
 1  13.57287964486449 -3.16200786578658  0.15405233113311
 1  12.76632407090709 -2.18492497099710 -1.91109420412041
 1  11.36023603180318 -2.50605972987299 -0.84065940804080
 1  12.02131173937394  0.09107947464747  3.47355239393939
 1  10.79780675837584  1.05053061616162  2.61811933613361
 1  10.43214083528353 -0.64755306980698  2.70636687788779
 1  13.95407230913091  0.80344896909691  0.67561162596260
 1  12.59158177137714  2.02534197199720  1.01138584428443
 1  13.44877071417142  1.34625910501050  2.34397087868787
 1  12.75485630513051  0.06572996339634 -3.07105955785579
 1  11.81281835023502  1.39680177107711 -2.22492042694269
 1  13.31589242184218  0.91171722462246 -1.36238172357236
 1 -5.43470569446945  2.87756214301430 -0.53650506130613
 1  10.03883513411341 -0.07154581218122 -2.05084742054205
 1  15.18106095129513 -1.25981579597960  0.39753835313531
 1  8.61208305910591  2.00532285948595 -0.09510678787879
 1 -2.43157824202420  4.70720717041704 -0.21144531483148
 1 -2.62474123842384  4.11132835763576 -1.81509461856186
 1 -4.05012139723972  4.56243442524252 -0.72206200770077
 1 -2.59388900900090  0.55927813981398 -0.26133908850885
 1  6.77949069896990 -1.76372593469347  0.16132861756176
 1  8.57499271377138 -1.58174289908991 -0.03269404350435
 1  7.52709263086309 -1.53743607200720  1.64156791769177
 1  6.23061820892089  1.94612841824182 -0.14671669136914
 1 -0.65785714271427  3.09173321682168 -0.20378028952895
 1  4.95144113051305 -0.82541903860386  0.56556923802380
 1 -0.47582650585058 -0.10407222012201 -0.05277266616662
 1  3.95985515341534  2.05142077827783 -0.32824504950495
 1  1.64033090829083  2.42958875077508 -0.32589528792879
 1  1.33702253705371 -1.27460406460646  0.55591458705871
 1  2.74767609240924 -1.62871917341734 -0.34337210721072
 1  2.97132382878288 -1.06038026702670  1.23684697129713
=======
>>>>>>> 6a1b998aacd80a23911c140f266e48a14f2d523d

