%nproc=3
%Mem=2GB
# td=(NStates=1) CAM-B3LYP/6-31G(d,p) 

TD

0 1
 8 -11.76893356095610  0.32749339773977 -1.48525568916892
 8 -12.69983081888189 -2.67579588758876  1.31870755575558
 8  10.57385290519052 -1.19876976487649 -2.01912563886389
 8  14.48033139983998 -1.26864558605861  0.19554506710671
 6 -11.08093626082608 -0.16351030573057 -0.25508493289329
 6 -11.70207649734973 -1.04612579247925 -1.32034087438744
 6 -11.83931597459746  0.23474015681568  1.06009566456646
 6 -12.95785098879888 -1.78104826272627 -0.91066270027003
 6 -13.34372283028303 -0.23685113271327  1.01783647154715
 6 -13.38728516201620 -1.74771630943094  0.48488725602560
 6 -10.71312690139014 -1.64954037153715 -2.27188950725072
 6 -9.55619506330633  0.11808894269427 -0.22622958105811
 6 -11.10581655905590 -0.29623521952195  2.26381144824482
 6 -11.96347672797280  1.76553165626563  1.07101519321932
 6 -8.63202662436244 -0.90600864206421  0.10383912291229
 6 -7.24380236983698 -0.67462930903090  0.12721042134213
 6 -6.33381739663966 -1.86955564436444  0.65678791509151
 6 -6.59406506820682  0.64619544944494 -0.12016057125713
 6 -5.23092303390339  0.88234027072707 -0.07050138033803
 6  11.89377862476248  0.00199022852285  1.38940846894689
 6  11.64762205230523 -0.71922807800780 -1.21098497819782
 6  12.44195142324232 -1.37830205990599  1.64009874327433
 6  13.23518820552055 -2.02566710011001  0.45825979037904
 6  12.37673260796080 -1.98550305930593 -0.84169813231323
 6  11.11765865376538  0.05609035693569  0.07246442674267
 6  11.03274467936794  0.37556419841984  2.53086542674267
 6  13.05185830253025  1.15150837163716  1.23414646564656
 6  12.59304561076108  0.17307618091809 -2.01449539733973
 6 -4.74082057775778  2.23353585958596 -0.39960480938094
 6  9.90658184568457  0.58561936473647 -0.02470364706471
 6 -3.39437459585959  2.63530228392839 -0.38507876857686
 6  8.62137192319232  0.90778711251125 -0.28677301730173
 6 -3.12800448554856  4.10254171367137 -0.67958769086909
 6 -2.24996191129113  1.67387923662366 -0.23993652835284
 6  7.46275581808181  0.13520410841084 -0.11421060516052
 6  7.54226896339634 -1.24913186528653  0.18611853475348
 6  6.25523687168717  0.88748567886789 -0.22172610861086
 6 -0.96396052755276  2.15660478417842 -0.39619779487949
 6  4.94008561136114  0.32278139423942 -0.09833846504650
 6  0.06597307630763  1.18886219611961 -0.17762686548655
 6  3.79516892459246  1.00361071147115 -0.36505397439744
 6  1.45918785958596  1.44846657435744 -0.45284766566657
 6  2.49818771927193  0.52319161886189 -0.17846448854885
 6  2.26185604730473 -0.85680986128613  0.11705029862986
 1 -12.81103290409041 -2.90094307210721 -1.23959918391839
 1 -13.76086130983098 -1.29554353855385 -1.55491194589459
 1 -13.96019382158216 -0.20420335153515  1.98366104880488
 1 -13.88591798539854  0.39558468556856  0.36604427002700
 1 -14.60851815591559 -1.87200591399140  0.48777038133813
 1 -10.32235085198520 -2.52658944174417 -2.03136843224322
 1 -11.06631684058406 -2.05809060046005 -3.25490377657766
 1 -9.94088627212721 -0.93623283188319 -2.69791140364036
 1 -9.37023567836784  1.16994912591259 -0.49837364746475
 1 -10.15756708430843  0.05207647174717  2.21319706250625
 1 -11.81070643154315 -0.14310760916092  3.23376172627263
 1 -11.14516521022102 -1.42656953345335  2.28285907560756
 1 -12.40243278577858  2.23540966296630  0.15846906290629
 1 -12.41744798419842  2.15464103960396  1.88391210301030
 1 -10.97290757285729  2.26009660016002  1.26645093859386
 1 -11.76741981448145 -2.90430330393039  0.99302378127813
 1 -8.70770161206121 -1.93685204290429  0.45999509840984
 1 -5.51153059915992 -1.90769409450945 -0.17961600600060
 1 -5.71882429772977 -1.43212844544455  1.40151854805481
 1 -6.95984609520952 -2.60828310131013  0.68378452925292
 1 -7.25318662976298  1.44102243134313 -0.29931960846085
 1 -4.60613725842584  0.08593721212121  0.25254147844784
 1  13.16862253935393 -1.41077276467647  2.35790073067307
 1  11.59121429842984 -1.83006238623862  2.13938993869387
 1  13.44472682958296 -3.07534919991999  0.71272819871987
 1  13.00708814731473 -2.21679815831583 -1.63942703740374
 1  11.69688969716972 -2.89611873577358 -0.66868221032103
 1  11.78102771097110  0.55962632933293  3.43405844454445
 1  10.76876385408541  1.45184074717472  2.59411693589359
 1  10.10741836303630 -0.24839315381538  2.65587182838284
 1  13.52081898379838  0.88477710191019  0.32829689448945
 1  12.64780739393939  2.12078151595159  0.94920962666267
 1  13.68856469356936  0.98584306340634  2.13937041864186
 1  12.71049186868687 -0.35848245784579 -2.96568902080208
 1  12.11634870327033  1.05551764266427 -2.24322225712571
 1  13.39692052465247  0.22072812571257 -1.64013949934994
 1 -5.33254547844785  3.04019840664066 -0.69411082188219
 1  9.82726397699770 -0.67072573017302 -2.06839917571757
 1  15.07636048124812 -1.31299111351135  0.96201480078008
 1  8.54006585738574  2.01135346254625 -0.34894217141714
 1 -2.46431151535154  4.32026847654766  0.09234506420642
 1 -2.57184594889489  4.09441666646665 -1.55704881398140
 1 -4.05667205230523  4.71473965576558 -0.55474527602760
 1 -2.53843346344635  0.59079129112911 -0.00302325692569
 1  6.64294704460446 -1.90254981708171 -0.12487000230023
 1  8.52293750825083 -1.72583730853085 -0.28149892399240
 1  7.72542246384639 -1.42781510991099  1.37542130303030
 1  6.35605075217522  1.95850965636564 -0.50447246694670
 1 -0.45847720472047  3.05963000650065 -0.56307621912191
 1  4.67162314871487 -0.58722521922192  0.16679936103610
 1 -0.05553447664766  0.26668485558556  0.24793740484048
 1  3.91069023692369  2.04396003220322 -0.48902112711271
 1  1.52925980118012  2.55945173707371 -0.79568226662666
 1  1.14060289508951 -1.18627523172317  0.22322131773177
 1  2.72485381018102 -1.62511881338134 -0.52785055505551
 1  2.79293598999900 -1.15929015801580  1.06622990959096

