%nproc=3
%Mem=2GB
# td=(NStates=1) CAM-B3LYP/6-31G(d,p) 

TD

0 1
<<<<<<< HEAD
 8 -11.64304097169717  0.06985763416342 -1.64599176277628
 8 -13.21884272007201 -2.37849615761576  1.45648133313331
 8  10.52160768066807 -0.89670955885589 -2.20471419771977
 8  14.47173053975398 -1.11346006750675 -0.24666915431543
 6 -11.06347451465147 -0.15455941064106 -0.35310473487349
 6 -11.54585087478748 -1.33528470837084 -1.31835067536754
 6 -11.86461850485049  0.40990767356736  0.77021667666767
 6 -12.88827403110311 -1.94090424832483 -0.96566820082008
 6 -13.30112857085709  0.02961551395140  0.61888657655766
 6 -13.55637207070707 -1.55951748954895  0.37617638493849
 6 -10.64891047974798 -2.05054047154715 -2.22235455375538
 6 -9.56180562436244  0.04392152595260 -0.37462442054205
 6 -11.19317529492949  0.02321672567257  1.98631369846985
 6 -11.80142052235223  2.03501860496050  0.72601069276928
 6 -8.62331575327533 -0.76193423462346  0.23796253525353
 6 -7.19158714831483 -0.55392723882388  0.29982768306831
 6 -6.28137215211521 -1.77818650745075  0.72553478977898
 6 -6.55872153385338  0.66268709860986  0.09360080488049
 6 -5.27897783938394  0.99585162186219  0.02358802860286
 6  11.99311855875588  0.14067409690969  1.30623015111511
 6  11.66423371347135 -0.55428158335834 -1.34706858655866
 6  12.68126535463546 -1.22928715841584  1.42244697809781
 6  13.25237992469247 -1.91379591299130  0.15930989538954
 6  12.32304723942394 -1.95953046204620 -0.92656661916192
 6  11.17728461636164  0.12355710361036  0.01720890119012
 6  11.00749215411541  0.29941658365837  2.50783312351235
 6  13.02767588428843  1.30490371117112  1.19146219721972
 6  12.53890019621962  0.30097897119712 -2.07645159295930
 6 -4.70555705140514  2.24558706470647 -0.30051490039004
 6  9.99489067656766  0.53346414921492 -0.02522369906991
 6 -3.36712187058706  2.66378513221322 -0.21301156185619
 6  8.68425821182118  0.86940327412741 -0.10714505450545
 6 -3.07269895499550  4.14596605610561 -0.55174490659066
 6 -2.30107702280228  1.69982183088309 -0.12737527222722
 6  7.44585412791279  0.07673826182618  0.06205702160216
 6  7.65041977847785 -1.44720167226723  0.22246216911691
 6  6.27251859985999  0.65827275757576 -0.07713164916492
 6 -0.96080021152115  1.91917104080408 -0.19246742184218
 6  4.93801540434043  0.01094021012101  0.08571994079408
 6  0.02173865286529  0.97251056095610 -0.06054515731573
 6  3.76432584028403  0.77202755315532  0.02292482348235
 6  1.42552449324932  1.20882260996100 -0.02472485338534
 6  2.43272117261726  0.26886618631863  0.12043540144014
 6  2.20860072177218 -1.15191937223722  0.31345993959396
 1 -12.91175297609761 -3.06172915071507 -1.08084330833083
 1 -13.47987321102110 -1.67668165236524 -1.84166062076208
 1 -13.75824362656266  0.06491356015602  1.73537622032203
 1 -13.89323871747175  0.54448957605761 -0.12031436583658
 1 -14.66566387048705 -1.69078779217922  0.50329193349335
 1 -10.31954057095709 -2.84287106990699 -1.60081537693769
 1 -10.98205841474147 -2.21766655805581 -3.21599988618862
 1 -9.71679386288629 -1.57574678327833 -2.19010062256226
 1 -9.18666732153215  0.71517364836484 -1.17737154725473
 1 -10.19276060366037  0.58692995709571  2.25048079087909
 1 -11.65955131603160  0.24237093869387  2.86723507360736
 1 -10.88753944764476 -1.09366624312431  2.06791758145815
 1 -12.00489303180318  2.54995111711171 -0.24949173317332
 1 -12.43149938933893  2.60098567406741  1.55089880168017
 1 -10.65631591369137  2.38833942444244  0.86497079057906
 1 -12.08387145964596 -2.39479235283528  1.51749622852285
 1 -8.82980382228223 -1.71456981468147  0.52004110301030
 1 -5.49557900400040 -2.05410873597360 -0.18365641004100
 1 -5.63861627692769 -1.66086131873187  1.57859625582558
 1 -6.93978408900890 -2.65949822282228  0.78100425122512
 1 -7.37206851795180  1.36932526162616 -0.04072374887489
 1 -4.51435808050805  0.33502212061206  0.40192641694169
 1  13.28519419651965 -1.14456614401440  2.35367030763076
 1  12.03426860386039 -1.98663804380438  1.85878187788779
 1  13.59150150705070 -2.84947661266127  0.31814874077408
 1  12.90018745724572 -2.39382586108611 -1.69793288798880
 1  11.33118312651265 -2.60766989088909 -0.75573091519152
 1  11.63010261846185  0.57394776147615  3.28435347404740
 1  10.18571554925492  1.19791535463546  2.28483600780078
 1  10.51040866206621 -0.57991630613061  2.57720396159616
 1  13.94124102600260  1.08701732593259  0.55411947674767
 1  12.55208782198220  2.39570900870087  1.00009471517152
 1  13.48545438253825  1.22889736883688  2.21266774837484
 1  12.70188100760076 -0.12936954655466 -3.07628007990799
 1  12.03656072447245  1.44195628652865 -2.05679361426143
 1  13.50512134473447  0.72918897179718 -1.77927341274127
 1 -5.31065328922892  3.26437082388239 -0.65924733553355
 1  10.08222947354736 -0.21922057965797 -2.36211854765477
 1  15.03870671587159 -1.20273008740874  0.53273187248725
 1  8.61334318511851  2.03429575677568 -0.33565084228423
 1 -2.71276636083608  4.64566101580158  0.50695652535254
 1 -2.32924168846885  3.96358358315832 -1.28510161926193
 1 -4.02835922102210  4.64264244604460 -1.00717051855185
 1 -2.59436905700570  0.67355956795680 -0.07280023462346
 1  6.70707345724572 -1.93508307040704 -0.15175269056906
 1  8.50181539603960 -1.82334705950595 -0.40322109620962
 1  7.98141806340634 -1.65695802420242  1.23173693459346
 1  6.12543769086909  1.63441724712471 -0.21796381608161
 1 -0.79966132313231  3.01178522202220  0.06439652815282
 1  4.88606459285929 -1.07550404710471  0.08769145024502
 1 -0.26254517771777 -0.05193700660066 -0.07565495439544
 1  3.76221538943894  1.83991962816282 -0.14109633463346
 1  1.71105798099810  2.19219501140114 -0.07604030243024
 1  1.16419525432543 -1.40760736493649  0.32502149774978
 1  2.32400372517252 -1.83688999049905 -0.48816658665867
 1  2.73031972837284 -1.53828805780578  1.24607789438944
=======
>>>>>>> 6a1b998aacd80a23911c140f266e48a14f2d523d

