%nproc=3
%Mem=2GB
# td=(NStates=1) CAM-B3LYP/6-31G(d,p) 

TD

0 1
 8 -11.67177384498450  0.24389503790379 -1.48289545314531
 8 -13.16422725852585 -2.41746005400540  1.47407309230923
 8  10.61173669356936 -1.01654154205421 -2.03821754805481
 8  14.40865423212321 -1.06964568606861 -0.09010349774978
 6 -11.06235440264026 -0.15767972267227 -0.29747917231723
 6 -11.68609489918992 -1.11922310221022 -1.14958379867987
 6 -11.75414745774577  0.30509719251925  1.07653730873087
 6 -13.19044424812481 -1.74058421632163 -0.87177881188119
 6 -13.13613207120712 -0.04315176277628  0.95683037093709
 6 -13.58785521902190 -1.44081561936194  0.44518328562856
 6 -10.86616220492049 -2.03337875537554 -2.10621293959396
 6 -9.56687613141314  0.07925505930593 -0.37968492659266
 6 -11.09756573397340 -0.27591318731873  2.29788485558556
 6 -11.50189056935693  1.79576467956796  1.06334442614261
 6 -8.54128755045505 -0.84500254145415 -0.01821308230823
 6 -7.20929891949195 -0.67903975007501  0.01115881618162
 6 -6.23361737663766 -1.84432312111211  0.19461169746975
 6 -6.60938660036004  0.67021785168517 -0.15678423362336
 6 -5.25034497609761  0.93081511821182 -0.24975930613061
 6  11.93125237213721  0.04161419091909  1.45855538363836
 6  11.61490878097810 -0.61807796299630 -1.17687156685669
 6  12.64063129122912 -1.25674990469047  1.52357709110911
 6  13.33004769146915 -1.90921545494549  0.34677864226423
 6  12.35943087778778 -1.89911442044204 -0.92651661416142
 6  11.10502739063906 -0.03800905300530  0.06656383668367
 6  10.94433583848385  0.24124076607661  2.59935227542754
 6  12.88868198489849  1.25429865066507  1.39416246724672
 6  12.45620192639264  0.51388026132613 -2.00749469726973
 6 -4.73237973367337  2.25993849984998 -0.42304715361536
 6  9.84629581708171  0.48352915571557  0.06214503780378
 6 -3.39208436683668  2.61652040574057 -0.47324758545855
 6  8.64112389838984  0.89592592639264 -0.11161550155016
 6 -2.91557324242424  4.04810627012701 -0.80459019111911
 6 -2.34339125422542  1.72078392709271 -0.20115264996500
 6  7.42229177167717  0.12859344734473 -0.08975815991599
 6  7.64797953445345 -1.31238819091909  0.08690861376138
 6  6.20147149514951  0.72737966826683 -0.20631456745675
 6 -0.90345447694769  1.94373349704970 -0.26792496759676
 6  4.95037664046405  0.07739685578558 -0.00065869706971
 6  0.05966244524452  0.89629293919392 -0.16929603240324
 6  3.78316772447245  0.93615396579658 -0.22504997399740
 6  1.44027596839684  1.19614134183418 -0.30588296919692
 6  2.54760266076608  0.41613091279128 -0.06991363346335
 6  2.30575043674367 -1.06693087338734  0.27448604220422
 1 -13.25570737153715 -2.71101407920792 -1.11162638663866
 1 -13.70477570127013 -1.06851083528353 -1.63662011671167
 1 -13.54997279947995  0.11650871967197  1.91794447714771
 1 -13.65725511911191  0.76742186928693  0.33686135173517
 1 -14.77889519361936 -1.55151386478648  0.46659826412641
 1 -10.65745436233623 -2.97441422422242 -1.54524982038204
 1 -11.44436464536454 -2.38224301570157 -2.90441872807281
 1 -10.00512269576958 -1.60160936953695 -2.29653126562656
 1 -9.59733838863886  0.94994712571257 -0.96569037913791
 1 -9.93178450605060 -0.17434617051705  2.28929467226723
 1 -11.58401376227623  0.27314401600160  3.18819716981698
 1 -11.16021671537154 -1.40622749924992  2.35343613331333
 1 -11.90565310781078  2.30856697869787  0.14092730873087
 1 -11.84583082248225  2.34377995349535  2.07664137593759
 1 -10.32241252335234  2.05104569506951  1.21998629212921
 1 -12.14107718021802 -2.62296517011701  1.46510098899890
 1 -8.93512435433543 -1.96510486818682  0.17737683658366
 1 -5.79819926602660 -2.50297362246225 -0.57988603300330
 1 -5.31860427572757 -1.57601283388339  0.75890428662866
 1 -6.84254436503650 -2.43543581658166  1.00361651245125
 1 -7.11862317341734  1.52269059815982 -0.20206988348835
 1 -4.32314895959596  0.25010362876288  0.13456968126813
 1  13.30000567766777 -1.15494718211821  2.40614555515552
 1  11.88677385438544 -2.00600998099810  1.79762576227623
 1  13.56445880278028 -2.88498016301630  0.44065099099910
 1  12.88228566706671 -2.12630910941094 -1.83945704040404
 1  11.62057206540654 -2.65458458235824 -0.81934727682768
 1  11.53615322352235  0.01732209890989  3.50095513421342
 1  10.85245222292229  1.43501906500650  2.69304682888289
 1  10.15168278947895 -0.35867418191819  2.52474871607161
 1  13.78238514041404  1.06915553975398  0.67270133493349
 1  12.25341795499550  2.30056949474948  1.33959866556656
 1  13.49918575567557  1.44999947904790  2.38503498509851
 1  13.12376319581958 -0.02280889048905 -2.75067751965197
 1  11.77663473187319  1.31955404630463 -2.36493442834283
 1  13.28901973457346  0.86301235413541 -1.48445393079308
 1 -5.49607183108311  3.05388977577758 -0.49384079487949
 1  9.91412266286629 -0.23318197579758 -2.01794413021302
 1  15.08774161936194 -1.18872868726873  0.60668926822682
 1  8.54392624342434  1.98800112731273 -0.22788006520652
 1 -2.32877796199620  4.46918336803680  0.06852268196820
 1 -2.02858162246225  4.10215744054405 -1.58189129822982
 1 -3.65927231233123  4.83614179597960 -0.91045084658466
 1 -2.55258487858786  0.66656886888689  0.27057410281028
 1  6.69992274217422 -1.78286784888489 -0.08859637493749
 1  8.42863807830783 -1.66850157495750 -0.39491026512651
 1  7.90062998459846 -1.37412974137414  1.35151891279128
 1  6.10060520762076  1.69098290369037 -0.46809882958296
 1 -0.55310666766677  2.86408045154515 -0.70914082558256
 1  4.69786577297730 -0.91934843154315  0.13396607770777
 1 -0.48099702290229 -0.10130194309431  0.22741535263526
 1  4.05233440134013  1.98174381058106 -0.12743496849685
 1  1.62897977317732  2.19145493739374 -0.48738143654365
 1  1.31815064986499 -1.30255685988599  0.22777177277728
 1  2.79324064886489 -1.96772307380738 -0.23048081808181
 1  2.60940763716372 -1.03705793479348  1.42650593719372

