%nproc=3
%Mem=2GB
# td=(NStates=1) CAM-B3LYP/6-31G(d,p) 

TD

0 1
 8 -11.87685435303530  0.29625027342734 -1.43275043864386
 8 -13.00385122092209 -2.45661396939694  1.47975366036604
 8  10.55151067096710 -0.93905379327933 -2.07104083038304
 8  14.47280064676468 -0.98614733623362 -0.07337182458246
 6 -11.07647581478148 -0.18138209290929 -0.28235766016602
 6 -11.71484777447745 -1.11140232013201 -1.20357919821982
 6 -11.67912995599560  0.32851953475348  1.10234988998900
 6 -13.03436864056406 -1.63657381528153 -0.79335096909691
 6 -13.15360381838184 -0.01600904850485  1.17897258515852
 6 -13.49005543904391 -1.53403494129413  0.66605537283728
 6 -11.03398898759876 -1.93192861036104 -2.21082340064006
 6 -9.55584502830283  0.02308944274427 -0.49382634073407
 6 -10.90193617101710 -0.31197679367937  2.36034110121012
 6 -11.50058043834383  1.87563266636664  1.10065815751575
 6 -8.61830525222522 -0.84030207140714  0.16462520152015
 6 -7.09614760436044 -0.52943478957896 -0.09300159985999
 6 -6.34833884878488 -1.80462915171517  0.13749598589859
 6 -6.64547020872087  0.63799462936294 -0.25899445464546
 6 -5.18738868046805  0.89434147084708 -0.37273160336034
 6  12.01814106100610 -0.01963193369337  1.33629315741574
 6  11.62129942004201 -0.60862701790179 -1.17521140084008
 6  12.76264349244924 -1.39978420812081  1.57096182958296
 6  13.38488317501750 -1.84760929432943  0.29751371577158
 6  12.28959389408941 -1.97806231523152 -0.83859782228223
 6  11.00877776567657  0.00880562846285  0.07757493779378
 6  11.05676708160816  0.21251789378938  2.62844518471847
 6  12.87149026572657  1.27138035883588  1.44624767576758
 6  12.54047035323532  0.46254512781278 -1.86647059485949
 6 -4.67601409710971  2.17929043504350 -0.47813266216622
 6  9.89757094459446  0.64058486128613  0.07364618791879
 6 -3.40940609900990  2.54905365906591 -0.50547080778078
 6  8.63778356435643  0.98051438523852 -0.02589692969297
 6 -3.00326201130113  4.00497195669567 -0.85346507860786
 6 -2.22362927802780  1.65853770247025 -0.44522705740574
 6  7.39390893339334  0.09736032403240  0.05357617351735
 6  7.58319305580558 -1.30455740784078  0.23012293519352
 6  6.13388473647365  0.73581051135113 -0.15725966196620
 6 -0.91595572707271  2.04360348404840 -0.41146932203220
 6  4.90337193999400  0.08792790889089  0.08241961076108
 6  0.01136761576158  0.91945525542554 -0.27161626442644
 6  3.72274168186819  0.78149850025003 -0.15107257625763
 6  1.39933187398740  1.19588131583158 -0.35426780768077
 6  2.42108000850085  0.32350164986499 -0.05992263436344
 6  2.29953981568157 -1.14360854115412  0.07060565416542
 1 -13.08602040284028 -2.85178815661566 -0.94985020902090
 1 -13.75632085578558 -1.16713069726973 -1.47083353805381
 1 -13.51611941414141  0.27128419721972  2.11629431213121
 1 -13.61371076467647  0.66426155325533  0.27187485308531
 1 -14.59990729482948 -1.43197191059106  0.71455305960596
 1 -10.83862247914791 -3.01072785558556 -1.91688698409841
 1 -11.78734894379438 -1.99019381078108 -3.10472875907591
 1 -10.02758494199420 -1.42830203880388 -2.40442205470547
 1 -9.48136679147915  0.88236036703670 -1.29634344444444
 1 -9.87829915751575  0.01195245934593  2.39714545734573
 1 -11.47904326522652 -0.03295659405941  3.17227557765777
 1 -10.95413610731073 -1.36344322082208  2.13744453415342
 1 -11.88585112761276  2.06295241724172  0.08875209120912
 1 -11.95182142154215  2.38271384688469  2.20424413621362
 1 -10.43684396649665  2.32878346884688  1.31054534803480
 1 -12.03939701220122 -2.65013788738874  1.32032651155116
 1 -8.95389623152315 -1.90927928562856  0.66065516441644
 1 -5.75898534463446 -2.08869219431943 -0.63542158655866
 1 -5.61852426772677 -1.73069830243024  1.09010740694069
 1 -7.02825293589359 -2.43349562256226  0.25754190499050
 1 -7.43229454055405  1.55040336943694 -0.19786946344634
 1 -4.52435908060806  0.07303592199220 -0.17481125682568
 1  13.19428510561056 -1.05722741014101  2.54518945954595
 1  11.92654783178318 -2.10336971697170  1.70377637733773
 1  13.77854021092109 -2.94152581758176  0.29390631653165
 1  12.62865030353035 -2.30132661116112 -1.86297939263926
 1  11.45951595979598 -2.75701482538254 -0.58505384748475
 1  11.65099470767077  0.23191355805581  3.44085912461246
 1  10.61512849054905  1.18781434453445  2.63500102430243
 1  10.14957257845785 -0.51499981448145  2.78913515471547
 1  13.72889979187919  1.34366299049905  0.48847291209121
 1  12.13750636383638  2.19089852765276  1.32459716541654
 1  13.28039387648765  1.34296877597760  2.43039952155215
 1  12.85676649614961  0.21073446384638 -2.90096254815482
 1  11.84025109350935  1.37809990089009 -2.05021295619562
 1  13.38110894349435  0.61684773767377 -1.11802728812881
 1 -5.35211743564356  2.96083046984698 -0.71937334813481
 1  9.96040729132913 -0.18625728332833 -2.35790812661266
 1  15.11113395859586 -1.02931274567457  0.65708430773077
 1  8.42295414621462  1.89460178737874  0.01673439623962
 1 -2.47289237343734  4.34304075377538  0.09530536023602
 1 -2.32788155245525  4.13298052285229 -1.61209431853185
 1 -3.92175856095610  4.52332051385138 -0.99532933443344
 1 -2.23160278037804  0.41841405340534 -0.31641459605961
 1  6.78400115001500 -1.82864242634263  0.38383086778678
 1  8.22833804830483 -1.53961868666867 -0.57089786388639
 1  7.95407532913291 -1.39503183158316  1.28118187908791
 1  6.10813596069607  1.78449225462546 -0.30291231093109
 1 -0.56845820282028  3.06982102560256 -0.44608451995200
 1  4.93617960436044 -0.87301379807981  0.27826050715071
 1 -0.29465838903890 -0.16861867476748 -0.07257464636464
 1  3.79380854875488  1.90437607380738 -0.30310253525353
 1  1.64851172637264  2.23338913081308 -0.40756345474547
 1  1.28798763356336 -1.41663826802680 -0.02703370777078
 1  2.74912623742374 -1.80766706820682 -0.61318908890889
 1  2.61875857225723 -1.51273550255026  1.08785207180718

