%nproc=3
%Mem=2GB
# td=(NStates=1) CAM-B3LYP/6-31G(d,p) 

TD

0 1
 8 -11.52487915551555  0.05363601200120 -1.63295045864586
 8 -13.09325016081608 -2.41641994999500  1.51001668666867
 8  10.45554107400740 -1.05511539943994 -2.08566229252925
 8  14.36238960566057 -1.03921264276428 -0.24759924732473
 6 -10.94888305550555 -0.22498645334533 -0.39666909130913
 6 -11.59503579327933 -1.30120130003000 -1.20894973527353
 6 -11.75455749874988  0.36438312111211  0.85343499849985
 6 -13.06340154385439 -1.91160131803180 -0.99750138413841
 6 -13.22709116711671 -0.06129357695770  0.75762044994499
 6 -13.48079451295130 -1.52583412121212  0.43143191049105
 6 -10.88703429212921 -2.21061647914792 -2.17166948524852
 6 -9.50567001080108 -0.03731659785979 -0.42768972707271
 6 -11.16296227362736 -0.19094469046905  2.23529859695970
 6 -11.63601398169817  1.88411351445145  0.92618070977098
 6 -8.58506192789279 -0.78274631583158  0.13875261426143
 6 -7.13928191779178 -0.50347219331933  0.24068176847685
 6 -6.13949796469647 -1.64288297709771  0.65525776207621
 6 -6.62045770747075  0.78241907180718 -0.04933348854885
 6 -5.22550249184919  1.13004504120412 -0.25231956215622
 6  11.83841308820882 -0.03091306180618  1.31844137223722
 6  11.52318960906091 -0.60706686188619 -1.26260013971397
 6  12.55220244834483 -1.36475070477048  1.43614834823482
 6  13.18932361906191 -1.87294182758276  0.20452441684168
 6  12.23555849054905 -1.92586709570957 -0.89740370287029
 6  11.06494338223822  0.04657940584058  0.01928910921092
 6  11.02055346024602  0.12072871487149  2.60094243444344
 6  12.87297041374137  1.10150337113711  1.34915796679668
 6  12.43796010221022  0.31241011431143 -2.07239118691869
 6 -4.67801429712971  2.29466197219722 -0.50944579347935
 6  9.87459864736474  0.55427623042304  0.03768259155916
 6 -3.30502566096610  2.68331708540854 -0.39727998869887
 6  8.65493527952795  0.97688402220222 -0.19663400340034
 6 -2.95454713981398  4.10256171567157 -0.54385411751175
 6 -2.30291720682068  1.75089693839384 -0.13749628432843
 6  7.39338888138814  0.17967855585559  0.04799561546155
 6  7.71600633713371 -1.30625757785779  0.26281620452045
 6  6.24984633263326  0.81874880518052 -0.06299023502350
 6 -0.83486761826183  2.02024114781478 -0.24110228532853
 6  4.94510611341134  0.20661977807781  0.05970733953395
 6  0.05272175117512  1.01203451335134 -0.05135423822382
 6  3.74715412311231  0.89421977237724 -0.07878534753475
 6  1.43255519631963  1.31214294199420 -0.01854423532353
 6  2.54966286678668  0.37265656535654  0.02951630953095
 6  2.22362222392239 -1.07410159045905  0.29320791439144
 1 -13.09160096089609 -2.95547852565256 -1.16295151915192
 1 -13.76586180988099 -1.25439942414241 -1.64709116381638
 1 -13.76314411661166  0.08332540134013  1.58269095179518
 1 -13.76707610121012  0.53210833793379 -0.00930326472647
 1 -14.59075637973797 -1.75718443184318  0.32882448674868
 1 -10.66352496939694 -3.19423620642064 -1.73706900230023
 1 -11.45636584548455 -2.56883167456746 -2.93561184738474
 1 -10.07545972947295 -1.48475768436844 -2.55443705620562
 1 -9.22469112391239  0.68257038803880 -1.17452126222622
 1 -9.99655098269827 -0.03345208110811  2.13917966076608
 1 -11.58948430933093  0.35932263386339  2.99970832093209
 1 -11.34746544024402 -1.24719159565957  2.48001879157916
 1 -11.60155269776978  2.37765388738874 -0.12598938293829
 1 -12.55074131353135  2.31368694419442  1.65263897569757
 1 -10.59316959905991  2.08210880138014  1.51162545604560
 1 -12.20278335083508 -2.78129100270027  1.32067654655466
 1 -8.86730757265727 -1.74395275297530  0.53765286418642
 1 -5.65277472357236 -2.06066939203920 -0.38267631203120
 1 -5.35912832813281 -1.01004623722372  1.18331672787279
 1 -6.71026113671367 -2.49113138613861  1.05044119491949
 1 -7.41872318341834  1.42387071617162 -0.23220289678968
 1 -4.66024266896690  0.12390100850085 -0.08496227192719
 1  13.45547122422242 -1.20247193459346  2.13236817741774
 1  11.70324550155016 -2.00878025802580  1.71827782748275
 1  13.81949430633063 -2.78897056205621  0.30538746464646
 1  12.59065650415041 -2.37195367386739 -1.87888098279828
 1  11.45936594479448 -2.60119924382438 -0.53781912401240
 1  11.79353896209621  0.15238560526053  3.48708374707471
 1  10.48889586728673  1.02210777387739  2.47724524872487
 1  10.29062668386839 -0.60326864136414  2.56617285848585
 1  13.63091999389939  1.07063568776878  0.40850491529153
 1  12.36636925012501  2.17516695449545  1.40088479417942
 1  13.56544238133813  1.07992247134714  2.26835331693169
 1  12.48486930643064 -0.21551816141614 -3.19713216511651
 1  12.07214428282828  1.31375346624662 -2.37475541044104
 1  13.49467029962996  0.44669072197220 -1.51075656105611
 1 -5.41780400430043  3.08024241104110 -0.87330874167417
 1  9.87006825742574 -0.38013667126713 -2.30792312811281
 1  15.02229507470747 -1.04523433783378  0.48875747504750
 1  8.45107695849585  2.10799312651265 -0.51675895309531
 1 -2.49995507970797  4.51457790749075  0.33201903160316
 1 -2.41152991729173  4.16781400620062 -1.51811492059206
 1 -3.64311069616962  4.75833401520152 -0.75568537003700
 1 -2.38137775787579  0.69844205620562  0.02481952735273
 1  6.92865561546155 -2.00653021512151 -0.22969048434843
 1  8.59072428692869 -1.65544026882688 -0.34869564366437
 1  7.87687760936094 -1.52868519691969  1.37414117501750
 1  6.42478762586259  2.04563836923692 -0.23542556225623
 1 -0.31729308630863  2.90281432493249 -0.35600551205121
 1  5.00542652905291 -0.87500399709971 -0.13248056695670
 1 -0.23642256545655 -0.00589240214021 -0.08205559445945
 1  3.98841800970097  2.00268590479048 -0.01573379837984
 1  1.61269814501450  2.45825161706171 -0.40579327772777
 1  1.16060489528953 -1.41702830703070  0.54119311491149
 1  2.65099642444244 -2.00383668516852 -0.59781755175518
 1  2.80975767216722 -1.37801203020302  1.23103639023902

