%nproc=3
%Mem=2GB
# td=(NStates=1) CAM-B3LYP/6-31G(d,p) 

TD

0 1
<<<<<<< HEAD
 8 -11.78612528012801  0.14666531493149 -1.51154831843184
 8 -13.00958179397940 -2.48377668566857  1.55916160116012
 8  10.64505002490249 -1.07027691559156 -2.10508423472347
 8  14.51215458215822 -1.08086680818082  0.01126663926393
 6 -10.98349651685169 -0.17250120482048 -0.32077150155015
 6 -11.58626491619162 -1.18361954185419 -1.14970381068107
 6 -11.69596163916392  0.35806248904890  0.98524817981798
 6 -12.89504470817082 -1.82421257915792 -0.77233886788679
 6 -13.18508696669667 -0.16476392399240  0.88623331123112
 6 -13.47825425892589 -1.58860039783978  0.59205797309731
 6 -10.90188577727773 -2.04651006850685 -2.13105542384238
 6 -9.51731117491749  0.25844297809781 -0.43668062616262
 6 -10.99328530593059 -0.07562315831583  2.34357942504250
 6 -11.75717609790979  1.95048015111511  0.94701279297930
 6 -8.65281870357036 -0.73800184138414  0.01107984698470
 6 -7.21179916951695 -0.61208305440544 -0.04223652335234
 6 -6.44339835473547 -1.88706739553955  0.24514675097510
 6 -6.65258091979198  0.69277010691069 -0.11144970017002
 6 -5.26061600320032  0.89490152685269 -0.26759108930893
 6  11.90427967486749 -0.07485745624562  1.39086861496150
 6  11.62037932803280 -0.54946110131013 -1.18837271697170
 6  12.63836106420642 -1.38679290899090  1.63064779817982
 6  13.34170885758576 -1.81702623602360  0.33172713711371
 6  12.49306424112411 -1.83679818881888 -0.82551651415142
 6  11.00077696559656 -0.03325857795780  0.12088926922692
 6  10.95192659755976  0.11669831183118  2.59980232043204
 6  12.85756887358736  1.16336955775578  1.44146719771977
 6  12.55140144634463  0.49008788208821 -2.02522647044704
 6 -4.72596909260926  2.19105161116112 -0.26562141104110
 6  9.88076926442644  0.38632943574357  0.01461028432843
 6 -3.39238439683968  2.57071582528253 -0.36632689338934
 6  8.66477626362636  0.95914224802480 -0.24133847384738
 6 -3.12256394149415  4.04773623312331 -0.71094082618262
 6 -2.29903681878188  1.70704255295530 -0.30202273697370
 6  7.40973051555155  0.09203979197920 -0.05041422552255
 6  7.51597633413341 -1.35484243634363 -0.01247132423242
 6  6.20561190919092  0.75437236753675 -0.12646658265827
 6 -0.97040117161716  1.98537766146615 -0.28016619171917
 6  4.93764536733673  0.20507962406241  0.00366173497350
 6  0.06095257425743  1.00134344424442 -0.12223132593259
 6  3.77919732743274  1.06809716011601 -0.23272074107411
 6  1.41702364316432  1.31806353405341 -0.31831421232123
 6  2.50581848234823  0.50425972567257 -0.12331897399740
 6  2.37532739443944 -1.07305148544854  0.09246784038404
 1 -12.88174997579758 -2.96599957775778 -0.87792301630163
 1 -13.64110933463346 -1.54880886508651 -1.52217867256726
 1 -13.53613141534153  0.27977504630463  1.93617630033003
 1 -13.78715810941094  0.46718184528453  0.18795646124612
 1 -14.65687299139914 -1.82844155755576  0.46274787908791
 1 -10.55852446934693 -2.96360314311431 -1.76747204260426
 1 -11.43495370427043 -2.17315210661066 -3.15320360656066
 1 -9.98467065056506 -1.45335454405441 -2.28446005850585
 1 -9.24050270507051  1.06171830283028 -0.78713252335234
 1 -10.00160148774878  0.62979424352435  2.69030477327733
 1 -11.72987834873487 -0.08696199459946  3.13123147324732
 1 -10.75150584428443 -1.26408328482848  2.42027281698170
 1 -12.13623616611661  2.30105622762276  0.01078429442944
 1 -12.49896613601360  2.18847442294229  1.82530624242424
 1 -10.86227650975098  2.24989558005801  0.82901719521952
 1 -11.90828390089009 -2.37673054665466  1.51322580148015
 1 -9.07040788268827 -1.70408876657666  0.19365846474648
 1 -5.95991543764376 -2.37213053815382 -0.63115115951595
 1 -5.49578199349935 -1.65238047064706  0.92558095429543
 1 -7.13704381498150 -2.73436570957096  0.53507965876588
 1 -7.36940825192519  1.32072040114011 -0.31658133463346
 1 -4.62803944864486 -0.03279466106611 -0.24314809050905
 1  13.31720739783978 -1.29920160756076  2.40263520412041
 1  11.79410458745875 -2.13207258725873  1.59835583528353
 1  13.54536689358936 -2.83247491249125  0.54573149904991
 1  13.09656709520952 -2.31960843934393 -1.71864495919592
 1  11.79070907910791 -2.51612073597360 -0.58043338543854
 1  11.53761336953695  0.10220058675868  3.51759679837984
 1  10.41559853755376  1.20178574167417  2.57043456765677
 1  10.18935655685569 -0.57556587108711  2.68972521372137
 1  13.74070097199720  1.00208883308331  0.70544460926093
 1  12.39486209940994  2.08912835063506  1.34713941964196
 1  13.13823966106611  1.22875735483548  2.49211569316932
 1  12.78765958545855 -0.15056166576658 -2.93241569346935
 1  11.91484855325533  1.19323141404140 -2.39130706560656
 1  13.60135096769677  0.65241129402940 -1.59850533593359
 1 -5.35791801570157  2.96932131893189 -0.64285569636964
 1  10.05871712231223 -0.42430108770877 -1.94769710551055
 1  15.03313615881588 -1.03779359375938  0.75698429772977
 1  8.62865471627163  2.13216554375437 -0.46474375157516
 1 -2.66759184338434  4.77892434213421  0.21303713341334
 1 -2.28669743404340  4.24640186498650 -1.54867797689769
 1 -3.97683406850685  4.50611879367937 -1.07908771027103
 1 -2.49845946604660  0.64340655265527 -0.05530848544855
 1  6.54833758365837 -1.83075263736374 -0.02688020332033
 1  8.09175438993899 -1.86477120192019 -0.76489726382638
 1  7.91291121272127 -1.65855818421842  0.92237599849985
 1  6.19832497959796  1.83103690909091 -0.29992201190119
 1 -0.49036039303930  2.99852389588959 -0.46481639313931
 1  4.90673666006601 -0.81270776747675  0.56179886098610
 1 -0.10012893609361  0.03092127922792  0.30433304440444
 1  4.04812398029803  2.14415005120512 -0.11443366836684
 1  1.62810968616862  2.26934272617262 -0.38789148754875
 1  1.38495733053305 -1.23934053825383  0.02491148674867
 1  2.82937426222622 -1.60557685918592 -0.67815558555856
 1  2.82012870927093 -1.43737796679668  1.05112839943994
=======
>>>>>>> 6a1b998aacd80a23911c140f266e48a14f2d523d

