%nproc=3
%Mem=2GB
# td=(NStates=1) CAM-B3LYP/6-31G(d,p) 

TD

0 1
<<<<<<< HEAD
 8 -11.70651731933193  0.28232888128813 -1.59845700930093
 8 -13.08470930673067 -2.48920722872287  1.38889457445745
 8  10.71190671057106 -1.17760764866487 -2.16254998129813
 8  14.58338170487049 -0.86181490299030  0.00085559815982
 6 -11.05199336653665 -0.18530248494849 -0.36892631703170
 6 -11.65195148484848 -1.09927110701070 -1.24835367566757
 6 -11.89895193819382  0.52216889968997  0.93311296629663
 6 -12.96459166286629 -1.78296845474547 -1.00599223322332
 6 -13.31246970497050 -0.11303875147515  0.90836552445245
 6 -13.54717115061506 -1.50134167196720  0.44335310261026
 6 -10.79674526322632 -1.82983840134013 -2.25560787908791
 6 -9.58583802760276  0.06229336313631 -0.26506346444644
 6 -11.25542151955195  0.02845724972497  2.37147221432143
 6 -11.80027040734073  2.00330543364336  0.84066215791579
 6 -8.60544396609661 -0.74585262646265  0.08083682268227
 6 -7.24814280388039 -0.54569641574157  0.19342704300430
 6 -6.44708872377238 -1.73647233603360  0.53594583088309
 6 -6.63748941064106  0.70623145304530 -0.01782033723372
 6 -5.26171611321132  0.95178721542154 -0.09414374457446
 6  11.87030627752775  0.20810083958396  1.26432596069607
 6  11.74206149624963 -0.61343749894990 -1.22630651035104
 6  12.74094132223222 -1.11088531823182  1.57640237363736
 6  13.45193988068807 -1.65486001940194  0.31434539893989
 6  12.43674860956096 -1.84922943194319 -0.81319528202820
 6  11.14215110301030  0.01603635153515  0.00996817711771
 6  10.84568597349735  0.29647628962896  2.45702804300430
 6  12.94063718041804  1.42097531833183  1.26402945394539
 6  12.60333663986399  0.36348522182218 -2.04743869166917
 6 -4.74473096879688  2.18355086108611 -0.34998984788479
 6  9.85279646714672  0.45513631643164 -0.08013919061906
 6 -3.41641680008001  2.55330408410841 -0.33299356005601
 6  8.59718950495049  0.87215354915492 -0.22637697769777
 6 -3.10882256735674  3.98153961346135 -0.39756948904891
 6 -2.34311122622262  1.65752760146015 -0.24898743344334
 6  7.49317886038604  0.03971455945595 -0.06522570667067
 6  7.68980371687169 -1.37003395549555  0.09155907880788
 6  6.18801014901490  0.51831876217622 -0.13795773177318
 6 -0.92463659515952  1.77593671737174 -0.17801597669767
 6  4.99894149694970 -0.15377626152615 -0.13743237443744
 6  0.10040651965197  0.80934424432443 -0.02963206600660
 6  3.88463787148715  0.70446079647965 -0.15458292729273
 6  1.37095903670367  1.08346007370737 -0.17227960886089
 6  2.50251815231523  0.24126342604260 -0.08497513961396
 6  2.34385424712471 -1.25945012531253  0.22459105270527
 1 -12.95077687848785 -2.82210518831883 -1.23101832583258
 1 -13.64316954065407 -1.48002198639864 -1.76526298099810
 1 -13.88629643184318 -0.08057098829883  1.98405108780878
 1 -13.84606400000000  0.54214934203420  0.15218288388839
 1 -14.61788909300930 -1.65892460586059  0.35044664896490
 1 -10.75450406730673 -2.82029881268127 -1.78752404780478
 1 -11.12600280918092 -1.95566035743574 -3.38052633883388
 1 -9.86421860536054 -1.24164337293729 -2.37301891439144
 1 -9.37661631643164  1.12436456745675 -0.62638644874487
 1 -10.22719404700470  0.45763702780278  2.39982572537254
 1 -11.78510387128713  0.23724042564256  3.25950430053005
 1 -11.18513920762076 -1.15300217671767  2.22662345204520
 1 -11.72799534203420  2.05875199719972 -0.41075785978598
 1 -12.41651789118912  2.42788836433643  1.59148286008601
 1 -10.91267154925493  2.14950554105411  1.16924121762176
 1 -12.11643471597160 -2.49518239183918  1.36799127802780
 1 -9.03586442834283 -1.74098245594559  0.14269336823682
 1 -5.53062250835083 -1.99193251835184 -0.23377142154215
 1 -5.88497091239124 -1.66450168276828  1.57397579377938
 1 -6.85300541114111 -2.73102537553755  0.87524367516752
 1 -7.24757606870687  1.69442777187719 -0.14731440794079
 1 -4.56619326402640  0.28075669406941  0.13711993629363
 1  13.51846752385238 -1.02565425282528  2.36168110871087
 1  12.12861803880388 -2.01899127912791  1.92294829452945
 1  13.77160951785179 -2.59073073807381  0.58807573347335
 1  13.13488092659266 -2.23499997849785 -1.48726182088209
 1  11.72978298649865 -2.62899202310231 -0.43467880998100
 1  11.33149275747575  0.31076144284428  3.39793483218322
 1  10.31311828952895  1.33438900200020  2.45233275747575
 1  10.00314793599360 -0.43564187868787  2.48416465766577
 1  13.87446434833483  1.38079670387039  0.62196626142614
 1  12.28642125532553  2.26356579437944  0.80574528022802
 1  13.16937277437744  1.60765524462446  2.36961344294429
 1  12.90387120662066 -0.10949755935594 -3.01551400330033
 1  12.06067313571357  1.40188227912791 -2.09993792869287
 1  13.47802863546355  0.54480053295330 -1.47386287168717
 1 -5.55599782368237  2.99050343714371 -0.52409382018202
 1  10.01707295789579 -0.53558221582158 -2.03377571337134
 1  15.24538738393839 -0.89983979837984  0.84163276257626
 1  8.37664951575158  1.87864019121912 -0.42627990519052
 1 -2.41878696289629  4.23450990069007  0.38088391809181
 1 -2.54853361766177  4.30948817361736 -1.40561367046705
 1 -4.00694707980798  4.39232741454145 -0.38636843834383
 1 -2.39202882298230  0.41047325932593 -0.34845780038004
 1  6.68127087698770 -1.92552211431143  0.44575706040604
 1  8.33799901440144 -1.97645237003700 -0.79206998109811
 1  8.34824474607461 -1.55900822922292  1.05632939383938
 1  5.99947509460946  1.70514431983198 -0.31741376107611
 1 -0.50488184518452  2.87383142664266  0.10726081458146
 1  4.96570255665567 -1.24891138783878 -0.21886920582058
 1 -0.18373729692969 -0.31495330823082  0.05085769686969
 1  4.08227739563956  1.72017765396540 -0.23686591159116
 1  1.58465534073407  2.18508430033003 -0.31914461286129
 1  1.32123095789579 -1.38586519071907  0.64778377397740
 1  2.57813913871387 -1.89631593309331 -0.72074984498450
 1  2.90139683608361 -1.58908313731373  1.08365165176518
=======
>>>>>>> 6a1b998aacd80a23911c140f266e48a14f2d523d

