%nproc=3
%Mem=2GB
# td=(NStates=1) CAM-B3LYP/6-31G(d,p) 

TD

0 1
<<<<<<< HEAD
 8 -11.57591425902590  0.24701534993499 -1.62749991359136
 8 -13.10992182798280 -2.42349065706571  1.19933561856186
 8  10.49001452135214 -1.19795968386839 -2.07716144244424
 8  14.44685805250525 -0.94987370887089 -0.23518800620062
 6 -10.96897506470647 -0.08210216491649 -0.40520994539454
 6 -11.54690097979798 -1.20753193309331 -1.25945478577858
 6 -11.80741278427843  0.39798648144814  0.90326998199820
 6 -12.91157636133613 -1.78428858675868 -1.10968260226023
 6 -13.32276073407341 -0.09331677927793  0.73727841574157
 6 -13.54162059555956 -1.49149068686869  0.28206697399740
 6 -10.72539812851285 -1.91756717421742 -2.18082040034003
 6 -9.49957940174017  0.09409654345435 -0.38377533563356
 6 -11.23633961136114 -0.16387198319832  2.23469853695370
 6 -11.67500788108811  1.88937404050405  0.86825491719172
 6 -8.64168759045905 -0.80920896209621  0.23392213121312
 6 -7.23437142674267 -0.53187503360336  0.31894959525953
 6 -6.33868788368837 -1.75212390119012  0.65856809310931
 6 -6.56385204690469  0.61079190909091  0.05348679347935
 6 -5.19448939053905  0.90116215291529 -0.02353668386839
 6  11.95613486038604  0.17255728522852  1.24199372747275
 6  11.53713100320032 -0.68240439563956 -1.30130401010101
 6  12.67022425052505 -1.22854708440844  1.37468220162016
 6  13.38108279497950 -1.79169370277028  0.21684564896490
 6  12.36168110281028 -1.86790129912991 -0.85565952845285
 6  11.06549343724372  0.13328807670767 -0.04160698039804
 6  11.17111851675167  0.42404904690469  2.50721306150615
 6  13.06080919761976  1.27504072487249  1.06629968096810
 6  12.51262756895690  0.27208608190819 -2.22183613141314
 6 -4.70306680238024  2.13424593059306 -0.21202605150515
 6  9.87649883738374  0.45355615841584 -0.10059123582358
 6 -3.40572573097310  2.60251900560056 -0.41505176587659
 6  8.63949373537354  0.92323865766577 -0.16464080408041
 6 -3.14537622272227  3.96939839933993 -0.67733746584658
 6 -2.33867078217822  1.63468531723172 -0.16273880858086
 6  7.42802234473447  0.03202379037904  0.14044486038604
 6  7.69849458595860 -1.38741569366937  0.47770769366937
 6  6.20368171617162  0.61793872417242  0.03955001900190
 6 -0.93674780628063  1.96943606730673 -0.10140831593159
 6  4.88537013981398 -0.00495137903790  0.06704807360736
 6  0.04838131713171  1.03378668856886 -0.00271937473747
 6  3.74064347204720  0.83703405380538 -0.01610907990799
 6  1.41789373017302  1.30205193289329 -0.05845822672267
 6  2.45030293079308  0.37286658635864  0.05525888378838
 6  2.08134799649965 -1.12675685598560  0.32284087768777
 1 -13.09903170397040 -2.83861683948395 -1.45596082008201
 1 -13.50819604330433 -1.38201218541854 -1.88876533123312
 1 -14.06508431063106  0.04966203500350  1.54211689438944
 1 -13.68412780638064  0.51818694579458  0.15777344294429
 1 -14.70185748984898 -1.64625333873387  0.39596120042004
 1 -10.18456707360736 -2.86192297509751 -1.69878517391739
 1 -11.50631083998400 -2.07676246764677 -2.93198148434843
 1 -9.79925210871087 -1.44262347094709 -2.77723933643364
 1 -9.05446410121012  1.04239637063706 -0.71893570367037
 1 -10.14773610121012 -0.01163989988999  2.37156289908991
 1 -11.62564792569257  0.26753345494549  3.04511286138614
 1 -11.42281297499750 -1.15468234473447  2.26877766746675
 1 -11.91369391189119  2.36972309430943  0.07544076007601
 1 -12.19258549794979  2.31098667416742  1.66552026382638
 1 -10.63398368046805  2.15068565906591  1.15563985748575
 1 -12.17667073957396 -2.51299417301730  1.01325580448045
 1 -8.82824366626663 -1.94723308100810  0.60768986788679
 1 -5.49614906100610 -2.05833915901590  0.01061301690169
 1 -5.79905232053205 -1.70338557115712  1.63765216141614
 1 -7.00538064866487 -2.57743001600160  0.67300345114511
 1 -7.19147045814581  1.56215454455446 -0.16720639713971
 1 -4.42952959765976  0.20213883228323  0.01868809310931
 1  13.35802147924793 -0.95679736713671  2.32859780038004
 1  12.08611378837884 -1.85925530553055  1.69149514921492
 1  13.78483083998400 -2.93764542954295  0.44883180908091
 1  12.96229366786679 -2.18351482998300 -1.78601169586959
 1  11.66217622582258 -2.76192531643164 -0.66666200830083
 1  11.81489109730973  0.20007037373737  3.48748378707871
 1  10.88184516221622  1.44803036613661  2.56572409660966
 1  10.35474309550955 -0.26833514801480  2.57738397959796
 1  13.72660956285629  1.36625524972497  0.04330839563956
 1  12.40685329852985  2.25862530033003  1.04871957765777
 1  13.88139397649765  1.18441292039204  1.90818730033003
 1  12.87618843834383 -0.55387199679968 -2.91221367326733
 1  12.13625069346935  1.24755684658466 -2.50023795869587
 1  13.58559939253925  0.42792884578458 -1.86233171857186
 1 -5.47576980088009  2.93509789658966 -0.35029644044404
 1  9.99588083868387 -0.43500215781578 -2.26023835963596
 1  15.22376522172217 -0.91970178457846  0.37375597489749
 1  8.35907775857586  1.88486081328133 -0.45532280948095
 1 -2.62239732393239  4.33083953365337  0.16978280798080
 1 -2.24046281058106  4.13278050285028 -1.37966107520752
 1 -3.83015940104010  4.51404958675868 -0.87906770827083
 1 -2.62655227532753  0.48645085708571 -0.06770972557256
 1  6.96822957285729 -2.08565812791279  0.39218170287029
 1  8.47837305180518 -1.81300602540254 -0.15612638673867
 1  8.13088300990099 -1.15874820322032  1.62252601350135
 1  6.13021816891689  1.68615242064206 -0.08981100080008
 1 -0.66136749374938  3.07624166766677 -0.26796670817082
 1  4.84584057045705 -1.15996249294929  0.23790647174717
 1 -0.43508243144314  0.13884207130713  0.31785439653965
 1  3.81028019591959  1.81745738193819 -0.28042026702670
 1  1.76826370157016  2.24474026592659 -0.44619731813181
 1  0.97690652545254 -1.50901750595060 -0.02443344774477
 1  2.66118744354435 -1.92059836133613 -0.20861863186319
 1  2.30205690209021 -1.63252748174818  1.30104339093909
=======
>>>>>>> 6a1b998aacd80a23911c140f266e48a14f2d523d

