%nproc=3
%Mem=2GB
# td=(NStates=1) CAM-B3LYP/6-31G(d,p) 

TD

0 1
<<<<<<< HEAD
 8 -11.64385105270527  0.15616626502650 -1.58346551015101
 8 -13.08146898269827 -2.45815412341234  1.39287497249725
 8  10.65997151705171 -1.13429331723172 -2.06638036433643
 8  14.54277764446445 -1.01484020552055 -0.17886237363736
 6 -11.04136230343034 -0.12974692939294 -0.31172059645965
 6 -11.58567485718572 -1.23733491339134 -1.23038187848785
 6 -11.74250629362936  0.34999168196820  0.96583623862386
 6 -12.95348055175518 -1.82306246414641 -0.95410704470447
 6 -13.35459391739174 -0.04047149474948  0.81672636053605
 6 -13.54906133963396 -1.48177971577158  0.33500226752675
 6 -10.76197178587859 -2.11384680218022 -2.16197851615162
 6 -9.60497994179418  0.10258739253925 -0.39787674577458
 6 -11.16000197759776 -0.25209080508051  2.21897696479648
 6 -11.66943732403240  1.85452055515552  0.89749784148415
 6 -8.60363378507851 -0.71997003820382  0.08990772977298
 6 -7.11355934553455 -0.58111995809581  0.19118681898190
 6 -6.26838085298530 -1.72990167896790  0.53209544584458
 6 -6.53442910461046  0.65172600250025 -0.06318487368737
 6 -5.16737667926793  0.96594863156316  0.07076274607461
 6  11.87801704860486  0.03759378887889  1.34168369646965
 6  11.62070936103610 -0.68455461066107 -1.26782066176618
 6  12.64307153525353 -1.25814004370437  1.45025975937594
 6  13.44186887358736 -1.84865939933993  0.18729269366937
 6  12.49241417611761 -1.86743125212521 -0.85972993549355
 6  11.02849973787379  0.03376812471247  0.07153433373337
 6  10.94952635753575  0.13863050505051  2.53412575277528
 6  12.77056017271727  1.25894911571157  1.36616966796680
 6  12.55040134633463  0.28488736203620 -2.08688263606361
 6 -4.62700919661966  2.16549905590559 -0.29159400830083
 6  9.85671685918592  0.49176997979798  0.06379520282028
 6 -3.33660881928193  2.64463321702170 -0.40035029572957
 6  8.56712649864986  0.88228456225623 -0.21829616961696
 6 -2.98341002610261  4.11235269476948 -0.70252998509851
 6 -2.34990190529053  1.63745559425943 -0.16713924862486
 6  7.33614315681568  0.08250883888389 -0.03730291439144
 6  7.54089882638264 -1.35255220732073  0.27861778467847
 6  6.18957030503050  0.76338326862686 -0.14849878587859
 6 -0.94504863636364  1.87611673537354 -0.27464563966397
 6  4.91518312111211  0.18096721282128  0.03452482128213
 6  0.01192767176718  0.99225253515352 -0.11327042984298
 6  3.75143455115512  0.93356370677068 -0.13392086108611
 6  1.41042298309831  1.34050577827783 -0.20241262216222
 6  2.45850375087509  0.49680898059806  0.05325868376838
 6  2.31874173587359 -1.00065424572457  0.20503909750975
 1 -12.74525632643264 -2.82435541334133 -0.96258148214822
 1 -13.60221544524452 -1.42931691589159 -1.82106856155616
 1 -13.69880768296830  0.19236630543054  1.94515719841984
 1 -13.83132252585258  0.77112223932393  0.15405307090709
 1 -14.52468977307731 -1.54997371077108  0.39671127542754
 1 -10.47014563146315 -3.06784356715672 -1.58122341774177
 1 -11.21758196709671 -2.16097088848885 -3.08638692489249
 1 -9.97336952045205 -1.31596080468047 -2.42103371587159
 1 -9.25708436323632  1.04809694069407 -0.80959476957696
 1 -10.18787011461146  0.10669193329333  2.32010775357536
 1 -11.91311667256726  0.14928162976298  3.04373272337234
 1 -11.33621431513151 -1.36796367286729  2.35658644834483
 1 -11.92210475297530  2.45071119311931 -0.06325310931093
 1 -12.29331557095709  2.29607518301830  1.70054376617662
 1 -10.55451573367337  2.13651424192419  1.16884117761776
 1 -12.04611768426843 -2.08248112171217  1.40544502340234
 1 -8.80381122302230 -1.72054041174117  0.62299139803980
 1 -5.68742818891889 -2.15528885398540 -0.40637868226823
 1 -5.45535795109511 -1.41274650725073  1.29791818801880
 1 -6.78705881648165 -2.71687396039604  0.97699385018502
 1 -7.25208651975197  1.46462479157916 -0.14464414091409
 1 -4.43604024872487  0.21790040844084  0.10295651995200
 1  13.28024370147015 -1.07327901530153  2.26530147074708
 1  11.99896507350735 -2.02395177517752  1.78913491319132
 1  13.49609196609661 -2.82823448844885  0.63014994089409
 1  12.96980441894189 -2.19432591109111 -1.74266736143614
 1  11.60049005720572 -2.61289041294129 -0.58270361246125
 1  11.34427403560356 -0.00876050935093  3.49017405610561
 1  10.31170814851485  1.06935249834984  2.29274679887989
 1  10.02684030523052 -0.68138645314531  2.35992223342334
 1  13.29442634453445  1.18786741094109  0.38828289308931
 1  12.09041165436544  1.95213465126513  1.50124483018302
 1  13.67632346944694  1.23182766186619  2.02268875047505
 1  12.70416123562356 -0.27140374997500 -3.04788724062406
 1  12.01477854625463  1.19680177107711 -2.59460739563956
 1  13.43519435203520  0.87294334723472 -1.76575206060606
 1 -5.27683990789079  2.96884127092709 -0.43567497829783
 1  9.96466771737174 -0.41750040764076 -2.30990332613261
 1  14.97569041424142 -0.64617443184318  0.69410801010101
 1  8.44767661846185  1.80927325452545 -0.50218749594959
 1 -2.63273835803580  4.75959240894089  0.15059088878888
 1 -2.41063982828283  4.30966819161916 -1.65091820092009
 1 -3.97088347344734  4.65737391919192 -0.67409721122112
 1 -2.53966358645865  0.66011822382238  0.01304835023502
 1  6.54773752365236 -1.89885944804480  0.39625210991099
 1  8.17633284778478 -1.91594631943194 -0.52270304440444
 1  8.00039996159616 -1.38508083648365  1.21458521942194
 1  6.12513766086609  1.78058186358636 -0.54030605030503
 1 -0.66945830283028  2.90440448394839 -0.48900881238124
 1  4.73735972237224 -0.84432092879288  0.25552823392339
 1 -0.31631055425543  0.08997718481848  0.22778538963896
 1  3.78371753965396  1.95320095629563 -0.18743096809681
 1  1.64731160636064  2.38482427432743 -0.30984368276828
 1  1.08419725452545 -1.34768137233723  0.33436243184318
 1  2.81838316311631 -1.57968426992699 -0.46672444244424
 1  2.83398009440944 -1.33254748374837  1.04514780138014
=======
>>>>>>> 6a1b998aacd80a23911c140f266e48a14f2d523d

