%nproc=3
%Mem=2GB
# td=(NStates=1) CAM-B3LYP/6-31G(d,p) 

TD

0 1
<<<<<<< HEAD
 8 -11.77834450205020  0.25282593099310 -1.37664482808281
 8 -13.03356419221922 -2.49254756275628  1.51040672567257
 8  10.68898441834183 -1.02367225512551 -2.01307503380338
 8  14.53546691339134 -0.99580830233023 -0.17053154055406
 6 -11.00153832103210 -0.13343729842984 -0.24427385178518
 6 -11.61805809550955 -1.14626580648065 -1.10107894819482
 6 -11.62515455845585  0.35558224102410  1.05666532153215
 6 -13.01108631233123 -1.75494565246525 -0.74778641264126
 6 -13.22633109110911 -0.14104155175518  1.18909359725973
 6 -13.54073050655066 -1.54469600740074  0.66702546984698
 6 -10.85576116481648 -1.80374579207921 -2.23109542784278
 6 -9.54380382418242  0.19180631443144 -0.29569652775278
 6 -11.00810678807881 -0.32851844784478  2.28144321142114
 6 -11.67129751005101  1.86887199029903  1.29078717041704
 6 -8.61873529522952 -0.70260830203020 -0.00998225922592
 6 -7.13388137773777 -0.64229607570757 -0.20007230693069
 6 -6.34826884178418 -1.86853554235424  0.10128236453645
 6 -6.61470713241324  0.59961079097910 -0.36114466966697
 6 -5.18789873147315  0.94231626832683 -0.41041537173717
 6  11.88094734163416  0.03391342084208  1.41028055615562
 6  11.73414070417042 -0.63495965116512 -1.20301418111811
 6  12.73023025112511 -1.32389661936194  1.68497323072307
 6  13.38789347604760 -1.74575910931093  0.30225418981898
 6  12.36757169186919 -1.91584609360936 -0.82615657815782
 6  11.03924081198120  0.04901964986499  0.13814099439944
 6  11.08105951085109  0.14138078007801  2.69343168336834
 6  12.90532364906491  1.30382360316032  1.46869992099210
 6  12.58727503370337  0.32587146044604 -1.97006095389539
 6 -4.68206470217022  2.24037654365437 -0.58760360926093
 6  9.76798798629863  0.40000080288029  0.07999682298230
 6 -3.33967912631263  2.66261501520152 -0.48791905260526
 6  8.55884567056706  0.99026536033603 -0.04731907190719
 6 -2.99146083118312  4.05595705520552 -0.88887861996200
 6 -2.35665258035804  1.67541939063906 -0.22504503920392
 6  7.34955449794979  0.19344993299330  0.16823763966397
 6  7.56567130363036 -1.30374732683268  0.28148807170717
 6  6.13747509550955  0.67658458875888 -0.12199613561356
 6 -1.03604773627363  1.92492161586159 -0.40574874997500
 6  4.91019262206221  0.12574169026903 -0.06960559175918
 6  0.04559103810381  0.94234754465447 -0.32390149294929
 6  3.71943135083508  0.82112246264626 -0.25919338833883
 6  1.36419836063606  1.20336206390639 -0.35544792569257
 6  2.45479337983798  0.35408470817082 -0.22113875597560
 6  2.27732759445945 -1.15594977527753  0.04593318691869
 1 -12.97695949674968 -2.79256223402340 -1.10303552755276
 1 -13.82905812951295 -1.24810879507951 -1.43227968266827
 1 -13.73695149734974  0.01849891869187  2.06650933363336
 1 -13.80983037663766  0.31739686678668  0.40048771437144
 1 -14.75960326442644 -1.47724643804380  0.75608721302130
 1 -10.53159177607761 -2.88958574137414 -2.04181947734773
 1 -11.63048325722572 -1.84252904430443 -3.14826311251125
 1 -9.86564874837484 -1.30766997559756 -2.48475008750875
 1 -9.41075973077308  1.11544367536754 -0.79762357245725
 1 -9.87417874547455 -0.04176291219122  2.70830657345735
 1 -11.48355371627163 -0.21257455585559  3.34439278937894
 1 -11.06835752945294 -1.36760363686369  2.37391818151815
 1 -11.95437798029803  2.21700782278228  0.20401361736174
 1 -12.60125636503650  2.07060263576358  2.01683539533953
 1 -10.63231351345135  2.20408099859986  1.56794108760876
 1 -12.09450252275227 -2.47616048964896  1.31476595549555
 1 -9.00442128402840 -1.87904626232623 -0.00004090519052
 1 -5.72562200830083 -1.93547687278728 -0.79667771217122
 1 -5.60686310161016 -1.48940417301730  1.03710210641064
 1 -6.91577168776878 -2.83136540954095  0.03943009380938
 1 -7.35272658375838  1.44580290939094 -0.50076975347535
 1 -4.46847349204921  0.22792141054105 -0.26003977967797
 1  13.48492416951695 -1.05443713111311  2.44180912151215
 1  12.01655683268327 -2.02513189318932  1.91089708940894
 1  13.71440379727973 -2.78951061606161  0.50304723062306
 1  12.78173561206120 -2.55306178467847 -1.67707080178018
 1  11.70458046624663 -2.54042316621662 -0.33163850595060
 1  11.92068167636764 -0.14798443174317  3.37265230393039
 1  10.60511748944894  1.08574413751375  2.69257678187819
 1  10.16384400560056 -0.56672498699870  2.55779202040204
 1  13.65503240514052  1.29690831503150  0.65103916871687
 1  12.24822743594359  2.14783422122212  1.18592329802980
 1  13.22056789388939  1.56642112121212  2.39180566216622
 1  12.80479129862986  0.02520591099110 -2.87166961886189
 1  12.04868193659366  1.19812190309031 -2.17589552445245
 1  13.48324915751575  0.42496854975498 -1.50367585298530
 1 -5.38472069596960  3.07215160196020 -0.47991940274027
 1  9.98978022862286 -0.36301495909591 -2.30083241904190
 1  15.12908575377538 -1.10535034943494  0.55854445374537
 1  8.59973182398240  1.99747207440744 -0.47272454965497
 1 -2.23726881108111  4.51286773647365 -0.22588675897590
 1 -2.77512627692769  4.45359258405841 -1.99908301740174
 1 -4.00463684878488  4.84846302810281 -0.66209601110111
 1 -2.76517613771377  0.70403261526153  0.24607165256526
 1  6.53175592549255 -1.73180274237424  0.66765925062506
 1  7.91547676217622 -2.03881860666067 -0.66637741184118
 1  8.35128505010501 -1.35532786118612  1.16575033593359
 1  6.28062320942094  1.81020482588259 -0.19729174887489
 1 -0.67572892989299  2.97480152365237 -0.78055796729673
 1  4.72242822922292 -1.10863736043604 -0.00845816471647
 1 -0.28948787198720 -0.08426023892389 -0.08003539243924
 1  3.84514368226823  1.96781241744174 -0.36235846084608
 1  1.47645452065207  2.36241203310331 -0.54321702010201
 1  1.23594242904290 -1.51861846604661 -0.31028203260326
 1  3.30619194399440 -1.65179148064806 -0.45791356135614
 1  2.13433012941294 -1.17391162016202  1.35237852445245
=======
>>>>>>> 6a1b998aacd80a23911c140f266e48a14f2d523d

