%nproc=3
%Mem=2GB
# td=(NStates=1) CAM-B3LYP/6-31G(d,p) 

TD

0 1
<<<<<<< HEAD
 8 -11.61260792839284  0.20633128152815 -1.54818198179818
 8 -12.85994683048305 -2.55074338233823  1.45530121512151
 8  10.54657017691769 -0.97763765166517 -2.07425115141514
 8  14.52128549524953 -1.09075779727973 -0.04666915431543
 6 -11.01809997719772 -0.19963391809181 -0.36508593299330
 6 -11.63917020672067 -1.20048122802280 -1.22946178647865
 6 -11.69772181518152  0.38225490829083  0.80862051705171
 6 -12.96368157185718 -1.81543170107011 -0.86319795379538
 6 -13.23148160616062 -0.05233268086809  0.95713040094009
 6 -13.53822025552555 -1.55495703350335  0.52297106440644
 6 -10.70488607730773 -2.15472088958896 -2.07603992229223
 6 -9.55154459825983  0.05296243004300 -0.41605856395640
 6 -11.01286726412641  0.04973937793779  2.26392145924592
 6 -11.73198357865786  2.01001610471047  0.74719281098110
 6 -8.60020344204420 -0.79076711791179  0.04367310631063
 6 -7.12809079867987 -0.57780962706271  0.22376007630763
 6 -6.37659167406741 -1.79914860366037  0.54697693399340
 6 -6.54660032173217  0.58777960786079 -0.09515807100710
 6 -5.20340028162816  0.88827086378638 -0.09429375957596
 6  11.87388663556356 -0.06153612411241  1.38294782288229
 6  11.67568485858586 -0.60917707290729 -1.24447832753275
 6  12.61016824492449 -1.41247547724772  1.41902663606361
 6  13.33403809050905 -1.80467500090009  0.22144610901090
 6  12.34762969766977 -1.86513102210221 -0.96053001550155
 6  11.08779566746675  0.01738648654865  0.02467964826483
 6  11.02456386128613  0.08338498049805  2.63725606580658
 6  12.85508862556256  1.21515473627363  1.38850190119012
 6  12.61894820102010  0.40596947024702 -2.00213416121612
 6 -4.74218071377138  2.18892139813981 -0.35220006890689
 6  9.86803799129913  0.49329013181318  0.02331115441544
 6 -3.40178533693369  2.63598235193519 -0.36408666936694
 6  8.59936972297230  0.95116144994499 -0.07797213721372
 6 -3.13331501660166  4.12442390189019 -0.70865059715972
 6 -2.40794770987099  1.70080192889289 -0.19626216091609
 6  7.42102164466447  0.15154574257426 -0.07634681878188
 6  7.73225796229623 -1.34322127422742  0.15865578847885
 6  6.19675102310231  0.73709063936394 -0.22848678467847
 6 -1.03547767926793  1.91905102880288 -0.26373454855486
 6  4.90449205200520  0.17360647674767 -0.07587621882188
 6  0.05900237923792  0.99458276817682 -0.13776287908791
 6  3.74803421112111  0.89493984438444 -0.13182065106511
 6  1.31468340914091  1.35024675237524 -0.10249263016302
 6  2.35543344384438  0.41566086578658 -0.02331897399740
 6  2.17572743444344 -1.04757893819382  0.13066165976598
 1 -13.07959976077608 -2.75662864066407 -1.32168739273927
 1 -13.66684190789079 -1.27238122232223 -1.31968842354235
 1 -13.55315311751175  0.09600666946695  1.82431511421142
 1 -13.58144753835384  0.51024615171517  0.19103676927693
 1 -14.54317162126213 -1.81631034443444  0.74685628992899
 1 -10.43723234013401 -3.07436421922192 -1.47678297369737
 1 -11.37747795669567 -2.54174896629663 -2.91559984618462
 1 -9.69422160566057 -1.53928313691369 -2.55954756725673
 1 -9.22277093189319  0.84117624862486 -1.03457726782678
 1 -10.00014134173417  0.35867713181318  2.21508725152515
 1 -11.56239160006001  0.42021872347235  3.11262961306131
 1 -10.86419711341134 -1.00915779227923  2.12754354405441
 1 -12.10181272377238  2.37375349734973 -0.23659044304430
 1 -12.33686992639264  2.39104467996800  1.56394010581058
 1 -10.71478176027603  2.43487407790779  0.75245953945395
 1 -11.90738381088109 -2.40024289788979  1.09768424732473
 1 -9.07234807670767 -1.75982434013401  0.41799089798980
 1 -5.63698314441444 -1.96390971607161 -0.29219726412641
 1 -5.68992140744074 -1.69829506210621  1.40861925812581
 1 -6.86114622522252 -2.91567384038404  0.41959811061106
 1 -7.04181549264927  1.61896022512251 -0.14994467096710
 1 -4.58809545424542  0.00362898129813 -0.10955473117312
 1  13.06919259635964 -1.48900058745875  2.28062300290029
 1  11.68190336733673 -2.04811419141914  1.67801380108011
 1  13.51397375427543 -2.98580024502450  0.62870979687969
 1  12.93727116561656 -2.09604608310831 -1.88885197989799
 1  11.66999700790079 -2.59896902080208 -0.84941028312831
 1  11.59256886508651  0.22137250395040  3.62292733143314
 1  10.26607358505851  0.74693025612561  2.56711423562356
 1  10.23445106630663 -0.81728004250425  2.61490773197320
 1  13.54876177807781  0.95010363456346  0.64996906170617
 1  12.31803441664166  2.11344078187819  1.26573127882788
 1  13.33599943704370  1.39724420352035  2.26950343194319
 1  12.94008482798280  0.09199258965897 -2.89233168506851
 1  11.98597566596660  1.24241633253325 -2.12266020092009
 1  13.57211804440444  0.56267232013201 -1.51228671407141
 1 -5.38798102200220  3.09067345414541 -0.53806521732173
 1  9.90278152875288 -0.25350400800080 -2.25715805160516
 1  15.15836868206821 -1.11370118451845  0.63494209350935
 1  8.36913876467647  2.13056538373837 -0.22833011021102
 1 -2.76795187938794  4.70901735143514  0.04076990669067
 1 -2.41747051135113  4.17177440224022 -1.56727983708371
 1 -4.01208759385939  4.77480566236624 -0.85193499499950
 1 -2.68201782188219  0.60630284228423  0.18525557095710
 1  6.79636238613861 -1.91752131423142  0.31590407510751
 1  8.49911512601260 -1.79090381518152 -0.46340711481148
 1  8.11937185878588 -1.45187751615161  1.35939970087009
 1  6.37840298739874  1.75319912531253 -0.40184220392039
 1 -0.75924728172817  3.06102014551455 -0.35111502300230
 1  4.78488447484748 -0.86118261496150  0.26053873497350
 1 -0.23131205440544 -0.11398321122112 -0.00331772067207
 1  3.74673384128413  1.97255289148915 -0.37991021602160
 1  1.86573344854485  2.43419921182118 -0.14521722012201
 1  1.12355118991899 -1.15331193539354  0.58169716531653
 1  2.48490981578158 -1.69995629712971 -0.81613938393839
 1  2.69232592899290 -1.52668689768977  1.05451873847385
=======
>>>>>>> 6a1b998aacd80a23911c140f266e48a14f2d523d

