%nproc=3
%Mem=2GB
# td=(NStates=1) CAM-B3LYP/6-31G(d,p) 

TD

0 1
<<<<<<< HEAD
 8 -11.70295696329633  0.14392504090409 -1.57386455005501
 8 -12.82035287108711 -2.53733204120412  1.49719540454045
 8  10.42726824672467 -1.14454434233423 -2.02028575487549
 8  14.42180554725473 -1.09660838233823 -0.05824031143114
 6 -11.00476864406441 -0.08391234593459 -0.34139356375638
 6 -11.61142743244324 -1.09129030893089 -1.20949979027903
 6 -11.69127117011701  0.46490317311731  0.94437409240924
 6 -12.95635083878388 -1.82889304720472 -0.79269090309031
 6 -13.20138859685969 -0.20201764936494  1.01903659155916
 6 -13.35573200670067 -1.73665520332033  0.64188295559556
 6 -10.86991257995800 -1.98822423992399 -2.28400071837184
 6 -9.58444788858886  0.08597573137314 -0.39048600670067
 6 -10.92169814721472 -0.07594319031903  2.18372343944394
 6 -11.71268164846485  1.94792989608961  0.92030012171217
 6 -8.64949837153715 -0.75806384758476 -0.08265952695270
 6 -7.21638962856286 -0.60791263736374  0.06840454075408
 6 -6.36669068396840 -1.75772446124612  0.40892312861286
 6 -6.62471813351335  0.62109293919392 -0.12456101130113
 6 -5.26571651325133  0.92488452515252 -0.06278060826083
 6  11.94139338623862 -0.02946291679168  1.42675220332033
 6  11.57656494659466 -0.67037319251925 -1.20007388708871
 6  12.61879910801080 -1.30032426212621  1.43250798419842
 6  13.25945063176318 -1.91826636003600  0.28725268966897
 6  12.30364529922992 -1.95835034403440 -0.91157512001200
 6  11.08145503340334 -0.04732998509851  0.11374855515552
 6  10.92655406030603  0.14082072407241  2.55330767096710
 6  12.94998811551155  1.26066928772877  1.45785883688369
 6  12.44225053125312  0.31563043634363 -1.95970991879188
 6 -4.75623211891189  2.17719022502250 -0.25371021992199
 6  9.94201538903890  0.56576737953795  0.09081790509051
 6 -3.40324548294829  2.67215596929693 -0.36622688338834
 6  8.76378616461646  1.04415074887489 -0.22325666566657
 6 -3.15224690979098  4.08403986348635 -0.69865959805981
 6 -2.31530844594459  1.74215606430643 -0.23092562726273
 6  7.48256779927993  0.23103369136914 -0.01209039313931
 6  7.66647138363836 -1.25246219831983  0.19346926982698
 6  6.23812516051605  0.86382331263126 -0.05595953195320
 6 -0.96407053855386  1.92736185988599 -0.43155133023302
 6  4.99967156995700  0.15924504060406 -0.12644127532753
 6  0.01107758675868  0.96160947084708 -0.21799090189019
 6  3.81605101280128  0.86932728312831 -0.18715618461846
 6  1.35553749454945  1.27983971167117 -0.28770115101510
 6  2.45502340284028  0.44550385008501 -0.13881052315232
 6  2.27908777047705 -1.01707588788879  0.08676727032703
 1 -12.85266706750675 -2.88688166596660 -0.80513573757376
 1 -13.69321454515451 -1.61587557175717 -1.42057851255126
 1 -13.60413821602160 -0.05715864706471  1.85561824452445
 1 -13.90197959155915  0.41126625372537  0.34794245984598
 1 -14.47313461756176 -1.81044975837584  0.62137374167417
 1 -10.66311492839284 -2.95193197599760 -1.88073336873687
 1 -11.52355256415642 -2.00400519191919 -3.00347863406341
 1 -9.93709589308931 -1.47047625622562 -2.66463807630763
 1 -9.33586224102410  1.10519265026503 -0.85734954505451
 1 -9.86505783338334  0.11839310341034  2.12810855365537
 1 -11.32434779567957  0.14962166376638  3.16344469456946
 1 -10.66879757345735 -1.07568444494450  2.12623341304130
 1 -12.49623216571657  2.36153227522752  0.05214843084308
 1 -12.15139137853785  2.37832340784078  1.95936964876488
 1 -10.63394367646765  2.40540113061306  0.76936122962296
 1 -11.91718479097910 -2.92882575617562  1.05238971787179
 1 -8.91658250015002 -1.87570592829283  0.11029012791279
 1 -5.85624507060706 -1.94677800290029 -0.61549959435944
 1 -5.79539195449545 -1.68787402000200  1.32532092829283
 1 -7.06923703430343 -2.48197047004700  0.65757190799080
 1 -7.14364567566757  1.47389571867187 -0.34002367886789
 1 -4.50502714741474  0.19167778617862  0.21201742604260
 1  13.24029970707071 -1.22334402180218  2.29338427902790
 1  11.97347252425243 -2.17088646864686  1.88769476917692
 1  13.53472582948295 -2.91291295629563  0.54402132803280
 1  12.80306774527453 -2.44984146264626 -1.68116121082108
 1  11.59389939813981 -2.57121624552455 -0.56687202930293
 1  11.38776838503850  0.20872123882388  3.47380241894189
 1  10.21322830053005  0.93549911301130  2.48494601880188
 1  10.18032565376538 -0.70286860136014  2.55289153035304
 1  13.83973087498750  1.02964158835884  0.67167123192319
 1  12.57469008220822  2.26165560336034  1.33859856555656
 1  13.44712054915492  1.25739021812181  2.50096657825783
 1  12.71760257975798 -0.04682129172917 -3.08314076597660
 1  12.14056112451245  1.32459455035504 -2.08471640654065
 1  13.48146897949795  0.46600265316532 -1.37247273267327
 1 -5.54848707260726  2.91927631443144 -0.31878328912891
 1  10.15039629022902 -0.12928158575858 -2.50699303510351
 1  15.19651249644964 -1.45852566696670  0.60567916721672
 1  8.43370522132213  2.10468279547955 -0.54936221342134
 1 -2.63459854405441  4.46471292099210  0.07556338603860
 1 -2.50020878517852  4.36029325412541 -1.62738584768477
 1 -4.26390277537754  4.63011119291929 -0.65566536803680
 1 -2.79672929302930  0.76349856185619  0.23880092549255
 1  6.75483823372337 -1.85193475557556  0.04862734743474
 1  8.55483069756976 -1.47025174997500 -0.35816659075908
 1  7.98731865346535 -1.36933926232623  1.30960472137214
 1  6.00224537163716  1.79540334573457 -0.18104012371237
 1 -0.72607396439644  3.05174921842184 -0.47230714221422
 1  5.13789977637764 -0.90626712341234  0.05262794389439
 1 -0.37951687488749  0.08452663976398  0.17887049814982
 1  3.83114228212821  2.04472010821082 -0.39733195819582
 1  1.60185706090609  2.46935272717272 -0.24936763516352
 1  1.21318015281528 -1.42079868406841  0.18970796639664
 1  2.88440976577658 -1.83600990249025 -0.34772254225423
 1  2.53196989338934 -1.28099232823282  1.14888817541754
=======
>>>>>>> 6a1b998aacd80a23911c140f266e48a14f2d523d

