%nproc=3
%Mem=2GB
# td=(NStates=1) CAM-B3LYP/6-31G(d,p) 

TD

0 1
<<<<<<< HEAD
 8 -11.78964563216322  0.40455110351035 -1.39272643624362
 8 -13.06665750155016 -2.49119742774277  1.30015570057006
 8  10.92354787468747 -1.06303619151915 -2.18581230753075
 8  14.62879624632463 -0.84610333183318  0.12319783238324
 6 -11.06047421462146 -0.14936889158916 -0.26822624702470
 6 -11.73265955565556 -1.05131631153115 -1.26353519381938
 6 -11.80357240024002  0.34678136093609  1.04666432143214
 6 -13.22641784548455 -1.72297245514551 -0.97704933893389
 6 -13.24794325232523 -0.04049149674967  1.03487817571757
 6 -13.64443087658766 -1.52388392619262  0.47780654795480
 6 -10.94648023672367 -1.81608702620262 -2.34364668296830
 6 -9.59166861066107  0.18830596439644 -0.33194015211521
 6 -11.04911088848885 -0.30550614661466  2.27273234033403
 6 -11.68647902820282  1.80233533663366  1.07628572027203
 6 -8.69519294099410 -0.61868991019102  0.13933267226723
 6 -7.34289227882788 -0.42680452655266  0.30254795509551
 6 -6.55187920282028 -1.64820350915092  0.86097833413341
 6 -6.70175583728373  0.74305513541354 -0.05663421862186
 6 -5.23628356995700  0.85815785248525 -0.02218654885489
 6  11.83429267616762  0.00343037253725  1.49233876197620
 6  11.95081237133713 -0.49533568876888 -1.19223310301030
 6  12.69803703180318 -1.24459868956896  1.64184891829183
 6  13.49165385208521 -1.69059359275928  0.44126809120912
 6  12.58727366206621 -1.81226573557356 -0.80615457795780
 6  11.05058194609461  0.01201594949495  0.09374655495550
 6  10.83100450535053  0.13366000800080  2.64673701390139
 6  12.72718583528353  1.36677989878988  1.46652970397040
 6  12.75509181538154  0.42419129242924 -1.93385733353335
 6 -4.64053054875488  2.08065057105711 -0.31722657155716
 6  9.82555374287429  0.50219102190219 -0.08815999269927
 6 -3.36304146254625  2.39707846154615 -0.38448870957096
 6  8.55189497549755  0.88964529832983 -0.36918125812581
 6 -2.98643032813281  3.82372383188319 -0.81951168326833
 6 -2.34012092719272  1.54973682238224 -0.36581911661166
 6  7.52737227972797  0.09589017701770 -0.21941112521252
 6  7.71407614411441 -1.38199515161516  0.01232115501550
 6  6.24246559455946  0.70884781508151 -0.40693462946295
 6 -0.91162529402940  1.79696882058206 -0.35835401050105
 6  5.00303190599060  0.14879399549955 -0.19602823402340
 6  0.03059953895390  0.77351066096610 -0.31833093589359
 6  3.79125853355336  0.79151950235024 -0.21331880088009
 6  1.38547048784878  1.14540626832683 -0.30815319621962
 6  2.43239113961396  0.23538283798380 -0.16580322242224
 6  2.27740760246025 -1.24473865416542  0.15373396699670
 1 -13.32950475127513 -2.74623760156016 -1.28274349834984
 1 -14.12657788148815 -0.97795177937794 -1.59683613831383
 1 -13.76194399659966  0.01850891969197  2.01617430013001
 1 -13.80737013061306  0.71503663076308  0.45463312891289
 1 -14.81661896599660 -1.41600031343134  0.59344094839484
 1 -10.73878249514951 -2.75211199399940 -1.98791408680868
 1 -11.65746595549555 -1.78532332373237 -3.21028931513151
 1 -10.08471065456546 -1.22713192179218 -2.71439305180518
 1 -9.43288194299430  1.21340347134713 -0.84823863396340
 1 -9.95386671427143 -0.33303203910391  2.29807555035504
 1 -11.26837219811981  0.39053575517552  3.30563891399140
 1 -11.59949064276427 -1.41683856035604  2.30290107980798
 1 -12.04578712121212  2.33111923392339  0.27358057405741
 1 -12.46884312371237  2.03834941044104  1.80835454725473
 1 -10.53012329442944  2.07600819131913  1.50149444294429
 1 -12.21465453795379 -2.76329920352035  0.76677115601560
 1 -8.98852969486949 -1.40422878057806  0.58692779167917
 1 -6.17420686678668 -2.15333865896590 -0.12580062446245
 1 -5.81838425372537 -1.27592282488249  1.59101749794980
 1 -7.12956306690669 -2.32368464146415  1.30218636943694
 1 -7.31177248834883  1.63635196429643 -0.61898157465747
 1 -4.52825947064706 -0.04538592019202 -0.02131590729073
 1  13.31057673477348 -0.99736142354236  2.64990993159316
 1  12.04930010701070 -2.08131751175118  1.87963396309631
 1  13.75022737963796 -2.70633229822982  0.83521044694469
 1  13.29759719821982 -2.16552303080308 -1.52744583928393
 1  11.79836984518452 -2.56960608450845 -0.73830917301730
 1  11.31437104530453  0.18465883258326  3.59537457615762
 1  10.10772775047505  1.06557212031203  2.36947447164716
 1  10.11787940914091 -0.73020133463346  2.80379662086209
 1  13.38757565946595  1.27478610281028  0.57780184498450
 1  12.19813242644264  2.19528896669667  1.31803650935094
 1  13.23385922302230  1.35448992809281  2.44845132673267
 1  12.98487930743074  0.17656104650465 -3.05627807970797
 1  12.13853092149215  1.33908599949995 -2.31442937783778
 1  13.56625745834583  0.78320437333733 -1.40771625702570
 1 -5.30205242914291  2.98417280408041 -0.59453086388639
 1  10.29257050765077 -0.18510716831683 -2.45312764856486
 1  15.28868171337134 -1.15138495289529  0.71342994229423
 1  8.53489534033403  1.84261658885889 -0.73949122632263
 1 -2.29118420262026  4.21564801450145 -0.13447761806181
 1 -2.32488125242524  3.75776300110011 -1.72085519461946
 1 -3.85832221732173  4.41266944874487 -1.09360916241624
 1 -2.47301692179218  0.46587879987999 -0.25273822842284
 1  6.90307305720572 -1.90964052615262 -0.24271178647865
 1  8.62596781128113 -1.69538426322632 -0.69294006810681
 1  8.15291521312131 -1.43753608200820  0.95509927082708
 1  6.38495364246425  1.70381418681868 -0.57580960066007
 1 -0.71261261826183  2.75754979847985 -0.42291220272027
 1  4.90221620802080 -0.99346584328433  0.04146682778278
 1 -0.19325824902490 -0.34575638853885 -0.21364875377538
 1  3.72849201710171  1.71644728092809 -0.45938816381638
 1  1.66705358055806  2.21904769666967 -0.60496319471947
 1  1.25352418721872 -1.71537814201420 -0.02568357275728
 1  3.00047137193719 -1.74245054655466 -0.60578834883488
 1  2.42235893229323 -1.57419164816482  1.22661594819482
=======
>>>>>>> 6a1b998aacd80a23911c140f266e48a14f2d523d

