%nproc=3
%Mem=2GB
# td=(NStates=1) CAM-B3LYP/6-31G(d,p) 

TD

0 1
 8 -11.79267593519352  0.29033968236824 -1.47185434903490
 8 -12.92868370417042 -2.62385069306931  1.30393607860786
 8  10.57727324722472 -0.93609349724972 -2.16151987828783
 8  14.44017738443844 -1.15291401290129 -0.05811029842984
 6 -11.01378954615462 -0.11659561426143 -0.23566299069907
 6 -11.48754504420442 -1.15695687558756 -1.12875171547155
 6 -11.82386442944294  0.28155483828383  0.97689734473447
 6 -12.89236444014401 -1.83760391829183 -0.94930656465647
 6 -13.31747020502050 -0.25007245484548  0.81604629252925
 6 -13.42729916341634 -1.64334587238724  0.44695346264626
 6 -10.60880646934694 -1.80853627112711 -2.26079839813981
 6 -9.57292673647365  0.22182931673167 -0.25806276437644
 6 -11.16634261166116 -0.18438403440344  2.28924399149915
 6 -11.87360774107411  1.80774587768777  1.07896598829883
 6 -8.55486890859086 -0.65127316851685  0.22399113811381
 6 -7.14098208780878 -0.43148499459946  0.22027972827283
 6 -6.37332134703470 -1.62449113791379  0.76261849814981
 6 -6.56745240694069  0.72159298919892 -0.03693224842484
 6 -5.23143308490849  0.92198423512351 -0.14708903910391
 6  11.86546579347935 -0.03518348884888  1.46971649974997
 6  11.69754704480448 -0.53700985618562 -1.26200007970797
 6  12.54608183628363 -1.36045027472747  1.55946067946795
 6  13.29943463016302 -1.90147468086809  0.30166413081308
 6  12.38060299499950 -1.92268677767777 -1.00245420792079
 6  11.05902279017902 -0.08207345944594  0.10637781808181
 6  10.88633003790379  0.04084072607261  2.66329867006701
 6  12.79871298799880  1.18287150795079  1.40399345034503
 6  12.51600790699070  0.48791766506651 -2.00380432823282
 6 -4.71151764746475  2.15546805280528 -0.47536238513851
 6  9.91833302080208  0.56845764856486  0.04172299559956
 6 -3.34557971637164  2.52385113881388 -0.65853611431143
 6  8.68034782078208  0.94886121992199 -0.25475981598160
 6 -3.07872955805581  4.04907636713671 -1.04878461056106
 6 -2.36864377947795  1.66853870257026 -0.36799933463346
 6  7.48726826932693  0.17653824182418 -0.03982316641664
 6  7.64729946644665 -1.29857680978098  0.25778570147015
 6  6.23924527252725  0.80171710201020 -0.20414435043504
 6 -1.00088421992199  1.94858398209821 -0.12622079717972
 6  4.92566416921692  0.12377149324932 -0.12259089028903
 6  0.03853033203320  1.01644495439544 -0.20389949274927
 6  3.85562497019702  0.87259761016102 -0.27049451845185
 6  1.41205314611461  1.24787651535153 -0.18815119601960
 6  2.46391429192919  0.30981028072807 -0.11280792289229
 6  2.33417327902790 -1.10710489078908  0.34695328892889
 1 -12.76726852765276 -2.97727070487049 -1.01711693569357
 1 -13.51322654635463 -1.41621560576058 -1.69959641434143
 1 -13.72890069226923 -0.05841877307731  1.77504018671867
 1 -13.86878627222722  0.20416554365437  0.14901256685669
 1 -14.55471277537754 -1.70832954635464  0.42115371967197
 1 -10.30561917881788 -2.83460024282428 -1.84079937533753
 1 -11.13821403030303 -1.78833362476248 -3.31203949014902
 1 -9.73119530303030 -1.24809401800180 -2.52538415091509
 1 -9.29604825962596  1.24691682268227 -0.53817762786279
 1 -10.22172349995000  0.41043230733073  2.44386012881288
 1 -11.95127048794879  0.11344804640464  3.08481683178318
 1 -10.95638633233323 -1.40381725822582  2.28606939663966
 1 -11.93509605210521  2.12252837483748 -0.02576936093609
 1 -12.88872511191119  2.21841741724172  1.57265097689769
 1 -10.90665094719472  2.40171076157616  1.55082937643764
 1 -12.01123419591959 -2.45199807340734  1.33032751165117
 1 -8.80764160606061 -1.64689304700470  0.56246534543454
 1 -5.69377882398240 -2.14797812291229 -0.00129817421742
 1 -5.69306172147215 -1.35006023862386  1.61602999919992
 1 -7.01844195479548 -2.28888116111611  1.11067721852185
 1 -7.30651196229623  1.48590691979198 -0.21326100260026
 1 -4.54318096279628  0.07884650305031 -0.04426820252025
 1  13.38169384648465 -1.40396208360836  2.25611055165517
 1  11.93966914391439 -2.22281166116612  1.86759275897590
 1  13.61129348624863 -2.94887655265526  0.57811473737374
 1  13.22882032053205 -2.09402588108811 -1.89291238593859
 1  11.49956996519652 -2.73458258215822 -0.95124046614661
 1  11.52518212641264  0.10231059775978  3.57668270697070
 1  10.46623360106011  0.93669923302330  2.61959948414842
 1  10.00866848804881 -0.63037135163516  2.38819506070607
 1  13.69771667356736  0.98410703490349  0.69032309710971
 1  12.32344495769577  2.14750418821882  1.09030373607361
 1  13.43263910101010  1.50936541564156  2.29626610821082
 1  12.76420724022402 -0.00509711931193 -2.87780023192319
 1  12.05567263566357  1.55112720362036 -1.98240617551755
 1  13.41023185578558  0.55999205210521 -1.35848133353335
 1 -5.61678390229023  2.94894928172817 -0.54823623442344
 1  10.18518976957696 -0.18153681128113 -2.46433876967697
 1  15.07526037123712 -1.05470528492849  0.65899449874987
 1  8.36924877567757  1.93555588278828 -0.50877815501550
 1 -2.67487257145715  4.37982443214321 -0.46368053835384
 1 -2.46739550385039  4.00601782658266 -1.98669177827783
 1 -3.95323170827083  4.66334451625162 -0.99794959645965
 1 -2.57263688378838  0.56405861786179 -0.06405936053605
 1  6.64917766766677 -1.81485104720472  0.44964744944494
 1  8.22189740424042 -1.80766549134914 -0.67129790389039
 1  8.13003292489249 -1.57419974837484  1.19443320422042
 1  6.18432357945795  1.89407321272127 -0.56044806450645
 1 -0.64877623462346  3.01543558705871 -0.17556746824682
 1  4.84700068646865 -0.75569206590659  0.21473415451545
 1 -0.12090101330133 -0.12817463036304 -0.38865625452545
 1  4.06023519141914  1.88711434763476 -0.57536976197620
 1  1.64133100830083  2.18581437333733 -0.36482918131813
 1  1.05580441524152 -1.35785238943894  0.47072606820682
 1  2.81627295209521 -2.09232553405341  0.01930416041604
 1  2.64060075647565 -1.28560278927893  1.46631991859186

