%nproc=3
%Mem=2GB
# td=(NStates=1) CAM-B3LYP/6-31G(d,p) 

TD

0 1
 8 -11.57220388798880  0.03133378177818 -1.66261342494249
 8 -13.27362819861986 -2.14938324632463  1.48450413541354
 8  10.59380490039004 -1.03413330123012 -2.21606533283328
 8  14.47945131183118 -1.01432015351535 -0.14307879527953
 6 -10.99097726492649 -0.14221817651765 -0.43192261666167
 6 -11.58706499619962 -1.26441762166217 -1.21753059335934
 6 -11.67744978797880  0.48736541934193  0.78559821482148
 6 -13.01427663136314 -1.75747590549055 -0.88852048604860
 6 -13.17538599659966  0.17174972737274  0.69812450035004
 6 -13.53060949444945 -1.29140067786779  0.39293806110611
 6 -10.79086467516752 -2.28692410991099 -2.02251456975698
 6 -9.53571301510151 -0.09840270647065 -0.42101906000600
 6 -10.97509348674867 -0.06716231223122  2.09049411651165
 6 -11.60191057135713  2.01729683278328  0.73786187788779
 6 -8.64522794449445 -0.85509355055506  0.16258499749975
 6 -7.16619460906091 -0.69284113021302  0.25433313361336
 6 -6.28976299119912 -1.78229691849185  0.42236447274727
 6 -6.65095075677568  0.61226205610561  0.03061450625062
 6 -5.21783172477248  0.87904994169417 -0.05838016821682
 6  11.86227547444745  0.08684871437144  1.37788731683168
 6  11.68745603570357 -0.56358251345134 -1.28798267796780
 6  12.59946717481748 -1.37896212591259  1.51042577597760
 6  13.34217890459046 -1.68251278467847  0.24398836323632
 6  12.55876081078108 -1.81668617761776 -1.00369433193319
 6  11.06281316921692  0.02693744164416  0.05394257455746
 6  10.83906531143114  0.19777641964196  2.52743508370837
 6  12.79395251195120  1.24970819161916  1.27737078807881
 6  12.53604991119112  0.44699357265727 -2.03563751155116
 6 -4.68840533623362  2.17313981998200 -0.12199704860486
 6  9.84359554705471  0.51108191099110 -0.04956613331333
 6 -3.33320847924792  2.54422317601760 -0.31319157985799
 6  8.61200098609861  0.96188252205221 -0.22106644664466
 6 -3.08064975007501  4.04466592609261 -0.41722145424542
 6 -2.26670358545855  1.58579042774277 -0.14689722442244
 6  7.41466100860086  0.19093968196820 -0.01168035213521
 6  7.59681441794179 -1.20291724382438  0.21084100700070
 6  6.22875422342234  0.69208613891389 -0.09971390739074
 6 -0.92039617111711  1.85543466716672 -0.14692286738674
 6  4.94831643444344  0.09925904200420 -0.01231986318632
 6  0.00483696269627  0.88005131503150 -0.02717181998200
 6  3.73641304900490  0.72578292869287 -0.09070653965397
 6  1.35851779257926  1.13707543524352 -0.04629701060106
 6  2.41837973847385  0.22832213191319 -0.07839448154815
 6  2.32748260996100 -1.18627280758076  0.08778737233723
 1 -12.77729953075307 -2.93974695249525 -0.82809803380338
 1 -13.79403462716271 -1.52753673787379 -1.70642709740974
 1 -13.69009681188119  0.28567563636364  1.66366904960496
 1 -13.76815620922092  0.83429855695570  0.01736940254025
 1 -14.70252755685569 -1.43662237563756  0.35229683398340
 1 -10.42797141404140 -3.13001978477848 -1.39423471887189
 1 -11.39886009490949 -2.68445323672367 -2.86977526372637
 1 -9.89707189068907 -1.63203241184118 -2.38978059055906
 1 -9.08745740054006  0.92198432943294 -0.97448125822582
 1 -9.94451577917792  0.18294955905591  1.94460020282028
 1 -11.56834219511951  0.32626932853285  2.86368471857186
 1 -11.01525221892189 -1.07951482798280  2.03593438313831
 1 -12.16012855535554  2.45030115211521 -0.31920870487049
 1 -11.85800203960396  2.62767834333433  1.66969068086809
 1 -10.44831511361136  2.36539713021302  0.72023631713171
 1 -12.14286735923592 -2.33992686628663  1.49149362826283
 1 -9.10608145004500 -1.73797215491549  0.61753085198520
 1 -5.84710415651565 -2.09867319241924 -0.62067011141114
 1 -5.65996841214121 -1.73494872747275  1.36140453665367
 1 -6.83765387598760 -2.74415668866887  0.66187233803380
 1 -7.52419373047305  1.36281461056106 -0.05950562706271
 1 -4.42660930563056  0.08418703710371  0.01868809310931
 1  13.25604128122812 -1.18372005940594  2.27377231783178
 1  12.00945612261226 -2.19013839383938  2.11296729642964
 1  13.57906026292629 -2.95619728472847  0.32710963686369
 1  13.16707414591459 -2.13762024052405 -1.89630272497250
 1  11.70469047724773 -2.67539666356636 -0.82707804990499
 1  10.88341794999500 -0.08254788808881  3.72166720542054
 1  10.24881185888589  1.06486204930493  2.35067259145915
 1  10.02423004420442 -0.60663897839784  2.36590283148315
 1  13.57219412131213  1.06103472767277  0.60677474227423
 1  12.20886349954996  2.16545598339834  1.00980568626863
 1  13.02888872597260  1.52724720382038  2.24656113771377
 1  12.79988080758076  0.17115050545054 -3.09413186508651
 1  11.87876494489449  1.29583167406741 -2.24177211211121
 1  13.51166199879988  0.78800485338534 -1.49137462286229
 1 -5.28577080098010  3.13569795659566  0.03198178737874
 1  10.06603785438544 -0.32378103570357 -2.26766910271027
 1  15.15467831303130 -0.59728954335434  0.60746934623462
 1  8.49931178197820  1.86289861706171 -0.47352462966297
 1 -2.83661874607461  4.60300675037504  0.44644047374737
 1 -2.24929369366937  4.21882910771077 -1.15891900100010
 1 -3.91738812391239  4.67515569736974 -0.86816661816182
 1 -2.33919353945395  0.65144735673567  0.08108515391539
 1  6.69593234313431 -1.85023458555856  0.16328881358136
 1  8.18297351185118 -1.64119884468447 -0.53609438353835
 1  7.97441736333633 -1.52683501190119  1.13621738263826
 1  6.22952809990999  1.62650645604560 -0.10636265596560
 1 -0.46497785478548  3.01776582008201 -0.33674358585859
 1  4.91780776717672 -0.99803630033003  0.09846252735274
 1 -0.21865078827883 -0.18249006190619  0.05691830293029
 1  3.99265843374337  1.83983962016202 -0.27127935293529
 1  1.51943881908191  2.24435022692269 -0.14048674707471
 1  1.24807364216422 -1.58831543574357  0.17600659625963
 1  2.96963828862886 -1.70548685018502 -0.52378014801480
 1  2.86706340274027 -1.45005923492349  1.06982026862686

