%nproc=3
%Mem=2GB
# td=(NStates=1) CAM-B3LYP/6-31G(d,p) 

TD

0 1
 8 -11.72475914351435  0.21482213061306 -1.57298446204620
 8 -13.07680851665167 -2.35508381638164  1.57457314231423
 8  10.71100662056206 -1.13614350225023 -2.12668639493949
 8  14.52816618331833 -1.08644736623662 -0.00105459285929
 6 -11.06066423362336 -0.18136209090909 -0.30301972637264
 6 -11.65873216291629 -1.22225340524052 -1.15115395569557
 6 -11.73831587458746  0.35105178797880  0.93650330533053
 6 -12.96885208890889 -1.86911706960696 -0.89209084308431
 6 -13.16991544954496 -0.01593904150415  0.91713640154015
 6 -13.45890232373237 -1.47100863866387  0.53432219951995
 6 -10.77642323102310 -2.01058647614761 -2.11714403270327
 6 -9.53707315111511  0.14103123692369 -0.40582754085409
 6 -11.01985796319632 -0.19310490649065  2.16308137523752
 6 -11.68978935923592  1.83170827392739  0.79663775547555
 6 -8.66663008470847 -0.83014105530553 -0.05600686168617
 6 -7.19347733733373 -0.62183402950295  0.03868156845685
 6 -6.30947496239624 -1.88672736153615  0.28978121442144
 6 -6.61334699639964  0.66069689958996 -0.17704625982598
 6 -5.27731767336734  0.86935897259726 -0.07719204940494
 6  11.91531077797780  0.03055308480848  1.44248377647765
 6  11.78961625172517 -0.63016917211721 -1.28756263596360
 6  12.51825905400540 -1.38141237093709  1.60210494389439
 6  13.38939362606261 -1.90507504090409  0.34720868526853
 6  12.52210714541454 -2.01428593759376 -0.95926988948895
 6  11.13056994489449  0.04844959285929 -0.02238505820582
 6  10.86010741564156  0.30631727372737  2.45456779697970
 6  12.90432354905490  1.34398761956196  1.42267531853185
 6  12.59873617981798  0.40001887518752 -2.13862781058106
 6 -4.76770326602660  2.11038354435444 -0.36327117601760
 6  9.88506969446945  0.51110191299130 -0.00010118681868
 6 -3.41542670107011  2.61270002370237 -0.26533679437944
 6  8.64112389838984  0.93691002480248 -0.20112445244524
 6 -3.06844852995300  4.04968642814281 -0.41093082518252
 6 -2.31560847594759  1.68720056875688 -0.18008054275428
 6  7.45233477597760  0.07351793979398 -0.06507569166917
 6  7.63540827732773 -1.33873082518252  0.21243116601660
 6  6.23969531753175  0.70374730503050 -0.15454939093909
 6 -1.01153528502850  2.04753387708771 -0.28224639973997
 6  4.86900850365036  0.15349446554655  0.01254262306231
 6 -0.00593411441144  0.98522183208321 -0.19468857165717
 6  3.74242365006501  0.90076042644264 -0.17976544554455
 6  1.32990493129313  1.28401012871287 -0.12935531643164
 6  2.49178707920792  0.47702700240024 -0.06608325042504
 6  2.24946480818082 -0.99140332063206  0.19304789838984
 1 -12.93888568936894 -2.96865984378438 -0.84742996699670
 1 -13.67789301300130 -1.43918790299030 -1.54967142184218
 1 -13.70845864806481  0.34571163996400  1.85275795849585
 1 -13.72245163876388  0.65003013011301  0.20086775237524
 1 -14.47022432653265 -1.39832854625463  0.65384698899890
 1 -10.28550716761676 -2.88745552835284 -1.73091838723872
 1 -11.49369957885789 -2.09222401380138 -2.99992827902790
 1 -9.95972815631563 -1.22549175777578 -2.54250586308631
 1 -9.40518917371737  1.03691582258226 -0.73315712581258
 1 -10.00147147474748  0.35383664776478  2.25340108290829
 1 -11.79193455435543 -0.12847614601460  3.00568891899190
 1 -10.68987968166816 -1.22988986548655  2.31295208490849
 1 -12.26547909040904  2.34134025602560  0.01132434843484
 1 -11.99196543594359  2.10186576207621  1.79132284408441
 1 -10.45979626172617  2.22784337483748  0.81569586308631
 1 -12.12039511201120 -2.68166103970397  1.24512899179918
 1 -9.14539538143814 -1.65391374907491  0.33688278717872
 1 -5.88412785888589 -2.16506983208321 -0.79226727112711
 1 -5.61223363866387 -1.47028226082608  1.09767816401640
 1 -6.94162427302730 -2.48043031603160  0.82982913371337
 1 -7.25208651975198  1.41602993209321 -0.33833350985098
 1 -4.61919856455646 -0.07574895649565  0.40885711001100
 1  13.05162083918392 -1.18660034743474  2.56171111171117
 1  11.60369554655466 -1.92627200720072  1.75853185288529
 1  13.80149250615061 -3.04221588658866  0.67091401730173
 1  13.01787922642264 -2.19008548704871 -1.87213030773077
 1  11.78866887508751 -2.72540166406641 -0.57455279737974
 1  11.21148075627563  0.28790915761576  3.40586562526253
 1  10.36954393209321  1.35348091119112  2.40568809300930
 1  10.02106972817282 -0.51522983748375  2.33668991019102
 1  13.73496039793979  1.36282490669067  0.68479254405441
 1  12.31641425462546  2.18202764056406  1.07094179987999
 1  13.33594943204320  1.54105858495850  2.36175265686569
 1  13.03160397989799 -0.27140374997500 -3.04425687758776
 1  11.89577664606461  1.18322041294129 -2.40225816071607
 1  13.41733256585658  0.71472752565257 -1.48783426882688
 1 -5.54890711461146  2.94116850365037 -0.77705911671167
 1  10.23360461106111 -0.32721137873787 -2.51102343814381
 1  14.95935878107811 -1.04443425782578  0.94937353665367
 1  8.48882073287329  1.83593592079208 -0.80176745394539
 1 -2.51825690989099  4.38107455715572  0.40614644434443
 1 -2.56613537783778  4.42760998579858 -1.38031114021402
 1 -3.89133551865187  4.72410059185919 -0.50052985448545
 1 -2.62761238133813  0.61282349434943 -0.13752670727073
 1  6.66668941884188 -1.76267582968297 -0.17152466776678
 1  8.34123933843384 -1.65042976777678 -0.63570434453445
 1  7.75329525112511 -1.73706603500350  1.39357311821182
 1  6.42651779887989  1.77277108250825 -0.50776279597960
 1 -0.71096245324532  3.08601264476448 -0.37408732023202
 1  4.77753373977398 -0.95177167386739  0.00524320542054
 1 -0.40810973417342 -0.21246305920592 -0.43697108600860
 1  3.88391755965596  2.04966060226023 -0.23021524652465
 1  1.50858773397340  2.33256904880488 -0.13708640704070
 1  1.15799463426343 -1.13970057425743 -0.19262026642664
 1  2.92131345614562 -1.51104740624062 -0.40555832583258
 1  2.21400809720972 -1.14509873887389  1.43235652225223

