%nproc=3
%Mem=2GB
# td=(NStates=1) CAM-B3LYP/6-31G(d,p) 

TD

0 1
<<<<<<< HEAD
 8 -11.75913258085809  0.13531417981798 -1.50239740334033
 8 -12.82045288108811 -2.65249355735574  1.42561824682468
 8  10.56453197309731 -1.19898978687869 -2.01866559285929
 8  14.45174854155415 -1.00541926342634 -0.06487097449745
 6 -10.96059422662266 -0.05366932163216 -0.34861428582858
 6 -11.61544783448345 -1.17134831473147 -1.14235307560756
 6 -11.71619366236624  0.42221890469047  0.91059071407141
 6 -12.91539674337434 -1.85702586048605 -0.83023465746575
 6 -13.23601205920592 -0.21738918651865  0.93321800970097
 6 -13.38205463896390 -1.71083262106211  0.57900666796680
 6 -10.67473306200620 -1.99497491499150 -2.26641896019602
 6 -9.59130857465746  0.22564969876988 -0.49526648474847
 6 -10.95940191759176 -0.19115471147115  2.09614468156816
 6 -11.87634801510151  1.96887199029903  0.87002509420942
 6 -8.66222964466447 -0.57955599679968  0.05410414941494
 6 -7.20066805640564 -0.41466331243124  0.11571927222722
 6 -6.35638965386539 -1.70756944574457  0.46590882718272
 6 -6.65338099979998  0.81761259115912 -0.10985954115412
 6 -5.31135107670767  1.08579061576158 -0.12219654985499
 6  11.87098634553455  0.10658068756876  1.37946747484748
 6  11.59758704880488 -0.69134528972897 -1.14921880158016
 6  12.69217644574457 -1.31810604030403  1.57153188658866
 6  13.34913960066007 -1.81342587598760  0.34139810421042
 6  12.41334626932693 -1.95648015701570 -0.88788275077508
 6  11.06080296819682  0.00255500340034  0.08738591889189
 6  10.90066147104710  0.33248989098910  2.55821816201620
 6  12.83313643034303  1.33070629142914  1.26564961596160
 6  12.38812511871187  0.31802067536754 -2.04817876567657
 6 -4.60777727342734  2.31395390139014 -0.24066891579158
 6  9.84835602310231  0.42996379917992 -0.03538471517152
 6 -3.34687984638464  2.58794754845485 -0.26015627632763
 6  8.64585437143714  0.87117345114511 -0.28223256325633
 6 -2.97057874297430  4.08184964446445 -0.35807553965397
 6 -2.25450236533653  1.69333118181818 -0.23198573327333
 6  7.44638418091809  0.16501708970897 -0.06867605170517
 6  7.49322405890589 -1.32660961306131  0.35448537143714
 6  6.20588193619362  0.73860079037904 -0.32138607460746
 6 -0.98988311981198  1.96396552025203 -0.33350152525253
 6  4.90168177097710  0.13187230333033 -0.08271690289029
 6  0.04437091609161  0.99755306520652 -0.21105020782078
 6  3.74490389808981  0.82399274967497 -0.13269073807381
 6  1.42015395619562  1.11048277597760 -0.27832021292129
 6  2.43430133063306  0.23528282798280 -0.12585922802280
 6  2.19490935263526 -1.21243542384238  0.03029162276228
 1 -12.75612741354135 -2.95131810961096 -1.22592781678168
 1 -13.47918314201420 -1.42810679487949 -1.70511696639664
 1 -13.60551835403540 -0.12325525672567  1.90283296599660
 1 -13.89972936653665  0.23524865196520  0.26741440704070
 1 -14.45787309140914 -1.93352206560656  0.52418402270227
 1 -10.41030964786479 -2.98714549734974 -1.66237153255326
 1 -11.26064627352735 -2.25099989138914 -3.11491977817782
 1 -9.83918610211021 -1.44293350195020 -2.50428204070407
 1 -9.36523517831783  1.22255438643864 -1.06231004110411
 1 -9.88841016861686  0.33399466356636  2.28389413221322
 1 -11.56735209610961  0.06501320292029  2.99665801590159
 1 -10.87607830153015 -1.29013589008901  2.04851564126413
 1 -12.75731827432743  2.16979310131013  0.01955517151715
 1 -12.47134337373737  2.12865844134413  1.79749346114611
 1 -10.79381966406641  2.39223981448145  0.68599289278928
 1 -11.87606067856786 -2.69273214681468  1.46396087498750
 1 -9.14973581548155 -1.46871522922292  0.60178927782778
 1 -5.96531597769777 -2.36283960906091 -0.50394843924392
 1 -5.46591900720072 -1.41233646624662  1.07631602780278
 1 -7.03294340494049 -2.36894916791679  0.96332248304830
 1 -7.26602791389139  1.63586191529153 -0.15019469596960
 1 -4.57846449114912  0.11759037743774  0.12818904320432
 1  13.53100877797780 -1.28540022742274  2.35237017761776
 1  11.89161433843384 -2.12264164416442  1.95158115781578
 1  13.71953431033103 -2.74339600460046  0.55976290219022
 1  13.07207464596460 -2.33174965346535 -1.67751084578458
 1  11.73277328552855 -2.80629975387539 -0.57396273837384
 1  11.35640524872487  0.42418278497850  3.48014305300530
 1  10.55445242294229  1.23319888298830  2.23595111931193
 1  10.07277489868987 -0.37992630713071  2.65409165036504
 1  13.58810571247125  1.27476610081008  0.53232729752975
 1  12.52189480268027  2.18974841264126  1.24736944264426
 1  13.26255209230923  1.44695917501750  2.17638412001200
 1  12.67752857235724 -0.28386499609961 -3.06010846274627
 1  11.70564763316332  0.89417150805080 -2.30603853875387
 1  13.28934976757676  0.80860691359136 -1.56818230363036
 1 -5.25105732963296  3.20952533933393 -0.31440285108511
 1  10.00836208680868 -0.41950060766077 -2.21562389818982
 1  14.95430827602760 -0.97605742014202  0.88811741104110
 1  8.55229708050805  1.81359368656866 -0.45716299349935
 1 -2.02291737593759  4.23544999469947  0.47837366706671
 1 -2.56768553285329  4.28364558935894 -1.35474858395840
 1 -3.83396978207821  4.82878105990599 -0.17774757625762
 1 -2.52919253935394  0.80015222722272  0.14430147554755
 1  6.37299004890489 -1.72737229932993  0.40163264796480
 1  8.14031924642464 -2.03663838863886 -0.34893566766677
 1  8.18387830943094 -1.51894422282228  1.34329809070907
 1  6.22534768186819  1.73189699509951 -0.52297431713171
 1 -0.66780813781378  3.03090713421342 -0.30545045654565
 1  5.13963995039504 -0.96708320502050  0.19200188128813
 1 -0.50253917711771  0.13286147324733 -0.25289267816782
 1  3.95896506440644  1.74359999619962 -0.09847207220722
 1  1.70865774097410  2.13182897479748 -0.54467716611661
 1  1.28649748454846 -1.54223082728273  0.04007300290029
 1  2.70305162996300 -1.48543484498450 -0.99730750075008
 1  2.81984868126813 -1.55856008500850  0.77731101770177
=======
>>>>>>> 6a1b998aacd80a23911c140f266e48a14f2d523d

