%nproc=3
%Mem=2GB
# td=(NStates=1) CAM-B3LYP/6-31G(d,p) 

TD

0 1
<<<<<<< HEAD
 8 -11.67686435403540  0.07574822322232 -1.57522468606861
 8 -12.88271910771077 -2.51765007300730  1.37234291929193
 8  10.51480700060006 -1.14648453635364 -1.98132185848585
 8  14.43222658935893 -1.08987770927093 -0.24541902930293
 6 -10.97765593279328 -0.19011296599660 -0.38951837623762
 6 -11.69181547124712 -1.26556773667367 -1.15662450275028
 6 -11.72100414341434  0.37746442924292  0.91055071007101
 6 -13.07368257195720 -1.87705786368637 -0.96941857585759
 6 -13.21600005800580 -0.08885633323332  0.92314700260026
 6 -13.48069450295029 -1.59021055885589  0.51422018931893
 6 -10.92372796149615 -2.18805422292229 -2.25144746304630
 6 -9.54941438523852  0.12056919071907 -0.45841279937994
 6 -11.10078605600560 -0.17002259825983  2.18262332943294
 6 -11.68577895819582  1.91551665476548  0.89146723842384
 6 -8.61542496419642 -0.66013405460546  0.04331307030703
 6 -7.21396938653865 -0.41569341544154  0.03325102540254
 6 -6.22945696059606 -1.61428011681168  0.36328856515652
 6 -6.59949561126113  0.79535036493649 -0.17546610181018
 6 -5.25341528312831  1.07116915361536 -0.09288361856186
 6  11.97513676057606  0.08685871537154  1.21609113721372
 6  11.67687497759776 -0.58440459565957 -1.32350623032303
 6  12.66689391749175 -1.33877810751075  1.45036977037704
 6  13.32577726442644 -1.92281681508151  0.15993995839584
 6  12.36204113881388 -2.05169967896790 -0.92208617111711
 6  11.02003889178918  0.04221896979698 -0.04362718241824
 6  11.20717212211221  0.43577021902190  2.51225356555656
 6  13.05530864756476  1.18271149194920  1.19620267126713
 6  12.39471577777778  0.36235510881088 -2.22918686648665
 6 -4.73844033973397  2.34479698569857 -0.41952680158016
 6  9.83729491699170  0.59925072787279  0.02041086438644
 6 -3.33799895829583  2.73377213091309 -0.49352961366137
 6  8.62309209520952  0.92899923372337 -0.03652799279928
 6 -2.95179686478648  4.06108756825683 -0.58386811891189
 6 -2.34544145924592  1.71526337503750 -0.17523005770577
 6  7.44169371187119  0.16759734773477  0.12867368326833
 6  7.60592532903290 -1.35171212331233  0.33649357225723
 6  6.26323767176718  0.63199012931293  0.13744980898090
 6 -1.04287841934193  1.90012913661366 -0.19629780488049
 6  4.93385498829883  0.07759687578758  0.12040340914091
 6  0.02710918991899  0.94232754265427  0.00286118331833
 6  3.81050045774577  0.84233458385839  0.05853838483848
 6  1.42036397719772  1.26694842254225 -0.01054343524352
 6  2.41343924442444  0.37218651835184  0.16207956585659
 6  2.10656051775178 -1.12200638093809  0.35529412301230
 1 -13.12988478927893 -3.06658963676368 -1.14827005100510
 1 -13.87732295599560 -1.48556254045405 -1.72049850455046
 1 -13.78660646284628  0.09823689248925  1.96934961766177
 1 -13.75368476207621  0.56671179827983  0.20149781538154
 1 -14.58294559865987 -1.71381009440944  0.54904650895090
 1 -10.58057667456746 -3.03927070987099 -1.63418871427143
 1 -11.43101331023102 -2.37549234063406 -3.19979826602660
 1 -10.02174435793579 -1.42777198579858 -2.66153776627663
 1 -9.28581723652365  1.11038316931693 -0.97242105220522
 1 -9.99090041764176  0.19507077117712  2.26154189698970
 1 -11.84916027692769  0.21529823142314  2.96440479057906
 1 -11.14634532823282 -1.15399227572757  2.24973576327633
 1 -11.77620016251625  2.29909603160316 -0.10988777277728
 1 -12.60998723812381  2.32269784528453  1.58846255805581
 1 -10.68558884098410  2.39045963646365  1.54258855235524
 1 -11.94405747824782 -2.87007988158816  0.78113259215922
 1 -8.84674551645164 -1.60372873057306  0.58244734363436
 1 -5.26331577767777 -1.91535486058606 -0.36806485088509
 1 -5.71067348264827 -1.54245947854785  1.35848424462446
 1 -6.70840095069507 -2.72574484748475  0.52610876167617
 1 -7.51301261236124  1.41163949304931 -0.21030070657066
 1 -4.52503914861486  0.21069968836884  0.22154837913791
 1  13.49843552065206 -1.20315200260026  2.22699764036404
 1  11.89117429442944 -1.98393777377738  1.82045804550455
 1  13.53331568846885 -3.01676334133413  0.45535246114611
 1  12.94208164666467 -2.31903838233823 -1.84258735343534
 1  11.47442745094509 -2.59663878777878 -0.87287262936294
 1  11.87716732493249  0.43856422312231  3.39334437313731
 1  10.59214619231923  1.40616617971797  2.32464998919892
 1  10.39549717091709 -0.38357667216722  2.63354959615962
 1  13.74500140204020  1.12199082328233  0.34081814661466
 1  12.63066567976798  2.16331576937694  0.89071377707771
 1  13.62782861996200  1.19894437353735  2.24826130773077
 1  12.67541836133613 -0.23618022762276 -3.05336778867887
 1  11.84446151455145  1.20306239713971 -2.33128106300630
 1  13.16937777037704  0.89120517341734 -1.56732221762176
 1 -5.58538076197620  3.02379676647665 -0.48148955975598
 1  10.00585183578358 -0.40635929352935 -2.05719805560556
 1  15.00102294749475 -0.86122593699370  0.60464906420642
 1  8.46932878367837  1.98650097729773 -0.19991726892689
 1 -2.77429251345134  4.40855730543054  0.51538736843684
 1 -2.06231499579958  4.08581580638064 -1.37647075617562
 1 -3.67460384548455  4.65887406920692 -1.18692849434944
 1 -2.68037765786579  0.62214442644264 -0.13042599719972
 1  6.86209895979598 -1.81045060716072 -0.00860837613761
 1  8.35066028052805 -1.64344906970697 -0.34691546564656
 1  8.07811773337334 -1.56747907630763  1.46911067196720
 1  6.12391753885389  1.63096690209021 -0.02262428212821
 1 -0.69721107810781  2.93577762126213 -0.64217412891289
 1  4.88349433583358 -1.10366686338634 -0.14753207210721
 1 -0.26403532673267 -0.07901971487149  0.47689030013001
 1  3.77782695059506  1.81535717191719  0.21290906590659
 1  1.64456133133313  2.24954074597460 -0.36394909330933
 1  1.06638547334733 -1.30452705690569  0.58382737833783
 1  2.51484280908091 -1.58953525502550 -0.52087985798580
 1  2.72218891529153 -1.58926315531553  1.07186047264726
=======
>>>>>>> 6a1b998aacd80a23911c140f266e48a14f2d523d

