%nproc=3
%Mem=2GB
# td=(NStates=1) CAM-B3LYP/6-31G(d,p) 

TD

0 1
<<<<<<< HEAD
 8 -11.81821848944895  0.37543819221922 -1.37307447104710
 8 -12.75480631643164 -2.72643095109511  1.39890557555756
 8  10.60298581848185 -1.25604549244925 -2.07535126142614
 8  14.47360072677268 -1.08771749324932  0.01385689828983
 6 -11.07652581978198 -0.09724367906791 -0.26313573797380
 6 -11.70563685338534 -0.99636081598160 -1.23072191249125
 6 -11.72832487548755  0.17294397719772  1.18673832883288
 6 -13.08390359405941 -1.66055621352135 -0.89574120812081
 6 -13.13943240124012 -0.23798124572457  1.16832152005200
 6 -13.39323575707571 -1.67150868866887  0.70802957025703
 6 -11.00737632633263 -1.76098151565156 -2.32083440174017
 6 -9.63061250505050  0.21389852365237 -0.40396735483548
 6 -10.87683366076608 -0.47451304730473  2.31216628372837
 6 -11.69306968726873  1.72252735583558  1.28697678937894
 6 -8.61398482018202 -0.76725476667667 -0.28612987398740
 6 -7.20157814741474 -0.54884673077308 -0.21574387408741
 6 -6.33053706860686 -1.65931462026203  0.32692492879288
 6 -6.57852351405140  0.72201303120312 -0.44012256745675
 6 -5.27586752835284  0.95327736443644 -0.22643697389739
 6  11.90269951685169  0.04508453795380  1.33424295239524
 6  11.68853614371437 -0.66775293049305 -1.19729360906091
 6  12.53505073317332 -1.26458068776878  1.66064079747975
 6  13.36435112181218 -1.87738227162716  0.41577554195419
 6  12.42813774847485 -1.97994250325033 -0.75494945744574
 6  11.05435232313231 -0.06163141524152  0.05396257655766
 6  11.01843324822482  0.36505314731473  2.53238557875788
 6  12.84507762446245  1.27269048984899  1.32682573357336
 6  12.56484279047905  0.28074694799480 -1.96326027382738
 6 -4.75290178587859  2.23090559655966 -0.48398324722472
 6  9.80600178767877  0.42604340714071 -0.03895507220722
 6 -3.39148430683068  2.54295304900490 -0.51648190889089
 6  8.63201298729873  1.01056739053905 -0.17679201920192
 6 -2.98214990009001  3.95569702920292 -0.88748848094809
 6 -2.36852376747675  1.64791664036404 -0.26968950365037
 6  7.42073161566157  0.12957354535454  0.03483429932993
 6  7.55483021952195 -1.28148510061006  0.21826174907491
 6  6.22219356735674  0.76885381568157 -0.18669260526053
 6 -1.02888702020202  1.96601572527253 -0.26510468556856
 6  4.91824342714271  0.19861897799780 -0.06934556575658
 6  0.08586506550655  1.11204451435144 -0.11634073687369
 6  3.85275468316832  0.92710306070607 -0.38795626462646
 6  1.48907084788479  1.29864159185919 -0.26588896979698
 6  2.47540544104410  0.48386768646865 -0.06471311341134
 6  2.16603646534653 -0.97789196949695  0.35547414101410
 1 -13.05724752555255 -2.71320429822982 -1.14142936693669
 1 -13.84474969866987 -1.04084806900690 -1.42927938263826
 1 -13.54761256345635 -0.14198712991299  2.36911959465947
 1 -14.16100549414941  0.32640776787679  0.80266793239324
 1 -14.40723802790279 -1.73023173657366  0.84602620692069
 1 -10.75404402130213 -2.73752053485349 -2.10522581798180
 1 -11.66316652555256 -1.74140893229323 -3.29255754195420
 1 -10.05108729222922 -1.26446565516552 -2.74865647814782
 1 -9.37475613041304  1.35065719671967 -0.40462427252725
 1 -10.00984231183118  0.11639290339034  2.14205994879488
 1 -11.31075643654365 -0.24404770317032  3.38520687078708
 1 -10.67976867056706 -1.54504138063806  2.21379216891689
 1 -12.04061660416042  2.28605472747275  0.47981119711971
 1 -12.31764800420042  2.09554513001300  2.27343105490549
 1 -10.69538982108211  2.06003659415942  1.48997329082908
 1 -11.79848292079208 -2.41482435603560  1.33595807470747
 1 -9.06035687758776 -1.82040039773977 -0.27896879797980
 1 -5.64699414551455 -2.04118744384438 -0.47025506990699
 1 -5.74021643694369 -1.35159039163916  1.20110850705070
 1 -6.89741985258526 -2.45001727472747  0.35785193599360
 1 -7.23516482758276  1.64710303940394 -0.63251292779278
 1 -4.62514915961596  0.06174479287929  0.17410363466347
 1  13.08936461356136 -1.04726641404140  2.56887182778278
 1  11.83110828782878 -2.08763814381438  1.90689668936894
 1  13.52814517141714 -2.87989965496550  0.61091801770177
 1  12.89087652615261 -2.50562704120412 -1.65075817051705
 1  11.54959496769677 -2.51088021192119 -0.35408075017502
 1  11.53941354955496  0.11682204890489  3.29683472217222
 1  10.75333231093109  1.29402496559656  2.45534305850585
 1  10.21821944314431 -0.28572688718872  2.84231047224722
 1  13.61821872377238  0.97686631083108  0.79817388218822
 1  12.37213982718272  2.14524396219622  0.93010771647165
 1  13.22337817491749  1.29002348144815  2.37842432403240
 1  12.95972679217922 -0.08253486308631 -2.84997744964496
 1  11.84850191859186  1.02601469236924 -2.22784071897190
 1  13.27042787538754  0.81030708360836 -1.27621310671067
 1 -5.47854007790779  3.07968235503550 -0.35869728052805
 1  9.87866911751175 -0.69750840844084 -2.15825816161616
 1  15.15476832203220 -1.01416123052305  0.80948954825483
 1  8.34536638743874  2.00543287048705 -0.61724900210021
 1 -2.44722980718072  4.49129557925793  0.11953778347835
 1 -2.14689345364536  4.09475670047005 -1.64389749884988
 1 -3.91380776587659  4.63643182498250 -1.27710751225122
 1 -2.64302392249225  0.63944615661566 -0.06580953555356
 1  6.55884863476348 -1.74009357145715  0.05615810051005
 1  8.49130434493449 -1.61499622442244 -0.28392916701670
 1  7.78596851845185 -1.51617394579458  1.43034679557956
 1  6.37773292039204  1.95447925332533 -0.29484150385038
 1 -0.62455381238124  2.92851689518952 -0.63642355385539
 1  4.86826281268127 -0.91487798449845  0.30787346844684
 1 -0.07581650485049  0.08889707680768  0.39995260636064
 1  3.99621878977898  1.91809744594459 -0.65149737473747
 1  1.72881975717572  2.33361915381538 -0.67514021242124
 1  1.16564539933993 -1.44010061426143  0.04903389898990
 1  3.05782710751075 -1.46054235573557 -0.09458722872287
 1  2.26695339173917 -1.04536876587659  1.53210649724972
=======
>>>>>>> 6a1b998aacd80a23911c140f266e48a14f2d523d

