%nproc=3
%Mem=2GB
# td=(NStates=1) CAM-B3LYP/6-31G(d,p) 

TD

0 1
<<<<<<< HEAD
 8 -11.79398606620662  0.31694234263426 -1.59778694229423
 8 -12.79699053485349 -2.41257956595660  1.54894057905791
 8  10.69277479737974 -1.05436532443244 -2.11964569086909
 8  14.59309267596760 -0.77582630413041 -0.15749023642364
 6 -11.12403057025703 -0.11659561426143 -0.35188461286129
 6 -11.86793308300830 -1.11853303320332 -1.23966280658066
 6 -11.83562560556055  0.52374905770577  0.90852050705070
 6 -13.16954215791579 -1.70777093499350 -0.80824245824582
 6 -13.20155861386139  0.06436898929893  0.92249693759376
 6 -13.48123455695569 -1.43060459825983  0.66650541784178
 6 -11.03350893959396 -2.00575599309931 -2.20853317161716
 6 -9.68096754055406  0.14147128092809 -0.40269722782278
 6 -11.10502648004800 -0.02863845984598  2.29166423352335
 6 -11.70875125542554  2.03852895599560  0.83741183288329
 6 -8.64349777147715 -0.69242728392839  0.05836457545755
 6 -7.25387337693769 -0.59824167026703 -0.00944324402440
 6 -6.49032304720472 -1.79092778157816  0.35310754705471
 6 -6.59716537823782  0.67842867276728 -0.25745430063006
 6 -5.29458940054005  0.83099513621362 -0.28598292849285
 6  11.95932517941794 -0.01170114061406  1.43034256235624
 6  11.80559784988499 -0.61534768996900 -1.30332421212121
 6  12.72717994609461 -1.22450668036804  1.46415114851485
 6  13.50278496519652 -1.60830536393639  0.22309627402740
 6  12.66181111581158 -1.79452396139614 -0.96136009850985
 6  11.13201008890889  0.01155590349035  0.11283846414641
 6  10.96492789768977  0.05678232023202  2.62085442564256
 6  12.81325444214422  1.30484370517052  1.50203325432543
 6  12.48439474567457  0.41874074737474 -2.01378532633263
 6 -4.70572706840684  2.05246775277528 -0.48859370827083
 6  9.90668185568557  0.53538434123412 -0.05405658235824
 6 -3.36087124552455  2.49637839153915 -0.43284354505451
 6  8.66191597759776  0.93565989978998 -0.12354669466947
 6 -3.03404508960896  3.86743820332033 -0.53350308240824
 6 -2.37002391749175  1.45978782748275 -0.35263779847985
 6  7.47648719121912  0.07664825282528 -0.08293747784778
 6  7.69158389488949 -1.36370332243224  0.11098102100210
 6  6.25974732273227  0.69640657095710 -0.06646058205821
 6 -0.99687381888189  1.69045816951695 -0.21414959005901
 6  4.99707130993099  0.18734785088509  0.12728409720972
 6 -0.03252677367737  0.77187049694970 -0.06432553535354
 6  3.77695710341034  0.81429177957796 -0.06269373837384
 6  1.37382932373237  1.02464419211921 -0.11705408630863
 6  2.46587448794880  0.23277257695770  0.00090344824482
 6  2.35790565226523 -1.26845102540254  0.38781737533753
 1 -13.13334513531353 -2.76236921472147 -0.82261748574857
 1 -13.91944716841684 -1.44288827302730 -1.61617807250725
 1 -13.82270007220722  0.24693176197620  1.87000968366837
 1 -13.69712910651065  0.70031515861586  0.14155182078208
 1 -14.67426473057306 -1.86643535693569  0.85066667096710
 1 -10.96736535343534 -3.01651843464346 -1.86734202960296
 1 -11.78017822672267 -2.24507929932993 -3.03585187138714
 1 -10.29842202570257 -1.49000820942094 -2.49819143164316
 1 -9.18504715951595  0.94145627662766 -1.06499030913091
 1 -10.13997532513251  0.60400166426643  2.35140088288829
 1 -11.73498885978598  0.05561226282628  3.10858920902090
 1 -10.82901359505951 -1.17520439693969  2.40762155185518
 1 -12.08094063656366  2.44143026502650 -0.23007979197920
 1 -12.46637287668767  2.52957853335334  1.69999371117112
 1 -10.63707398949895  2.32681327182718  1.01394568806881
 1 -11.94986805930593 -2.55752862646265  1.04060853975398
 1 -9.06017685958596 -1.61013937163716  0.70574967386739
 1 -5.96152559865987 -2.32313563866387 -0.57065510991099
 1 -5.56266868216822 -1.41679691229123  0.81232962916292
 1 -7.11729183978398 -2.74922719571957  0.98019417021702
 1 -7.23664497559756  1.55634396349635 -0.25679535603560
 1 -4.56956360106011 -0.03317469906991 -0.02521629732973
 1  13.31468714581458 -1.33239492689269  2.45050999159916
 1  11.87138231523152 -2.24259363936394  1.51649764946495
 1  13.94159651655166 -2.67862952795280  0.54716164206421
 1  13.22070950945094 -2.03079955845585 -1.75729882458246
 1  12.04507451565157 -2.72025114901490 -0.87369271137114
 1  11.40552016021602  0.13559392609261  3.54876991569157
 1  10.32226920462046  0.86139170227023  2.50887841204120
 1  10.27763538473847 -0.92777109160916  2.53444968616862
 1  13.40279718161816  1.45719434363436  0.63310737553755
 1  12.07237985118512  2.14394383218322  1.56633133883388
 1  13.31389722682268  1.37332181128113  2.55328180978098
 1  12.44368518801880  0.25709910031003 -3.08767121902190
 1  12.04580164856486  1.50875296619662 -1.95535347024702
 1  13.47767860046005  0.65590164306431 -1.71167665306531
 1 -5.38188041194119  3.08874326112611 -0.30924233503350
 1  10.30333158375838 -0.17418607620762 -2.65109744554455
 1  15.07888073327333 -0.21245105950595  0.75535413471347
 1  8.41284313511351  2.03455578277828 -0.23957123432343
 1 -2.85502058625863  4.45086153585359  0.38450428012801
 1 -1.99721848614861  3.74156138093809 -1.24936804590459
 1 -3.85784216931693  4.55571375317532 -1.08498830033003
 1 -2.74494411451145  0.28848106010601 -0.19039199379938
 1  6.83256600650065 -1.97602716481648 -0.35874338963896
 1  8.57674288878888 -1.38817354215421 -0.66979775387539
 1  8.15168509010901 -1.54956728512851  1.10866462736274
 1  6.24524967206721  1.78337214261426 -0.38823084278428
 1 -0.52697405440544  2.83408745224523 -0.56025593709371
 1  4.89450543694370 -0.88633513021302  0.70348302940294
 1 -0.38280720392039 -0.25880769366937  0.16654926602660
 1  3.73227239513951  1.92533817001700 -0.31820404540454
 1  1.34467134233423  2.20674646654665 -0.36971967036704
 1  1.44323315811581 -1.36385298949895  0.66253524912491
 1  2.37278860366037 -1.82770907240724 -0.70519828982898
 1  3.09368606500650 -1.59662389138914  1.23024631123112
=======
>>>>>>> 6a1b998aacd80a23911c140f266e48a14f2d523d

