%nproc=3
%Mem=2GB
# td=(NStates=1) CAM-B3LYP/6-31G(d,p) 

TD

0 1
<<<<<<< HEAD
 8 -11.66885355295530  0.14882553095310 -1.50372753635364
 8 -12.87487832363236 -2.52742105010501  1.41369705470547
 8  10.71889740964096 -1.21498138603860 -2.06634036033603
 8  14.42506587328733 -1.20483920542054  0.11483699629963
 6 -11.02566073327333 -0.23204715941594 -0.26889631403140
 6 -11.62046833653365 -1.24509568946895 -1.21200004030403
 6 -11.71237328032803  0.23674035683568  0.95301495649565
 6 -12.91856706040604 -1.81164132203220 -0.89418105210521
 6 -13.25582404040404 -0.13619106670667  0.93354804270427
 6 -13.38629506300630 -1.56287782558256  0.49789855715572
 6 -10.72678826752675 -2.13820923842384 -2.17687000530053
 6 -9.58795823962396  0.19430656445645 -0.40474743284328
 6 -10.97049302670267 -0.26780237623762  2.25295036213621
 6 -11.65891627192719  1.80506560966097  0.86655474717472
 6 -8.65442886458646 -0.61234927612761  0.13384212321232
 6 -7.17251524112411 -0.48266011211121  0.05467316761676
 6 -6.32157617251725 -1.67731642044204  0.37195943224322
 6 -6.60354601630163  0.77468829872987 -0.09335789098910
 6 -5.22795273687369  1.00541257795780 -0.16332066226623
 6  11.78166741364137  0.02836286578658  1.36807633573357
 6  11.69639692979298 -0.65388154335434 -1.21642552225223
 6  12.53288051615161 -1.30240447014701  1.64646938033803
 6  13.23588827552755 -1.88551308470847  0.40301426582658
 6  12.28662359705971 -2.00435494449445 -0.77787174967497
 6  11.07641452935293  0.06473122102210 -0.04300712041204
 6  10.82585399029903  0.30600724272427  2.52331467166717
 6  12.82697581428143  1.17519073987399  1.31312436343634
 6  12.52676898309831  0.31290016331633 -2.02187613541354
 6 -4.74239073477348  2.32194470047005 -0.25623047194719
 6  9.91744293179318  0.61630243304330 -0.15888706540654
 6 -3.32456761516152  2.69608836253625 -0.29492975367537
 6  8.66338612461246  0.99033536733673 -0.34813915391539
 6 -3.16716840194019  4.21357281678168 -0.58881861396140
 6 -2.36000291539154  1.73286513521352 -0.16170870557056
 6  7.51160070257026  0.16806739473947 -0.05600478457846
 6  7.69296403290329 -1.32728968106811  0.02361228412841
 6  6.22751409940994  0.83424035433543 -0.23327726372637
 6 -0.96247037853785  2.04823394709471 -0.10650882598260
 6  4.92310391319132  0.13849296539654 -0.12937156835684
 6  0.00500697969797  0.93615692559256 -0.08567767056706
 6  3.78533794149415  0.89336968736874 -0.16459392839284
 6  1.36059800060006  1.25322705040504 -0.18452083298330
 6  2.45132303280328  0.34441374107411 -0.18182482458246
 6  2.26141600330033 -1.16217039733973  0.06008460206021
 1 -13.05099690049005 -2.84962794059406 -1.07155237923792
 1 -13.50700592429243 -1.32038602280228 -1.60375683038304
 1 -13.71854965716572 -0.15074800600060  1.95766844954496
 1 -13.97092648624862  0.47107223432343  0.28305597119712
 1 -14.41624892899290 -1.86259497289729  0.38391999629963
 1 -10.39097771467147 -3.09189597239724 -1.72920821622162
 1 -11.46736694559456 -2.50214500590059 -2.86057434363436
 1 -9.81928411191119 -1.73510271887189 -2.61798341084108
 1 -9.32296095089509  1.13272540354035 -0.74515832593259
 1 -9.92758408600860  0.08301956605661  2.39616535933593
 1 -11.80599596049605  0.02571927352735  3.01187953805381
 1 -10.82854354805480 -1.20354723122312  2.43871466116612
 1 -11.85125766826683  2.35994211621162 -0.15657244124412
 1 -12.08586482588259  2.28550412591259  1.67355106690669
 1 -10.64214449654966  2.18973956445645  1.06521081458146
 1 -11.84096716921692 -2.29848272187219  1.20399487838784
 1 -8.96437727962796 -1.64157251495150  0.33119221812181
 1 -5.68258770487049 -1.87115044014401 -0.54427247164716
 1 -5.78704111941194 -1.40276550915092  1.31645004120412
 1 -7.03634374497450 -2.49997227022702  0.47239339013901
 1 -7.20291160226023  1.60727905700570 -0.09477915441544
 1 -4.47326397109711  0.06562518091809 -0.03983775947595
 1  13.34380005710571 -1.22859454685469  2.33790873147315
 1  11.94977015401540 -2.13455283528353  1.83695969566957
 1  13.54340669756976 -3.01421308630863  0.59148607450745
 1  12.90491793029303 -2.35457193569357 -1.70871396609661
 1  11.58701871007101 -2.77962708660866 -0.56130147224722
 1  11.29884949314932  0.46967733443344  3.36372141084108
 1  10.50260723842384  1.38511407450745  2.34486201040104
 1  9.99719734093409 -0.43155146964696  2.49077531873187
 1  13.66052295419542  0.92906153035304  0.59320338513851
 1  12.25509812301230  2.15137457525753  1.22570727642764
 1  13.34483032013201  1.25456993609361  2.28829531113111
 1  12.82536335583558 -0.14989159875988 -2.85254770667067
 1  11.74254132253225  1.19118120902090 -2.29755769066907
 1  13.37827866046605  0.80392644554455 -1.57282276767677
 1 -5.45620784468447  3.12124651145115 -0.33370478127813
 1  10.15556680728073 -0.39714837243724 -2.63888622442244
 1  14.67920076527653 -0.95520533493349  1.14005260456046
 1  8.45725757655766  2.13149547674767 -0.53097037423742
 1 -2.51089617381738  4.55082153185318  0.41275710541054
 1 -2.75365412971297  4.36606383118312 -1.63483659275928
 1 -4.15872225732573  4.81894007580758 -0.70997079857986
 1 -2.78574819491949  0.75644785678568  0.15209225462546
 1  6.79929267916792 -1.80143970607061 -0.05364287958796
 1  8.54086930143014 -1.65570029482948 -0.52583335743574
 1  8.04388431003100 -1.78277060546055  0.91552531343134
 1  6.35721086818682  1.76013981938194 -0.46636865656566
 1 -0.61687304430443  3.09707375087509 -0.10926083758376
 1  4.69154514091409 -0.99154565126513  0.08732141324132
 1 -0.45814473767377 -0.04954676757676  0.33169578067807
 1  3.82401156905691  1.90403603980398 -0.63896612161216
 1  1.64475135033503  2.36696248814882 -0.18080077847785
 1  1.20794962976298 -1.54169077327733 -0.43668467286729
 1  3.02785411021102 -1.67255355685569 -0.53524129412941
 1  2.28071476787679 -1.26897112611261  1.39839312591259
=======
>>>>>>> 6a1b998aacd80a23911c140f266e48a14f2d523d

