%nproc=3
%Mem=2GB
# td=(NStates=1) CAM-B3LYP/6-31G(d,p) 

TD

0 1
<<<<<<< HEAD
 8 -11.58247491509151  0.10608125652565 -1.64064122772277
 8 -13.02216305210521 -2.26428473647365  1.54468015301530
 8  10.46889240914091 -1.10985087298730 -2.00366409270927
 8  14.50928429512951 -0.76683540504050 -0.20896538393839
 6 -10.98071623882388 -0.15714966966697 -0.43191261566157
 6 -11.62621891159116 -1.24601578147815 -1.21409024932493
 6 -11.68696073907391  0.38171485428543  0.82017167216722
 6 -13.00694589828983 -1.83419357725773 -0.86717835183518
 6 -13.18833729172917  0.12052460486049  0.71016570447045
 6 -13.48774520802080 -1.41960349814981  0.60584935223522
 6 -10.77625321402140 -2.12263768126813 -2.11462378067807
 6 -9.53190263406341  0.03180031383138 -0.38405536363636
 6 -11.08013399079908  0.02143654765477  2.17386245334533
 6 -11.63232361266127  2.01651675477548  0.66172426412641
 6 -8.61148457015702 -0.75933397459746  0.16732547154715
 6 -7.21904989458946 -0.67213906000600  0.10062776307631
 6 -6.37057107200720 -1.86604529332933  0.22460469676968
 6 -6.68385404710471  0.68097892779278 -0.00661921712171
 6 -5.27511745334533  0.93563560026003 -0.16795112531253
 6  11.92386163306331  0.01237126662666  1.33459298739874
 6  11.62856014611461 -0.70925708090809 -1.19553343304330
 6  12.72475970407041 -1.42560679037904  1.45882061546155
 6  13.45355004170417 -1.73352788618862  0.13341730613061
 6  12.41931686638664 -1.82577708670867 -0.99015297779778
 6  11.08158504640464 -0.07374262636264  0.06629380968097
 6  10.99256066096610  0.17549419141914  2.54822716291629
 6  12.86496961366137  1.19731295209521  1.34132718371837
 6  12.41985829202920  0.33219209250925 -2.12981692949295
 6 -4.70304680038004  2.15156766276628 -0.34400924982498
 6  9.86632782028203  0.55900670347035  0.09665848914891
 6 -3.49112427082708  2.51524027772777 -0.34176443714371
 6  8.67508729472947  1.03335966976698 -0.10976531653165
 6 -3.08270995609561  4.00144160366037 -0.53061279337934
 6 -2.29387630273027  1.61882373107311 -0.16563909860986
 6  7.44292383488349  0.22438302630263 -0.03490267436744
 6  7.62907764426443 -1.26113306540654 -0.02523260036004
 6  6.19734108210821  0.69240617091709 -0.04505844184418
 6 -0.94296842834283  1.85182430613061 -0.15048322342234
 6  4.92523412621262  0.15450456655666 -0.00865949714971
 6  0.06290276927693  0.88632194209421  0.06680757795780
 6  3.74852426012601  0.88305865626563  0.04829736073607
 6  1.38537047784778  1.16976870457046  0.09361698079808
 6  2.47810571107111  0.26705600530053  0.09036239413941
 6  2.23268313001300 -1.18840302060206  0.18873746734673
 1 -13.12941474227423 -2.98675165296530 -0.77740296429643
 1 -13.81820704440444 -1.55699968416842 -1.44325077977798
 1 -14.03185098729873  0.62497956675667  1.54866754945495
 1 -13.46615600920092  0.66033116021602 -0.22538487288729
 1 -14.54968227232723 -1.53663237663766  0.77853945824582
 1 -10.34783340024002 -2.95166194899490 -1.54061935733573
 1 -11.40497070597060 -2.56477126852685 -2.89416770297030
 1 -9.92489467296730 -1.60843005160516 -2.20421203370337
 1 -9.35153380818082  0.74431656265627 -1.16162997309731
 1 -10.07136846444645  0.29932119621962  2.27075281808181
 1 -11.61172653355336  0.54545124672467  3.01048939903990
 1 -10.79401009470947 -0.84887176367637  2.41610239993999
 1 -12.16061860436044  2.13551967396740 -0.32536932093209
 1 -12.32415865526553  2.44963053855385  1.26775048684869
 1 -10.68154843694369  2.30865145564556  0.61573586708671
 1 -11.91425449794979 -2.26027890149015  1.15297977687769
 1 -9.08591943384338 -1.75409376707671  0.64334343324332
 1 -6.11372081818182 -2.28900222532253 -0.97543558795880
 1 -5.37229964526453 -1.57452268486849  0.72436083228323
 1 -6.78694880548055 -2.70505277827783  0.90944709550955
 1 -7.36207751885188  1.62138046714671 -0.00977065356536
 1 -4.61103774847485 -0.01769315091509 -0.29177295299530
 1  13.63078875597560 -1.34416610401040  2.19608454905491
 1  11.97337251425143 -2.19480886088609  1.73149914961496
 1  14.00656301320132 -2.69316098109811  0.19221614751475
 1  12.92765020352035 -2.24610108860886 -2.01915501020102
 1  11.70601060926093 -2.56960608450845 -0.61880722282228
 1  11.54705431363136  0.20645101180118  3.55544058275828
 1  10.28693567126713  1.08816437953795  2.53280080428043
 1  10.35786340754075 -0.65488380288029  2.45309155035504
 1  13.60025692759276  1.24619324352435  0.43464752955296
 1  12.22001461466147  2.01730116791679  1.26665137083708
 1  13.67960379747975  1.26916139523952  2.24069055065507
 1  12.42291311081108 -0.38837544714471 -3.07363981588159
 1  11.84287135553555  1.23946603750375 -2.20456839173917
 1  13.26650748334833  0.55625167806781 -1.72730821622162
 1 -5.48742096599660  2.97177156395640 -0.37746915771577
 1  10.19344059465947 -0.35140379797980 -2.37381971777178
 1  15.03354619981998 -0.49047886228623  0.67620621992199
 1  8.42676452725273  2.07638996619662 -0.29078635583558
 1 -2.72410749494949  4.47877432713271  0.30668649834983
 1 -2.13642240654065  4.24054127892789 -1.28427153625363
 1 -4.06212259735974  4.51877005880588 -0.85648545004500
 1 -2.72567218731873  0.44473668566857  0.07567461286129
 1  6.65191794169417 -1.89321888398840 -0.25001251655166
 1  8.41761697619762 -1.37678240304030 -0.95754652875288
 1  7.96381630323032 -1.69648197659766  1.02842660356036
 1  6.16783193029303  1.81873567896790 -0.07090911061106
 1 -0.59416077307731  2.92088613211321 -0.30719063056306
 1  4.93636962336234 -0.92732922962296  0.08934161526153
 1 -0.36079500270027 -0.15095690859086  0.13950656175618
 1  4.02734190209021  2.09400503670367  0.04829260426043
 1  1.64764163936394  2.26017180908091 -0.00385308370837
 1  1.15323415821582 -1.40006661086109  0.33874286988699
 1  2.74054537933793 -1.71564786628663 -0.64961273127313
 1  2.55660235663566 -1.43537776677668  1.21607489408941
=======
>>>>>>> 6a1b998aacd80a23911c140f266e48a14f2d523d

