%nproc=3
%Mem=2GB
# td=(NStates=1) CAM-B3LYP/6-31G(d,p) 

TD

0 1
 8 -11.77238390599060  0.08827947634763 -1.74390155375538
 8 -13.19012984878488 -2.34605291329133  1.50911659665967
 8  10.61447696759676 -1.03244313221322 -2.16646037233723
 8  14.47757112381238 -0.96726544804480 -0.24081856925693
 6 -11.04588275547555 -0.17255120982098 -0.40337976237624
 6 -11.64291058075808 -1.23530471037104 -1.21345018531853
 6 -11.82257430043004  0.37648433123312  0.74515417041704
 6 -12.95059026272627 -1.82440259815982 -0.85885751975198
 6 -13.32587104510451 -0.02762020962096  0.79256394429443
 6 -13.67154358785879 -1.40182171997200  0.38442721002100
 6 -10.83931952065207 -2.10547596509651 -2.13918623692369
 6 -9.57812725652565  0.05908304210421 -0.47810476857686
 6 -11.05105108250825  0.07910231423142  2.12772783988399
 6 -11.82874325462546  1.95974107720772  0.57398549024903
 6 -8.71009443114311 -0.73359140034003  0.15729446844684
 6 -7.22800078967897 -0.59705155125513  0.19888758905891
 6 -6.47611162606261 -1.82430111891189  0.54352658895890
 6 -6.63249891159116  0.59154998489849 -0.05511406660666
 6 -5.25342528412841  0.76823886058606 -0.09245357555756
 6  11.94891413831383 -0.05144511501150  1.32057158525853
 6  11.66446373647365 -0.65074122932293 -1.36005988568857
 6  12.76381360946095 -1.30925515521552  1.36111084448445
 6  13.46609129582958 -1.84734926832683  0.11198516291629
 6  12.42455739043904 -1.91962647164717 -1.10688465096510
 6  11.08734562246225 -0.04021927402740  0.07575475577558
 6  11.14579598449845  0.20592723472347  2.49406174637464
 6  12.95454857155716  1.13201642244224  1.29855290629063
 6  12.38735504170417  0.51591046434643 -2.07784173197320
 6 -4.77033352905291  2.11995450145014 -0.23242809170917
 6  9.99731091859186  0.53020382318232 -0.08338951565157
 6 -3.33421858025803  2.56269502320232 -0.41685194589459
 6  8.74482426842684  0.99671600540054 -0.05553989398940
 6 -3.02452413751375  3.99111057055706 -0.70418015011501
 6 -2.24437135223522  1.64923677237724 -0.09497203190319
 6  7.45756529902990  0.21963255125513  0.09885070097010
 6  7.66114085058506 -1.31242819491949  0.07028695159516
 6  6.24159550755075  0.80348727902790  0.07532359635964
 6 -0.91118525002500  1.85002412611261 -0.11351952705271
 6  5.01334293709371  0.14029314541454  0.19147051585159
 6  0.10887736673667  0.95156846674667  0.03175407260726
 6  3.81249065676568  0.85873622402240  0.22070460146015
 6  1.38039998079808  1.26278800650065 -0.03536591749175
 6  2.53279117961796  0.37401670137014  0.20580393829383
 6  2.36136599829983 -1.10039421972197  0.40341893549355
 1 -12.97274907570757 -2.91951492929293 -1.01789701370137
 1 -13.44086931063106 -1.48650263446345 -1.79450590529053
 1 -13.54044184638464  0.20140720952095  1.86382906560656
 1 -13.91324071767177  0.68389351645164  0.24020168576858
 1 -14.75050235433543 -1.58134684808481  0.26112771707171
 1 -10.18789740664066 -2.95454223702370 -1.65118041344134
 1 -11.28045825472547 -2.37674246564656 -3.05291357755776
 1 -10.05779796329633 -1.46904611321132 -2.70665227772777
 1 -9.27215587038704  0.90897302830283 -1.10014382448245
 1 -10.14866619421942  0.62770403450345  2.11849759255926
 1 -11.46648200910091  0.42735943754375  2.99443779387939
 1 -10.90822151585158 -0.97441431793179  2.25147593729373
 1 -12.28768131063106  2.03789991199120 -0.52351913591359
 1 -12.37847408680868  2.43982955845585  1.49704341614161
 1 -10.59987026912691  2.52190278077808  0.66523081658166
 1 -12.19565263776378 -2.34103697729773  1.45713019191919
 1 -9.07506834873487 -1.47478583628363  0.91588068696870
 1 -5.87555700180018 -2.33921724682468 -0.49503754815482
 1 -5.84155657095710 -1.53895912851285  1.42976137233723
 1 -7.09260937153715 -2.57043931693169  0.91523767456746
 1 -7.10409172027203  1.68815714481448 -0.24848452495250
 1 -4.48756540124012 -0.00865224682468  0.25531175547555
 1  13.33706938403840 -1.17212890029003  2.21618655925593
 1  12.10668584558456 -2.10652003200320  1.61636763646365
 1  13.84829718661866 -2.93684534953495  0.40169709560956
 1  13.02375981448145 -2.51047752625263 -1.87791088578858
 1  11.55859586778678 -2.77849697359736 -0.87129247134713
 1  11.77775738393840  0.21864223092309  3.38334337303730
 1  10.59066604430443  1.21923748684868  2.49131665586559
 1  10.52461008220822 -0.58740705520552  2.80725696689669
 1  13.69018592049205  1.01341996619662  0.39319338413841
 1  12.27871048424842  2.02304174197420  1.12730743644364
 1  13.40369620672067  1.28698317741774  2.21370785238524
 1  12.51884270377038  0.32872626302630 -3.18575102700270
 1  11.60807787618762  1.32473456435644 -2.02591052595259
 1  13.28096892949295  0.81257731063106 -1.70770625602560
 1 -5.60727295119512  2.81448583538354 -0.43181459225923
 1  10.05125637623762 -0.26394505210521 -2.21578391419142
 1  15.10944378957896 -1.11003081748175  0.58822742204220
 1  8.35461731253125  1.98777110431043 -0.40753803100310
 1 -2.84973005720572  4.62874932463246  0.24729055875588
 1 -2.24757352165217  4.30261748654866 -1.46324943404340
 1 -3.98131451655166  4.44842302410241 -1.14134393589359
 1 -2.52954257435744  0.64810702270227 -0.22818577317732
 1  6.84022677257726 -1.84499406150615  0.10282276697670
 1  8.38177339183918 -1.56651137593759 -0.76661743584358
 1  8.13134305590559 -1.47280960936094  1.06149991089109
 1  6.20938608570857  1.98679248464847 -0.09879189888989
 1 -0.70609196619662  2.95723976747675 -0.30383029452945
 1  4.80192617901790 -0.83752024872487  0.84117679877988
 1 -0.15156407960796 -0.11369318221822  0.09274188528853
 1  3.84765393329333  1.92490812701270  0.10049782478248
 1  1.72697957315732  2.27911370327033 -0.44020671907191
 1  1.19162799759976 -1.17173377757776  1.07019601520152
 1  2.17738906370637 -1.66081238273827 -0.75004277427743
 1  3.03601029742974 -1.63614784378438  1.16352963956396

