%nproc=3
%Mem=2GB
# td=(NStates=1) CAM-B3LYP/6-31G(d,p) 

TD

0 1
<<<<<<< HEAD
 8 -11.71566823442344  0.42128277667767 -1.46206336993699
 8 -12.94545538133813 -2.30162847084708  1.39970565556556
 8  10.49690521042104 -1.06348623652365 -1.96239996629663
 8  14.48635200190019 -1.03636235773577 -0.29740422782278
 6 -11.07157532473247 -0.06382033673367 -0.30298972337234
 6 -11.70831712141214 -1.06483766366637 -1.22390123042304
 6 -11.73480552355235  0.42644932773277  0.94194384938494
 6 -13.15349055275528 -1.59438959685969 -1.02686432043204
 6 -13.29011746974698  0.02346489888989  0.96192087998800
 6 -13.57161359485949 -1.32469400720072  0.46587535483548
 6 -11.09673526222622 -1.86044146164616 -2.33881619991999
 6 -9.66691613541354  0.02993012681268 -0.40070702880288
 6 -11.02100807820782 -0.11690728672867  2.17018208530853
 6 -11.63101348164816  1.88326342944294  0.95935402710271
 6 -8.69258267996800 -0.85265330653065  0.05239397839784
 6 -7.19720771037104 -0.64752659875988 -0.01176347604760
 6 -6.43528754365436 -1.98116680548055  0.15276751305130
 6 -6.72298796049605  0.56831766166617 -0.10864942014201
 6 -5.28860880248025  0.76757879457946 -0.13269759996000
 6  11.97925717261726  0.22028205770577  1.31316084418442
 6  11.62553984408441 -0.56537269246925 -1.16316019571957
 6  12.68203543164316 -1.18224245394539  1.54277901130113
 6  13.38650333703370 -1.69341387478748  0.25081904630463
 6  12.40760569526953 -1.91755626462646 -0.75555951845185
 6  11.09425631353135  0.10258500640064  0.05995317561756
 6  11.04084548944894  0.53816045804580  2.41895423562356
 6  13.00850396709671  1.35707892869287  1.21683473447345
 6  12.43133944014401  0.30203907720772 -2.08986293409341
 6 -4.75992248794879  2.00992349834983 -0.26358120702070
 6  9.90962214971497  0.65565636843684  0.07411623492349
 6 -3.37248240664066  2.42629138283828 -0.37743800450045
 6  8.63660344634463  1.01311764556456 -0.21169550955096
 6 -3.03713539863986  3.78927038653865 -0.55028476057606
 6 -2.29967688278828  1.43112496119612 -0.13591612631263
 6  7.52911245374538  0.16602719071907 -0.09566875097510
 6  7.73515825232523 -1.26634358645865  0.38219814271427
 6  6.31705305330533  0.69437636793679 -0.10011394739474
 6 -0.86176030753075  1.72775189888989 -0.15579375447545
 6  5.01997360016002  0.00538965506551 -0.08521715291529
 6  0.09723620262026  0.78078138803880  0.05101599879988
 6  3.83809321702170  0.69792014241424 -0.23189065806581
 6  1.44308624942494  1.12744447214721 -0.09640202110211
 6  2.46987488798880  0.20197949764976  0.05228858675868
 6  2.27542740444044 -1.22349652995300  0.47114570817082
 1 -13.07290909170917 -2.67800077787779 -1.22316754075408
 1 -13.89312453615361 -1.11397538173817 -1.54450090479048
 1 -13.73843164536454  0.22469953875387  1.82682536523652
 1 -13.84987438103810  0.80238536563656  0.35930359595960
 1 -14.61223852795280 -1.40238895229523  0.58867047134713
 1 -10.94432304920492 -2.97493427622762 -2.29208450385039
 1 -11.67660786968697 -1.57324211561156 -3.34911319751975
 1 -9.84711689518952 -1.58559776837684 -2.20909252175217
 1 -9.25598425322532  0.99944207520752 -0.70710452055206
 1 -10.12840416801680  0.17792905700570  1.98699444224422
 1 -11.47355271617162  0.26498319991999  3.01791014111411
 1 -10.92801349504951 -1.20355723222322  2.42183297299730
 1 -11.90353289578958  2.35436155815582 -0.00009679367937
 1 -12.03666990639064  2.28050362586259  1.85641935373537
 1 -10.51228151025103  2.00716130663066  1.31966626012601
 1 -12.09920299279928 -2.31707458105811  1.23113759265927
 1 -8.99753059495950 -1.91364972267227  0.41322042094209
 1 -6.19133857995800 -2.44235756085609 -0.88613665806581
 1 -5.52605502080208 -1.74572980558056  0.73739213541354
 1 -7.15761587218722 -2.70386265926593  0.50769692049205
 1 -7.22951426252625  1.48436676577658 -0.33570324682468
 1 -4.55026167086709 -0.05250663226323  0.02689891419142
 1  13.52215789288929 -0.86139782718272  2.22664760536054
 1  11.96522169916992 -1.94043342334233  2.02459845954595
 1  13.67235959285929 -2.69398106310631  0.47814474037404
 1  12.76957439593959 -2.43477995649565 -1.57760085478548
 1  11.50528053625363 -2.56887601150115 -0.38799414151415
 1  11.80198980718072  0.66186655335534  3.33202824152415
 1  10.32150912861286  1.32044760786079  2.33896142034203
 1  10.40017763896390 -0.34705301980198  2.59319556075608
 1  13.73145004690469  1.09402802700270  0.33382744754475
 1  12.51212382558256  2.18373781158116  0.84039874557456
 1  13.47483332043204  1.39849432853285  2.17485396699670
 1  12.46140696019602 -0.14430103970397 -3.06416886878688
 1  12.08428549694970  1.31130322122212 -2.16679461436144
 1  13.36790762336234  0.47284333723372 -1.61421690709071
 1 -5.32311453535354  2.86486087288729 -0.53373478427843
 1  9.78870012061206 -0.42397105470547 -1.97391972777278
 1  15.20328317351735 -1.08274808920892  0.35521412071207
 1  8.45917776857686  2.03338566576658 -0.45507278447845
 1 -2.46696178037804  4.12456890659066  0.24106993669367
 1 -2.49264802910291  3.96779400420042 -1.54932804190419
 1 -3.92643902900290  4.43666184798480 -0.39389919141914
 1 -2.60819043914391  0.45258747074707 -0.10958391299130
 1  6.85061781168117 -1.84464402650265  0.43631611631163
 1  8.54615983048305 -1.65925064986499 -0.32154292839284
 1  8.11940186178618 -1.27169949834984  1.46834059495950
 1  6.12874802190219  1.75379918531853 -0.33544556425643
 1 -0.73134449144914  2.66384042754275 -0.72443235473547
 1  5.15863184958496 -1.12756925362536  0.08746142724272
 1 -0.18090701390139 -0.20241205410541  0.24426703780378
 1  4.04045321322132  1.86436207240724 -0.27857008200820
 1  1.61843871907191  2.14733052495250 -0.16886958535854
 1  1.26889572437244 -1.65789239343934  0.77861685728573
 1  2.89950127492749 -1.71669797129713 -0.41926969696970
 1  3.17120381678168 -1.33249747874787  1.18927221382138
=======
>>>>>>> 6a1b998aacd80a23911c140f266e48a14f2d523d

