%nproc=3
%Mem=2GB
# td=(NStates=1) CAM-B3LYP/6-31G(d,p) 

TD

0 1
<<<<<<< HEAD
 8 -11.78688535613561  0.25044569296930 -1.41050821442144
 8 -13.06960779657966 -2.55111341934193  1.36422210721072
 8  10.72190771067107 -1.18822871077108 -2.04039776607661
 8  14.42289565626563 -1.05787450895090  0.06855236783678
 6 -11.04877304450445 -0.20160411511151 -0.28009743414341
 6 -11.72133842354235 -1.16583776367637 -1.13554239453945
 6 -11.62454449744975  0.21171785458546  1.07672732773277
 6 -13.16715191889189 -1.76604676257626 -0.88528016201620
 6 -13.17402586058606 -0.12491993959396  1.07513220112011
 6 -13.51744817831783 -1.52499403720372  0.54215298259826
 6 -10.92291788048805 -1.84615003250325 -2.28138045634563
 6 -9.55365480928093  0.02367950175017 -0.47381433953395
 6 -10.97606358375837 -0.23407900390039  2.34173924102410
 6 -11.61068144844484  1.78787389048905  1.17825591729173
 6 -8.63392681438144 -0.79241728292829  0.03377211621162
 6 -7.13340132973297 -0.62023386948695  0.12322002230223
 6 -6.28496251115111 -1.77616630543054  0.43051528782878
 6 -6.64053971567157  0.70598142804280 -0.10635919111911
 6 -5.28393833543354  0.98846088278828 -0.02334666486649
 6  11.78667791469147 -0.04650462096210  1.40302983108311
 6  11.69814710481048 -0.67549370457046 -1.17673155285529
 6  12.54143137123712 -1.30750498019802  1.60853558695870
 6  13.34734942164217 -1.88028256165617  0.47252121652165
 6  12.35797073177318 -1.94318882788279 -0.73235719821982
 6  11.07758464636464 -0.16239149124912  0.13672085238524
 6  10.82539394429443  0.22325896789679  2.60157249744975
 6  12.76516963366337  1.18542176297630  1.43772682368237
 6  12.52474878107811  0.24390326362636 -2.00379432723272
 6 -4.81153764946495  2.21622412841284 -0.39550439933993
 6  9.91613280078008  0.49340014281428 -0.00926210291029
 6 -3.38136329472947  2.51880063376338 -0.49286954765477
 6  8.72831261726173  0.96442277607761 -0.19219355935594
 6 -3.00422210731073  4.03725518501850 -0.62566229832983
 6 -2.28395531063106  1.52858470717072 -0.40511304600460
 6  7.52963250575058  0.31623221122112 -0.09910909500950
 6  7.56209094559456 -1.16906385848585  0.17008693159316
 6  6.25143649164916  0.92322925322532 -0.29329326532653
 6 -0.93323745524552  1.83066218991899 -0.34440261536154
 6  4.94447605040504  0.40443956005601 -0.22863149434943
 6  0.02924940394039  0.84421773167317 -0.31116021882188
 6  3.87480688838884  1.14188453885389 -0.37425489448945
 6  1.41424336513651  1.35845757345735 -0.26434881578158
 6  2.54471237173717  0.59604890459046 -0.21174781688169
 6  2.47880774247425 -0.95947012731273 -0.02517392379238
 1 -13.14205600640064 -2.89111208900890 -1.15264048804881
 1 -13.95558078177818 -1.25816980118012 -1.65237169186919
 1 -13.56715451765177  0.02517958675868  2.13432611531153
 1 -13.42087148074807  0.70506563366337  0.26877454305431
 1 -14.54798210231023 -1.77423613701370  0.65764736903690
 1 -10.78847746464646 -2.97956473927393 -1.87987328272827
 1 -11.33050325922592 -1.71636642804280 -3.34950323652365
 1 -9.92572475597560 -1.15955516411641 -2.38358997149715
 1 -9.28451710651065  0.95390752175218 -0.90432424252425
 1 -9.78136946454645 -0.14593332923292  2.28525426822682
 1 -11.43686904780478  0.36920362196220  3.10985933603360
 1 -11.05795648934893 -1.34661153765377  2.39863065276528
 1 -12.18419096159616  2.29162528452845  0.26819003500350
 1 -12.19067530693069  2.17495307080708  2.02866657845785
 1 -10.62889317141714  2.17059765026503  1.22692698619862
 1 -12.17764083658366 -2.49056192979298  1.33691817071707
 1 -9.07742858475848 -1.68639699739974  0.45132423132313
 1 -5.80161960806081 -1.99572289738974 -0.75630367476748
 1 -5.42227464276428 -1.59160439303930  1.11831022722272
 1 -7.02251236183618 -2.67098937193719  0.56742289308931
 1 -7.37353866496650  1.48759708880888 -0.26369604610461
 1 -4.52700934563456  0.25435405380538  0.36070229452945
 1  13.13472915001500 -1.35115680308031  2.68043298389839
 1  11.81891706870687 -2.13139251925192  1.80210621032103
 1  13.61244360126013 -2.95995766076608  0.56892381828183
 1  12.83546098459846 -2.24696117461746 -1.65664875957596
 1  11.78074808300830 -2.88094721862186 -0.60918626072607
 1  11.50291990019002 -0.05032466576658  3.67582262096210
 1  10.42718969666967  1.22365792889289  2.47925544974497
 1  10.00449807100710 -0.53539185368537  2.35563180438044
 1  13.66818372027203  1.04230285448545  0.57431149594959
 1  12.31014362756276  2.13725316311631  1.15883058875888
 1  13.11100693779378  1.25605008410841  2.39136561816182
 1  12.64712553205321 -0.29063567316732 -2.95964841674167
 1  12.22101917031703  1.20035212611261 -2.08756669156916
 1  13.62362319491949  0.44247029992999 -1.53803928932893
 1 -5.57441966586659  3.08359274607461 -0.64964637543754
 1  10.12301355195520 -0.35854451205121 -2.41766410221022
 1  15.10649349454945 -1.12914272867287  0.76989558885889
 1  8.74372622342234  2.00359268646865 -0.46266354355436
 1 -2.51536662086209  4.40425687538754  0.41823765346535
 1 -2.13676244054405  3.89508673347335 -1.47962107120712
 1 -3.78635502060206  4.56486466826683 -1.00485028652865
 1 -2.72408202830283  0.49388160016002 -0.55844879947995
 1  6.68876162606261 -1.85541510361036  0.04577706240624
 1  8.22290750525053 -1.60403512831283 -0.42386316041604
 1  7.87708763036304 -1.31912424082408  1.16638039893989
 1  6.21416656375637  2.08265207060706 -0.47747976767677
 1 -0.72078343534353  2.88366240974097 -0.32770268176818
 1  4.86569255565557 -0.67057355405541 -0.04555187408741
 1 -0.19539846304631 -0.40739255215522 -0.26742413131313
 1  3.78837800570057  2.27255289148915 -0.24266649164917
 1  1.64242111731173  2.44418020992099 -0.41008370677068
 1  1.34406324112411 -1.45068167236724 -0.14370537493749
 1  2.97372869766977 -1.33240954245425 -0.82193996399640
 1  2.69124582098210 -1.24926915591559  0.90198348494850
=======
>>>>>>> 6a1b998aacd80a23911c140f266e48a14f2d523d

