%nproc=3
%Mem=2GB
# td=(NStates=1) CAM-B3LYP/6-31G(d,p) 

TD

0 1
<<<<<<< HEAD
 8 -11.56618328592859  0.25548619701970 -1.40309747334733
 8 -13.16633746954695 -2.52731103910391  1.28936462146215
 8  10.54263978387839 -1.01026091399140 -1.97853157945795
 8  14.47864123082308 -1.31667038853885 -0.15699018641864
 6 -10.98693686088609 -0.20360431513151 -0.20415984038404
 6 -11.55638192789279 -1.17307848774877 -1.32101094139414
 6 -11.77099914291429  0.21759844264426  1.00955061006101
 6 -12.91613681738174 -1.74257441534153 -1.10019165316532
 6 -13.26076453445345 -0.17192464006401  0.84267895579558
 6 -13.58704513801380 -1.55183672147215  0.30212898019802
 6 -10.66140172887289 -2.00039545704570 -2.27424974327433
 6 -9.50046949074907 -0.02445531173117 -0.24665162326233
 6 -11.13683966136614 -0.36325192119212  2.43282834993499
 6 -11.62823320362036  1.75386048914891  1.15559365106511
 6 -8.53102652435243 -0.83750179137914  0.26714545354535
 6 -7.13681167076708 -0.51098294439444  0.17837553785379
 6 -6.25995000990099 -1.54906359515952  0.65032726902690
 6 -6.54306996869687  0.71393222312231 -0.12797135233523
 6 -5.18928887048705  0.99043107980798 -0.07680201040104
 6  12.04696394329433  0.04126415591559  1.31540106820682
 6  11.63145043514352 -0.68427458265827 -1.19470335003500
 6  12.61033826192619 -1.34580881058106  1.53331806520652
 6  13.27807249394940 -2.05567010041004  0.31415537993799
 6  12.25345027972797 -2.00490499949995 -0.83444740724072
 6  11.10352724062406  0.10920566846685  0.09176635693569
 6  11.20921232613261  0.37877451945194  2.55644798499850
 6  12.88266138283828  1.25682890369037  1.20870392139214
 6  12.54893119931993  0.19260813411341 -2.08989293709371
 6 -4.75738223392339  2.30524303030303 -0.43043789268927
 6  9.85951713921392  0.55395619841984  0.04947377067707
 6 -3.41556671507151  2.68637739143914 -0.50380064076408
 6  8.62126191219122  0.96641297509751 -0.06827116711671
 6 -3.00350203530353  4.12944440394039 -0.77366709880988
 6 -2.37457437253725  1.63077492619262 -0.41583411811181
 6  7.44280382288229  0.17843843184318  0.07393820972097
 6  7.55907064356436 -1.23872082418242  0.18701862476248
 6  6.23889523752375  0.81797872817282 -0.04995893189319
 6 -0.98078220972097  2.02227135083508 -0.40779895499550
 6  4.83973557635764  0.19433854995500 -0.04318294949495
 6 -0.04494801580158  0.98797210711071 -0.17383648644864
 6  3.76730613831383  1.03736408680868 -0.14584205320532
 6  1.32706464726473  1.24694642234223 -0.19696207710771
 6  2.39386728722872  0.44207350705071 -0.07953459555956
 6  2.19253911561156 -1.07064124442444  0.17605619921992
 1 -13.06454825562556 -2.89478245604560 -1.27669289328933
 1 -13.54540976467647 -1.24955894009401 -1.71363781848185
 1 -13.83206100830083  0.08614568336834  1.84247693039304
 1 -13.75709510311031  0.49074420152015 -0.04045638003800
 1 -14.80667797189719 -1.60175888928893  0.18042964726473
 1 -10.35939455635564 -2.87743452625263 -1.84426972237224
 1 -11.25192540144015 -2.14168896029603 -3.22542082828283
 1 -9.68603078657866 -1.36845605420542 -2.38000961346135
 1 -9.22805145994599  0.94411654265427 -0.58519232933293
 1 -10.12353368096810  0.04796606070607  2.53248899169917
 1 -11.76286164706471 -0.04745804420442  3.32448079817982
 1 -11.09910060376037 -1.40510738723872  2.36548733843384
 1 -11.69006154865487  2.41690781278128  0.07714093009301
 1 -12.78101434083408  2.11789736523652  1.68674238603860
 1 -10.70250053215322  2.02955354585459  1.71494578807881
 1 -12.22525559805980 -2.69660253385339  1.16580105900590
 1 -8.72637347924793 -1.69256761446145  0.75127422632263
 1 -5.47628707480748 -1.82581590669067 -0.11563960836084
 1 -5.76326874217422 -1.31342657525753  1.73399179537954
 1 -6.80657076767677 -2.54482675567557  0.91035718651865
 1 -7.21392270337034  1.54645297439744 -0.24365404190419
 1 -4.35290193489349  0.22284090249025  0.30192641694169
 1  13.21863754085408 -1.17722941034103  2.39792473307331
 1  11.84707988498850 -1.98224760476048  2.05813181288129
 1  13.70125248214821 -2.98428009300930  0.47737466336634
 1  12.69552699119912 -2.26624310281028 -1.67070016471647
 1  11.36342635083508 -2.82865198909891 -0.66481182328233
 1  11.86881648984899  0.63838420512051  3.48475351405140
 1  10.36180315801580  1.18245380848085  2.46495401960196
 1  10.73936155735574 -0.52644095859586  2.78186442764276
 1  13.29745664756476  1.03289191339134  0.31865593039304
 1  12.60354296749675  2.26510594839484  0.98621332703270
 1  13.61253709080908  1.29842432153215  2.04707118871887
 1  12.91578239773977 -0.52812942254225 -2.93525597749775
 1  12.06947401580158  1.08113020392039 -2.55043297819782
 1  13.59339017161716  0.50277633053305 -1.66511199659966
 1 -5.51460368426843  2.90061444824482 -0.41872328312831
 1  10.24928617921792 -0.14091274887489 -2.41562389818982
 1  14.84656750195019 -0.84799461386139  0.78991759105911
 1  8.65680753155316  2.10521284848485 -0.44744202140214
 1 -2.59630471467147  4.52296874657466  0.17429325902590
 1 -2.42423118741874  4.17707493229323 -1.69705281438144
 1 -3.86630301540154  4.92193037483748 -0.73928372987299
 1 -2.47595721582158  0.75299751175117 -0.26645960056006
 1  6.76733948384839 -1.79358892099210 -0.44931244654465
 1  8.35365057955796 -1.56280100490049 -0.44524529862986
 1  7.56367628922892 -1.40486281468147  1.39411317221722
 1  6.11755690279028  1.78900270567057 -0.32900492019202
 1 -0.78085944294429  3.06995103860386 -0.59668958045805
 1  4.82660864726473 -1.02342883958396  0.01393407450745
 1 -0.38702762596260 -0.13422523542354 -0.42589997889789
 1  3.57485665356536  2.20019565576558 -0.33065529052905
 1  1.54006088128813  2.26099189108911 -0.43238593699370
 1  1.20547938273827 -1.57556416061606 -0.05278628302830
 1  2.90717204200420 -1.61823812531253 -0.45779354935494
 1  2.46658335473547 -1.37468169716972  1.28693197979798
=======
>>>>>>> 6a1b998aacd80a23911c140f266e48a14f2d523d

