%nproc=3
%Mem=2GB
# td=(NStates=1) CAM-B3LYP/6-31G(d,p) 

TD

0 1
 8 -11.71289795739574  0.27579822822282 -1.47444460806081
 8 -12.93356419221922 -2.48507681568157  1.40247593259326
 8  10.68668418831883 -0.96503639153915 -2.22696642294229
 8  14.45962932963296 -0.93622234373437 -0.24334882228223
 6 -11.04116228342834 -0.14673862856286 -0.38718814321432
 6 -11.73241953165316 -1.17035821572157 -1.28601744204420
 6 -11.72664470747075  0.36902358515852  0.91845150015001
 6 -13.16515171887189 -1.70232038993899 -0.97156879087909
 6 -13.21399985798580 -0.07619506710671  0.95775046294629
 6 -13.56999343284328 -1.38596013381338  0.53863263056306
 6 -10.89918550725073 -1.89755517301730 -2.31366368466847
 6 -9.52723216701670  0.02344947874787 -0.45093205130513
 6 -11.02693867126713 -0.09067466346635  2.29592465956596
 6 -11.68840922122212  1.89927503060306  0.93351144284428
 6 -8.59387280898090 -0.72548058925893  0.18387712671267
 6 -7.17213520312031 -0.67559940604060  0.08691639193919
 6 -6.39053306820682 -1.83729241804180  0.51620385668567
 6 -6.55936159785979  0.59238006790679 -0.19288784398440
 6 -5.28588853045304  0.98282031873187 -0.26566089628963
 6  11.86389563646365  0.04029405890589  1.33476300440044
 6  11.68542583268327 -0.56541269646965 -1.25532941264126
 6  12.64211143924392 -1.24563879357936  1.46727146054605
 6  13.38281296799680 -1.79465399879988  0.13967793219322
 6  12.36831176587659 -1.88103261226123 -1.01897586008601
 6  11.06785367326733 -0.04209946204620  0.08117529782978
 6  11.01711311621162  0.14205084708471  2.44647698789879
 6  12.79878299499950  1.31871509230923  1.24367741874187
 6  12.55127143334333  0.42285115841584 -1.97539148694870
 6 -4.76430292599260  2.20894340034003 -0.57052190109011
 6  9.89919110661066  0.49733053585359 -0.00897207390739
 6 -3.38395355375538  2.50612936663666 -0.53043330403040
 6  8.64826461246125  0.85677201100110 -0.08660300030003
 6 -3.07470915601560  3.87328878837884 -0.88455818791879
 6 -2.34354126922692  1.64037588628863 -0.25479801450145
 6  7.52248179067907  0.14384497249725  0.12645346124612
 6  7.77838257475748 -1.35536248834883  0.39378930183018
 6  6.20196154415442  0.65092202250225 -0.16927086308631
 6 -0.92783691519152  2.02401152485249 -0.15266344144414
 6  4.94154575737574  0.13481259735974  0.03517488628863
 6  0.08056453545355  0.98527183708371  0.02603350055005
 6  3.75161456915692  0.78706905730573  0.12225475647565
 6  1.37787972877288  1.22529425712571  0.09256687578758
 6  2.48455635613561  0.32660195989599  0.22709606750675
 6  2.30039990169017 -1.16365054535454  0.48236683028303
 1 -13.11245304610461 -2.71737471527153 -1.06468169216922
 1 -13.82557778147815 -1.59547353155316 -1.95058151285129
 1 -13.79257705990599  0.13304037283728  1.99307198989899
 1 -13.52404179777978  0.49680480758076 -0.02938527292729
 1 -14.54570187428743 -1.64651336473647  0.72280388468847
 1 -11.04439305620562 -3.00711749454945 -2.04624992039204
 1 -11.28212842174218 -1.69272406380638 -3.47946623282328
 1 -9.83310549404941 -1.51721092969297 -2.29744135663566
 1 -9.44782343714371  1.00345247624763 -1.00623443354335
 1 -9.83217454505450  0.05897716181618  2.31482722552255
 1 -11.49247460836084  0.64988168976898  2.99447779787979
 1 -11.46138683238324 -1.23471034753475  2.52767355705571
 1 -12.18810135263526  2.23494961696170 -0.10167695169517
 1 -12.09486572597260  2.53217879337934  1.89024273607361
 1 -10.70229051115112  2.20984157465747  0.93622791629163
 1 -12.04208728122812 -2.79141201480148  1.00062454135414
 1 -9.06771761366137 -1.74920327802780  0.67143624252425
 1 -5.45071451755175 -1.77807113221322 -0.15790383478348
 1 -5.99312172747275 -1.65049028162816  1.54165256145615
 1 -7.10268037863786 -2.65787806080608  0.40996714751475
 1 -7.35382669376938  1.36451478057806 -0.20015969246925
 1 -4.75198184288429  0.03559217761776  0.20684690899090
 1  13.58641431853185 -1.11105279267927  2.32006694729473
 1  12.06617179417942 -2.15339471947195  1.87132313201320
 1  13.88011036793679 -2.75474713971397  0.57970489638964
 1  12.64106154465447 -2.28562504100410 -2.06028912361236
 1  11.60423043124312 -2.74570369426943 -0.42900824292429
 1  11.57154676287629  0.15421578827883  3.48583362206221
 1  10.38389536723672  1.08861442454245  2.26934445864586
 1  10.27963558475848 -0.49769808430843  2.51147738893889
 1  13.42538944084409  1.13428205240524  0.41726579137914
 1  12.21966457965797  2.14049348714872  1.04500920662066
 1  13.13256909400940  1.59083356245625  2.28097457905791
 1  12.87044786428643 -0.11640825042504 -2.88960141204120
 1  11.98988605700570  1.21825391629163 -2.42933086798680
 1  13.31607243984398  0.95900195309531 -1.39046453185319
 1 -5.45639786368637  3.05087947474748 -0.71568297909791
 1  10.09168041864187 -0.25109376697670 -2.42695503130313
 1  14.95850869606961 -0.98830864526453  0.55261386068607
 1  8.35403725452545  1.81315364256426 -0.67041431863186
 1 -2.41800688488849  4.34095054475448 -0.18385255555555
 1 -2.58445721002100  3.78716594139414 -2.01137424652465
 1 -3.90531691679168  4.38855703750375 -0.76034583608361
 1 -2.58247786788679  0.58173038503850 -0.02017497209721
 1  6.97503025292529 -2.02529209130913  0.30117260196020
 1  8.37660287478748 -1.94609933473347 -0.23503427752775
 1  8.34487440904091 -1.65485781418142  1.35493925482548
 1  6.05202034913491  1.68616242164216 -0.40989300900090
 1 -0.58069942694269  3.04393843734373 -0.03599351085108
 1  4.87782376877688 -0.93049954665467  0.13822650375038
 1 -0.19032795599560 -0.10787260016002  0.24537714881488
 1  3.91620078797880  1.86915255145515  0.03788156315632
 1  1.73180005520552  2.30849664156416 -0.16214891329133
 1  1.31459029382938 -1.55986259045905  0.45990498609861
 1  2.94199552435244 -1.82500880238024 -0.32453022302230
 1  2.67370406680668 -1.57515174417442  1.37421070767077

