%nproc=3
%Mem=2GB
# td=(NStates=1) CAM-B3LYP/6-31G(d,p) 

TD

0 1
<<<<<<< HEAD
 8 -11.78961562916292  0.19119976837684 -1.57728489208921
 8 -12.91406224202420 -2.54574288228823  1.53156884188419
 8  10.32391791169117 -1.04892478037804 -1.90632435873587
 8  14.50953432013201 -1.05587430893089 -0.29680416781678
 6 -11.01637980518052 -0.09789374407441 -0.35689511391139
 6 -11.61474776447645 -1.19512069196920 -1.21063990429043
 6 -11.71983402640264  0.31084776757676  0.98103775877588
 6 -13.03580878457846 -1.68148830673067 -0.75886752075208
 6 -13.29214767276728 -0.13042048964897  1.09293398129813
 6 -13.45922235573557 -1.50847238503850  0.65093386068607
 6 -10.90383597229723 -2.06229164666467 -2.20350266856686
 6 -9.55872531633163  0.07954508830883 -0.39120607870787
 6 -10.96216219361936 -0.11579717571757  2.18445351245125
 6 -11.63042342264226  1.92905800890089  0.82139023072307
 6 -8.68374179587959 -0.75576361756176 -0.02187344834483
 6 -7.19140713031303 -0.58635048114811 -0.04297659735974
 6 -6.36940095499550 -1.87184587338734  0.10828306460646
 6 -6.52317797949795  0.53491432133213 -0.18677723292329
 6 -5.18501844344434  0.86485852255226 -0.22134646484648
 6  12.01444069096910 -0.11436140664066  1.38775830393039
 6  11.52628991909191 -0.60369652485249 -1.32119599929993
 6  12.75623285138514 -1.36234046374637  1.49624435783578
 6  13.33349803650365 -1.89727426082608  0.07056102050205
 6  12.30051498619862 -1.99336384538454 -1.06496045854585
 6  11.12559944784478 -0.00493574567457  0.04814199449945
 6  11.06908831373137 -0.01806516451645  2.63285562576258
 6  12.84264738143814  1.25332855365537  1.32269532053205
 6  12.24402070827083  0.36662553585359 -2.16119006680668
 6 -4.75092158785879  2.08544105010501 -0.58241309020902
 6  9.94808599609961  0.66662746554655  0.14048287158716
 6 -3.43632879127913  2.58757751145115 -0.56461672237224
 6  8.69825961196119  1.04499083288329  0.10465612561256
 6 -3.15585727082708  3.99116057555756 -0.87299703180318
 6 -2.29484639973997  1.71323317201720 -0.33978651335134
 6  7.50979052155215  0.23556414441444  0.11006182208221
 6  7.60160489698970 -1.31067801990199  0.23288321122112
 6  6.34612596059606  0.85095202550255  0.03669973397340
 6 -0.90968510001000  1.97043616731673 -0.40622879797980
 6  4.98572017481748  0.34875399149915  0.27135850465047
 6  0.08317479647965  1.01072438233823 -0.12545164796480
 6  3.75976538423842  1.05979633003300  0.18183071407141
 6  1.40513245404540  1.31003273097310 -0.12139452035203
 6  2.55204310481048  0.44593389308931  0.22499585748575
 6  2.34688455015502 -0.99667384768477  0.46018461206121
 1 -13.26837863866387 -2.80609358715872 -1.07509273327333
 1 -13.68871409510951 -1.18529251345134 -1.51619807450745
 1 -13.62836063826383  0.07001407020702  2.12865554825483
 1 -13.98285767936794  0.48710383748375  0.55642330793079
 1 -14.67356466056606 -1.59847856125613  0.60699230353035
 1 -10.81325994289429 -3.15602238503850 -1.86725202060206
 1 -11.53929413831383 -2.12513730513051 -3.04663294949495
 1 -9.95651783528353 -1.66491570017002 -2.67788940144014
 1 -9.35710436523652  0.92181431243124 -0.98581239133913
 1 -9.96540786838684  0.45263652775278  2.11342708550855
 1 -11.28879424032403  0.19471617321732  3.17807615771577
 1 -10.99867056075608 -1.34796167266727  2.27325811551155
 1 -11.86516905940594  2.41562768476848 -0.14498128212821
 1 -12.14670090949095  2.26498207370737  1.79882359415942
 1 -10.58356863896390  2.37597818831883  0.69084337783778
 1 -12.10441351385138 -2.55826870047005  1.16163064196420
 1 -8.76107694959496 -1.68700705840584  0.39714881378138
 1 -5.74760420652065 -2.26783010811081 -0.82530057445745
 1 -5.60153256855686 -1.51305653825383  0.82745114131413
 1 -7.13037314791479 -2.54788706170617  0.64437058785879
 1 -7.12361367246725  1.45397372647265 -0.10347002350235
 1 -4.53763040774077  0.08586720512051 -0.06761053675368
 1  13.58673435053505 -1.41455314271427  2.24026896749675
 1  11.80318549554955 -2.12840222022202  1.75050104980498
 1  13.57426978387839 -2.93231489648965  0.35895282118212
 1  12.78658609710971 -2.28549502800280 -1.84577767246725
 1  11.43041304950495 -2.60218934283428 -0.78136347844784
 1  11.81306091429143 -0.21463109640964  3.39664470317032
 1  10.57621459915991  1.07839340244024  2.77959548374837
 1  10.20288790999100 -0.59440775527553  2.47559380058006
 1  13.55663256515652  1.03363198739874  0.33654771957196
 1  12.05486810001000  2.10653009080908  1.20920562626263
 1  13.57398323542354  1.06095057415742  2.14937141874187
 1  12.42978379787979  0.06932032243224 -3.25290774267427
 1  11.85685275367537  1.45227731863186 -2.05900383528353
 1  13.39141997459746  0.22693874677468 -1.82436792219222
 1 -5.41952417631763  2.88308269506951 -0.66479789058906
 1  9.71585283588359 -0.38821747934793 -1.92596493229323
 1  15.25408825402540 -1.42411222562256  0.44180277957796
 1  8.54792664346435  2.16357868506851 -0.27265454265427
 1 -2.72341742594260  4.60894734443444  0.07688351805181
 1 -2.22015077937794  4.07007423222322 -1.73255636473647
 1 -3.94327071217122  4.65077325912591 -1.31662146364637
 1 -2.40858047814781  0.73566577857786  0.04066111151115
 1  6.71652440234023 -1.82437199929993 -0.08344585988599
 1  8.59025423992399 -1.66742146694669 -0.68460923502350
 1  8.02407232883288 -1.69999232763276  1.25644940584058
 1  6.78181332843284  1.96029983538354 -0.38095011471147
 1 -0.49743110011001  2.87750179367937 -0.59859977147715
 1  4.92324831123112 -0.82494899159916  0.74611729282928
 1 -0.27395631883188  0.25515370247025  0.07497010811081
 1  3.77758692659266  2.21422705890589 -0.21668389338934
 1  1.52630950615061  2.42406819871987 -0.16423912231223
 1  1.26971580638064 -1.37811441564156  0.23825282088209
 1  2.95827715251525 -1.59851615311531 -0.24928269826983
 1  2.58346504290429 -1.24007823682368  1.48861214781478
=======
>>>>>>> 6a1b998aacd80a23911c140f266e48a14f2d523d

