%nproc=3
%Mem=2GB
# td=(NStates=1) CAM-B3LYP/6-31G(d,p) 

TD

0 1
 8 -11.59251591919192  0.16962761116112 -1.62518968256826
 8 -13.04807564336434 -2.39029733773377  1.47409309430943
 8  10.60997651755176 -0.93057294519452 -2.14325805210521
 8  14.47114048074807 -1.03828254975498 -0.13125761316132
 6 -11.02940110731073 -0.13235719041904 -0.36888631303130
 6 -11.52366865656566 -1.26646782668267 -1.25915475577558
 6 -11.90058210121012  0.40275695849585  0.79391904690469
 6 -12.82516772047205 -1.91852201010101 -0.93535516951695
 6 -13.36229468746875 -0.04753220082008  0.68963365126513
 6 -13.51810824432443 -1.53002454025403  0.41744051135114
 6 -10.51038662736274 -2.04514993249325 -2.04437675597560
 6 -9.53942338613861  0.20525765956596 -0.20667762586259
 6 -11.18627460486048  0.02429683368337  2.19374444154415
 6 -11.72936331663166  1.91400650375037  0.76327441914191
 6 -8.64750817251725 -0.71014905610561  0.28463720272027
 6 -7.12625061466147 -0.52153399949995  0.34262196249625
 6 -6.35653966886689 -1.79590827962796  0.64018625492549
 6 -6.63133879557956  0.66309713961396 -0.10495905110511
 6 -5.15756569816982  0.94523656035604  0.02168783858386
 6  11.91559080598060 -0.09613958445845  1.30778030613061
 6  11.65228251835184 -0.52657881308131 -1.30005388508851
 6  12.62463969206921 -1.35729995969597  1.49463419681968
 6  13.37819250595060 -1.81872640604060  0.15850981538154
 6  12.38471340604060 -1.81783629262926 -0.99238320082008
 6  11.05704259215922  0.03670841874187 -0.02580540024002
 6  10.89183058795880  0.11147778977898  2.46693903410341
 6  12.87546066276628  1.17942116291629  1.42363541454145
 6  12.63343965016502  0.54291316461646 -1.97595154295430
 6 -4.71906840254025  2.22284479047905 -0.38013286218622
 6  9.86770795829583  0.46008681148115  0.02529135243524
 6 -3.30355551395140  2.59012776647665 -0.44501476217622
 6  8.59658944494449  0.87459379317932 -0.09961430143014
 6 -3.08200988608861  4.01930338983898 -0.64781451355135
 6 -2.37929484458446  1.58512036073607 -0.28215074977498
 6  7.39685922842284  0.09384997299730 -0.00237942204220
 6  7.50408514501450 -1.36917386948695  0.28751867476748
 6  6.18753010101010  0.78127505780578 -0.22901683768377
 6 -0.99365349684969  1.85830495419542 -0.19359753485349
 6  4.92698430123012  0.14495361146115 -0.12510114131413
 6  0.05799227822782  1.00223353325333 -0.06085518831883
 6  3.75652506020602  0.79731008140814 -0.20423789278928
 6  1.41067300810081  1.22460418811881 -0.07204958585859
 6  2.48491639213921  0.35103440314031 -0.00947758985899
 6  2.24583444514451 -1.13910809110911  0.23446203980398
 1 -12.79134093489349 -3.06255923372337 -1.05415063906391
 1 -13.72345756945695 -1.79219320352035 -1.98096455115512
 1 -13.87015481768177  0.17041411021102  1.55436811951195
 1 -13.81159055265527  0.28387351445144 -0.07186952135214
 1 -14.43690099419942 -1.78321703510351  0.31234283858386
 1 -10.19937855475547 -3.13719050185018 -1.55348064346435
 1 -11.02601281018102 -2.15902069346935 -2.92058034423442
 1 -9.48594077757776 -1.63726293489349 -2.45571718421842
 1 -9.16132478727873  1.24975710671067 -0.72216602670267
 1 -9.90736206380638  0.17052831693169  2.12912865566557
 1 -11.81415677657766  0.57090379197920  2.87807615771577
 1 -11.18742943664366 -1.22570944744474  2.40002079177918
 1 -12.30124266676668  2.14120024202420 -0.08909569356936
 1 -12.21866810621062  2.37223279877988  1.67426113791379
 1 -10.63271355345535  2.18260885138514  0.70754504800480
 1 -12.25664873737374 -2.80503337693769  1.00628510741074
 1 -8.97853869576958 -1.51524988268827  0.82411151005100
 1 -5.52417186328633 -1.83054637973797  0.02165412101210
 1 -5.73941635693569 -1.40620585318532  1.48911730793079
 1 -7.11262137273727 -2.74018629162916  0.77091324212421
 1 -7.21244255535554  1.49341767086709 -0.38400807730773
 1 -4.46881352605260  0.15473409180918  0.27020324462446
 1  13.22794847194719 -1.16542823022302  2.36355129572957
 1  11.96409158615862 -2.15585496549655  1.68954495419542
 1  13.56444880178018 -2.79919158415842  0.32218914481448
 1  12.96352379087909 -2.20134661316132 -1.82211530623062
 1  11.60367037523752 -2.59638876277628 -0.88871421352135
 1  11.45065467366737 -0.14570420372037  3.38285332403240
 1  10.48758573627363  1.21096665976598  2.47863538773877
 1  10.14394201540154 -0.52466078057806  2.44517075827583
 1  13.58791569346935  1.00312893709371  0.73872793759376
 1  12.27834044724472  1.99482892069207  1.50345505120512
 1  13.30736657375737  1.11559603870387  2.33429991159116
 1  13.03471429092909  0.11542493289329 -2.76649910181018
 1  12.12399946834683  1.48310040094009 -2.53071100600060
 1  13.43052388498850  0.71401745464546 -1.17060254565457
 1 -5.46785900980098  2.97829221602160 -0.47440885168517
 1  9.70236148674868 -0.36151480908091 -1.75492782858286
 1  15.02628547374737 -1.15524533893389  0.61301990129013
 1  8.33925577637764  2.04708703590359 -0.31737901510151
 1 -2.46960204440444  4.68958540824082  0.17086291599160
 1 -2.49467823212321  4.15319254405440 -1.55773888298830
 1 -3.86149253435343  4.70292847464746 -1.08554835633563
 1 -2.54699431953195  0.58710092209221 -0.16392934753475
 1  6.66260901080108 -2.03894345644564  0.56158864356436
 1  8.27492270677068 -1.85170989578958 -0.49319009310931
 1  8.04154407600760 -1.32229455785579  1.31687544844484
 1  6.05229037613761  1.73226703210321 -0.25958797849785
 1 -0.77794915191519  2.79875391889189 -0.43482339383938
 1  4.72505849224922 -0.85095159185919  0.19384206530653
 1 -0.38141706490649 -0.05847766066607  0.05026763786379
 1  3.76652582048205  1.89643527972797 -0.48940116511651
 1  1.73224009920992  2.37933372527253 -0.11280397879788
 1  1.15283411821182 -1.22397900210021  0.67431642724272
 1  2.38368969376938 -1.74916121762176 -0.83977174717472
 1  3.17623431983198 -1.46998122712271  1.04139742634263

