%nproc=3
%Mem=2GB
# td=(NStates=1) CAM-B3LYP/6-31G(d,p) 

TD

0 1
 8 -11.68444511211121  0.20435108350835 -1.62128929252925
 8 -13.08003883968397 -2.35112342034203  1.49548523352335
 8  10.60589610951095 -0.96730661856186 -2.04933866016602
 8  14.45726909360936 -0.89235795729573 -0.11900638803880
 6 -11.10025819301930 -0.15576953165317 -0.37532695709571
 6 -11.66913320302030 -1.22147332723272 -1.19766860716072
 6 -11.81281332433243  0.44013069586959  0.86525618061806
 6 -13.08592379607961 -1.80174033193319 -0.93233486748675
 6 -13.34678313631363  0.08479103150315  0.75692037993799
 6 -13.62939937343734 -1.42871440924092  0.47936670397040
 6 -10.89018460716072 -2.16145156265627 -2.09966228452845
 6 -9.60441988578858  0.12337947174717 -0.40122708080808
 6 -11.10773675107511  0.07852225622562  2.24966003310331
 6 -11.68235861616161  1.93229833293329  0.75932402410241
 6 -8.66172959465947 -0.83589163036304  0.06050478947895
 6 -7.25981397099710 -0.56070791689169  0.16473417371737
 6 -6.31282529742974 -1.66447513631363  0.72390462676268
 6 -6.64268993069307  0.62602343224322 -0.11846040124012
 6 -5.21748168976898  0.80716275297530  0.12854852465247
 6  11.90076932383238  0.04460448994899  1.35915544364436
 6  11.69034632473247 -0.50908706390639 -1.28837271697170
 6  12.55565279337934 -1.38035226492649  1.41994672807281
 6  13.37417210391039 -1.74208874227423  0.17443140754075
 6  12.55127006170617 -1.80388489748975 -1.08327228972897
 6  11.08627551545155  0.01983673157316  0.04614179447945
 6  11.10888229312931  0.12900954295430  2.66196853705371
 6  12.94835795249525  1.16388960976098  1.50731378237824
 6  12.43209951615161  0.58319719301930 -1.99431337913791
 6 -4.67328382408241  2.02409491549155 -0.34039888878888
 6  9.85905709320932  0.58305910871087  0.02226104940494
 6 -3.37359251765177  2.48853760746075 -0.58836909760976
 6  8.58681846784678  0.88872520632063 -0.06033037303730
 6 -3.02919460456046  3.94860632013201 -0.74126385848585
 6 -2.31519843494349  1.55056690539054 -0.25821835653565
 6  7.52235177767777  0.00384097209721 -0.05295447954795
 6  7.71379611611161 -1.47976492859286 -0.03272334943494
 6  6.29967131513151  0.70693762406241 -0.04337827382738
 6 -0.99402353385339  1.87564668836884 -0.23453162826283
 6  5.00416201900190  0.09226834293429  0.00824219301930
 6  0.03681016001600  0.89140245014501 -0.10885998879888
 6  3.88155756345635  0.83144349474948 -0.02124959395940
 6  1.45592753355336  1.24594632233223  0.02798041714171
 6  2.50949885038504  0.31115041474147 -0.05259190129013
 6  2.33341320302030 -1.18318249854986  0.12119071267127
 1 -13.16514831563156 -2.83234621242124 -0.90631585558556
 1 -13.68397362106211 -1.24726871107111 -1.68069452415242
 1 -13.86659446164617  0.36979404820482  1.61212389508951
 1 -13.74514390799080  0.55269039613961 -0.12667500190019
 1 -14.71084838893889 -1.48771748514852  0.59215081938194
 1 -10.59054767166717 -3.02301908470847 -1.59067436283628
 1 -11.45935614451445 -2.66255104650465 -2.97183546974697
 1 -9.99525170867087 -1.67139634823482 -2.49656126862686
 1 -9.37488614341434  1.06051818281828 -0.69788359845985
 1 -10.28918024562456  0.77601886598660  2.38588433123312
 1 -11.93736909780978  0.46384308590859  2.99466781688169
 1 -10.74074476817682 -1.05254213071307  2.33989477917792
 1 -12.24221676417642  2.38179430143014 -0.18102488648865
 1 -12.30264650405040  2.67480305580558  1.57188089988999
 1 -10.67438772087209  2.28637922842284  0.84568886238624
 1 -12.14654772727273 -2.46566944054405  1.40826530543054
 1 -8.76415725762576 -2.06858521622162  0.24461356025603
 1 -5.52446189228923 -2.03424674977498  0.05925788138814
 1 -5.67892030733073 -1.49546477907791  1.57021541774177
 1 -7.09507961856186 -2.40240251325133  1.05047119791979
 1 -7.13707501860186  1.63697202630263 -0.39469914641464
 1 -4.51907855255526  0.21757037543754  0.50470669496950
 1  13.14660033713371 -1.32047373477348  2.36535147574757
 1  11.78548372537254 -2.16707608760876  1.69925592529253
 1  13.74845720262026 -2.77922958795880  0.13315024092409
 1  13.16830426892689 -2.19053553205321 -1.86895999069907
 1  11.69904991319132 -2.56229535343534 -0.90829617171717
 1  11.69761937013701  0.18884925162516  3.55781081978198
 1  10.59194617231723  1.01568713181318  2.73094061826183
 1  10.37728534973497 -0.55710402490249  2.48300454165417
 1  13.73931083298330  1.03569219341934  0.82501656645665
 1  12.32271488468847  2.16545598339834  1.28854356005601
 1  13.43228906600660  1.14698917801780  2.48361484308431
 1  12.60751157065707  0.39232262266227 -3.01085353725373
 1  11.90960802920292  1.58944103500350 -2.01286922182218
 1  13.37624845744574  1.04821087398740 -1.27234271967197
 1 -5.21934415831583  2.83316770357036 -0.54056546734673
 1  10.11237248784879  0.03743508590859 -2.22488482428243
 1  15.21083392859286 -1.17447726212621  0.51890048934893
 1  8.22396424722472  1.96398872607261 -0.25613289048905
 1 -2.55360044424442  4.38828527822782  0.20044587428743
 1 -2.19285805010501  4.02732995779578 -1.44106721582158
 1 -3.93179956505651  4.45749393119312 -1.11076087758776
 1 -2.51373099319932  0.41117332933293 -0.25052800740074
 1  6.84425717561756 -1.93507306940694 -0.32089960526053
 1  8.52472768726873 -1.76468119291929 -0.78068884298430
 1  8.17915783738374 -1.64498682708271  0.85212897379738
 1  6.20088523562356  1.66386019141914 -0.11757377707771
 1 -0.61901325832583  2.90287433093309 -0.23787369886989
 1  4.97585357175718 -0.93511000770077 -0.04604192309231
 1 -0.42176109930993 -0.28637044994499 -0.06891428032803
 1  4.13649281718172  1.85615125132513 -0.05130735573557
 1  1.54680155535554  2.31601739363936 -0.26228892729273
 1  1.33337217201720 -1.58495509970997  0.30665966156616
 1  2.85232655745575 -1.69703600510051 -0.58619638963896
 1  3.08306500290029 -1.48620284928493  0.88788207480748

