%nproc=3
%Mem=2GB
# td=(NStates=1) CAM-B3LYP/6-31G(d,p) 

TD

0 1
 8 -11.52336900450045  0.10222087048705 -1.71144830843084
 8 -13.25486632243224 -2.26374468246825  1.32890857585759
 8  10.64738025792579 -1.17590747864786 -2.21450517681768
 8  14.53101646834683 -0.85619434093409 -0.08916340374037
 6 -10.99294746194619 -0.15695965066507 -0.46083550795080
 6 -11.51322761246124 -1.28164934483448 -1.25918475877588
 6 -11.84912695569557  0.35346202900290  0.71825148014801
 6 -12.87107231093109 -1.83532369026903 -1.11112274627463
 6 -13.30751920992099 -0.02620006760676  0.53427811571157
 6 -13.60970740424042 -1.49089062686269  0.16496526382638
 6 -10.60872646134614 -2.22402782028203 -2.15634795309531
 6 -9.52050149394939  0.02489962376238 -0.39536649474947
 6 -11.21152713011301  0.01270567456746  2.09944501160116
 6 -11.82234261456145  1.99674477757776  0.60072816451645
 6 -8.68307172887289 -0.68954699589959  0.40216895589559
 6 -7.23943193279328 -0.51391323742374  0.40394809510951
 6 -6.40492450735073 -1.64536322512251  0.83439567586759
 6 -6.61641730343034  0.71185201510151  0.32695414021402
 6 -5.23193313491349  1.04701673837384  0.25759142894289
 6  11.97573682058206  0.02024205370537  1.28395792389239
 6  11.64264155425543 -0.59893604880488 -1.36054993469347
 6  12.73158038613861 -1.31852608230823  1.45470020342034
 6  13.44426911361136 -1.67241177457746  0.17565152955296
 6  12.50690562526253 -1.90361487048705 -0.94555851835184
 6  11.13157004490449 -0.13292854495450 -0.02398521822182
 6  11.02429383428343  0.13439008100810  2.53652599279928
 6  12.79762287898790  1.26131935273527  1.22615566656666
 6  12.43625993219322  0.36814568786879 -2.18229217701770
 6 -4.70382687838784  2.25007751375137 -0.01531638053805
 6  9.94739592709271  0.51543234603460 -0.07126830353035
 6 -3.40465562396240  2.56131488518852 -0.17975823652365
 6  8.64939472547255  0.89609594339434 -0.24471881188119
 6 -3.10347203230323  3.97625908540854 -0.47408714081408
 6 -2.31396831193119  1.65329717841784 -0.01566410111011
 6  7.48246778927893  0.12218280628063 -0.09964914901490
 6  7.53319805630563 -1.33108006010601  0.08805872877288
 6  6.24305565356536  0.71981891219122 -0.17491142714271
 6 -0.98387251875188  1.86064518821882 -0.18180635573557
 6  4.99137073987399  0.17067618371837 -0.07212584378438
 6  0.03408988798880  0.87249055895590  0.00916181338134
 6  3.75089449714971  0.77995834623462 -0.10248771777178
 6  1.39064100490049  1.21650337803780 -0.12048442934293
 6  2.46103400390039  0.35993529322932  0.03483684158416
 6  2.28687854955496 -1.14439862016202  0.54514310791079
 1 -12.91334313511351 -2.96069904770477 -1.26541176517652
 1 -13.58392361606161 -1.57734171837184 -2.12482893759376
 1 -13.84990279247925  0.21539860866087  1.50538322102210
 1 -13.87440683428343  0.43291841894189 -0.36728906330633
 1 -14.59807711181118 -1.56481519491949  0.12569417371737
 1 -10.26734535143514 -3.08728551135114 -1.68814410981098
 1 -11.20492070097010 -2.42943773517352 -2.96863514971497
 1 -9.60846302980298 -1.62861206980698 -2.25597721022102
 1 -9.28144679947995  0.74374650565056 -1.23084689478948
 1 -10.20496182378238  0.50502176627663  2.01306704950495
 1 -11.75913127402740  0.44920162176218  2.89621797189719
 1 -11.01401209490949 -1.15410228672867  2.17179796949695
 1 -12.07523006550655  2.31252737473747 -0.42902968696870
 1 -12.79913615301530  2.10856643214321  1.35104881668167
 1 -10.86096637873787  2.35178576907691  1.03676797029703
 1 -12.16961003350335 -2.34241711531153  1.45555003390339
 1 -9.15194603650365 -1.71265962366237  0.68343744264426
 1 -5.76616606270627 -1.92738606370637  0.19875183078308
 1 -5.64017643294329 -1.62973820642064  1.74594299049905
 1 -7.00776088668867 -2.55676794979498  1.00799695049505
 1 -7.32146345744574  1.50691902100210 -0.00782045854585
 1 -4.58619526422642  0.14084270267027  0.41581780608061
 1  13.66864254135414 -1.29420110751075  2.29817475807581
 1  11.90257543454345 -2.03525290529053  1.76643264296430
 1  13.74124648154815 -2.57627929292929  0.09117604350435
 1  13.12899033753375 -2.18234471297130 -1.71894498919892
 1  11.84679468766877 -2.71749087298730 -0.69409475157516
 1  11.38356796499650  0.11716208290829  3.45481051975198
 1  10.39410638833883  0.91616717981798  2.32634015821582
 1  10.40284790599060 -0.61313962846285  2.30145638683868
 1  13.53303020492049  1.08526715091509  0.49500356515652
 1  12.24265687888789  2.10962039983998  0.93350805650565
 1  13.32987882498250  1.42152663176318  2.08379486108611
 1  12.75502632213221 -0.08431504110411 -3.04312676457646
 1  11.53595066346635  1.09356144704471 -2.31091902680268
 1  13.22341317391739  0.93877993089309 -1.61016650205021
 1 -5.30025224912491  3.02906729352935 -0.06685809660966
 1  9.99767101770177 -0.53573223082308 -2.18095043084308
 1  15.21951479667967 -1.00262007640764  0.56793539283928
 1  8.47759961076108  2.04315664286429 -0.55062233943394
 1 -1.96079116331633  4.40896734643464  0.00447627732773
 1 -2.96107487178718  3.84850207500750 -1.74911802090209
 1 -4.02969935503550  4.54710289208921 -0.37579738123812
 1 -2.60798041814181  0.57951016301630  0.36878392379238
 1  6.78628137803780 -2.01475103720372 -0.24817233253325
 1  8.37598281278128 -1.53340806560656 -0.53987476157616
 1  7.81428134973497 -1.38190051845184  1.30992475337534
 1  5.87391253835384  1.91119492489249 -0.63691571127113
 1 -0.71069242624262  2.85076912041204 -0.58430834233423
 1  4.82976896329633 -0.77997449414942  0.19119180028003
 1 -0.21006993019302 -0.23986579947995  0.17401001210121
 1  4.02934210211021  1.80527616381638 -0.44562678767877
 1  1.60227710291029  2.31025681758176 -0.47574027242724
 1  1.19344817961796 -1.21379798399840  1.14846384198420
 1  2.43002432723272 -1.94134043554355 -0.35238300830083
 1  3.02455915231523 -1.20534476347635  1.45330861746175

