%nproc=3
%Mem=2GB
# td=(NStates=1) CAM-B3LYP/6-31G(d,p) 

TD

0 1
<<<<<<< HEAD
 8 -11.63625029262926  0.22460310871087 -1.50864802840284
 8 -13.11342217801780 -2.24382269026903  1.34305999099910
 8  10.68664418431843 -0.91238112601260 -2.03927765406541
 8  14.43061642834283 -0.95008372987299 -0.13487797519752
 6 -10.97424559175918 -0.15966992169217 -0.25407483188319
 6 -11.66842313201320 -1.18043922382238 -1.17062590289029
 6 -11.72015405840584  0.37752443524352  0.96806646164616
 6 -13.10706591029103 -1.69470962886289 -0.88761039503950
 6 -13.17377583558356 -0.03170061766177  0.99309399729973
 6 -13.55739217271727 -1.30283182098210  0.52925169246925
 6 -10.80453604230423 -2.00754617211721 -2.15412773107311
 6 -9.51290073387339 -0.00282314851485 -0.34507146524652
 6 -11.08072404980498 -0.19404500050005  2.18951401850185
 6 -11.43779415971597  1.89787489058906  0.95682377407741
 6 -8.59443286498650 -0.88434647584758  0.10443918291829
 6 -7.19586757635764 -0.70818266436644  0.08064576487649
 6 -6.26690070497050 -1.87585627442744  0.51263349964996
 6 -6.65522118381838  0.46940777067707 -0.15365392059206
 6 -5.26090603220322  0.76721875857586 -0.28000233043304
 6  11.92901214811481 -0.03596356685669  1.41645117321732
 6  11.64496178627863 -0.60845700090009 -1.21956583628363
 6  12.68775600370037 -1.37277150685068  1.54543927732773
 6  13.38639332603260 -1.79194372777278  0.31022498689869
 6  12.49200413511351 -1.83297780678068 -0.91385534803480
 6  11.15949283718372 -0.01230648274827  0.07310449074907
 6  11.02584398929893  0.14881152315232  2.56310865106511
 6  12.85007812451245  1.16410963176318  1.26671972297230
 6  12.45528183438344  0.51563043634363 -1.93185713351335
 6 -4.78760525622562  2.06851935793579 -0.45508035693569
 6  9.86194738223822  0.49692049484948  0.01463028632863
 6 -3.50513567196720  2.47430618431843 -0.48109837053705
 6  8.60352013801380  0.91878821262126 -0.05348968896890
 6 -3.12497418251825  4.09562102160216 -0.56369610171017
 6 -2.31914882998300  1.60064191289129 -0.48376091079108
 6  7.46209575207521  0.09701028902890 -0.07247643174317
 6  7.59625436193619 -1.32961991409141  0.12222214511451
 6  6.14697604560456  0.70753768406841 -0.27273120912091
 6 -1.00113424492449  1.96672579627963 -0.31023919901990
 6  4.91881348414841  0.12499161526153 -0.00083871507151
 6  0.00983746274627  0.96662997289729 -0.20293939673967
 6  3.76446585428543  0.84318466886689 -0.12762023102310
 6  1.36578851965197  1.39033076077608 -0.25491787268727
 6  2.43307120762076  0.36900620032003  0.00699405730573
 6  2.24481434313431 -0.97683186348635  0.42860145374537
 1 -13.21580338113811 -2.71979495729573 -0.94433965796580
 1 -13.76636185988599 -1.22177616181618 -1.70433688838884
 1 -13.76898470067007  0.20336740554055  1.94582726542654
 1 -13.62770216381638  0.72568769586959  0.26831449704970
 1 -14.73755105920592 -1.12042075547555  0.54891649594960
 1 -10.45999461636164 -3.05671245404540 -1.80603589898990
 1 -11.52088229712971 -2.24387917931793 -3.04115240144014
 1 -10.03080526402640 -1.55672488108811 -2.68313992649265
 1 -9.12423107790779  0.88750088108811 -0.81027483758376
 1 -9.97782911051105  0.05503676777678  2.06826256905691
 1 -11.54417977887789  0.22818952055206  3.19490784088409
 1 -11.16366706040604 -1.34910178667867  2.44652544224422
 1 -11.98362090459046  2.35483160516052  0.11767498349835
 1 -11.98785502490249  2.38493406890689  1.81833554535454
 1 -10.31985226732673  2.12690328082808  0.97468176167617
 1 -12.14876794929493 -2.34182705630563  1.23329780868087
 1 -9.03618446034603 -1.95537389508951  0.26378547744774
 1 -6.05562500860086 -2.55832915801580 -0.45644368876888
 1 -5.39393180848085 -1.53340857345735  1.10545894209421
 1 -6.92392250285029 -2.66096836983698  1.15625177597760
 1 -7.42518382948295  1.45348367746775 -0.20136981348135
 1 -4.64141078577858  0.01650026842684 -0.24724850055005
 1  13.29166484358436 -1.31830351775178  2.27585252585259
 1  12.04466964396440 -2.30133951395140  1.96362236193619
 1  13.88647100400040 -2.73144480948095  0.58250517641764
 1  13.23976141464146 -2.16787326582658 -1.82414550925093
 1  11.91669167736774 -2.84210333423342 -0.95220056215622
 1  11.66465607380738  0.04355472217222  3.57979301800180
 1  10.49491646934693  1.20990655375538  2.58531605580558
 1  10.40440806200620 -0.66158447294729  2.72313855505551
 1  13.75943284518452  0.74048267246725  0.57162122692269
 1  12.09550216341634  2.07949738753875  1.27929263496350
 1  13.31394723182318  1.40485496459646  2.27913439503950
 1  12.58024884438444  0.01844523492349 -2.94468692059206
 1  11.87756482488249  1.34371646254625 -2.16393432833283
 1  13.39466029862986  0.85620167306731 -1.39385487088709
 1 -5.42238446234624  3.05372975977598 -0.62749416021602
 1  10.06488773937394 -0.19221787938794 -2.16529886568657
 1  15.44060690589059 -1.34533434783478  0.37463606290629
 1  8.65165701650165  2.04458678587859 -0.35086236343634
 1 -2.57518260246025  4.35034148384838  0.29595542524252
 1 -2.41140990529053  4.48190541534153 -1.37897100620062
 1 -4.03524991009101  4.74619280108011 -0.85938574007401
 1 -2.37260688078808  0.43779599159916 -0.39959291389139
 1  6.55459820972097 -2.07907746984698  0.32513499819982
 1  8.43085830033003 -1.69052377717772 -0.55078585268527
 1  8.06770669226923 -1.42688501690169  1.23073683458346
 1  6.17609275637564  1.81978578397840 -0.21964398409841
 1 -0.65109646664666  3.10747479097910 -0.18996890839084
 1  4.88010399679968 -0.96304280098010  0.14060674177418
 1 -0.27344626782678 -0.05671748464846  0.02792540364036
 1  3.92174134203420  1.97162279847985 -0.28396062106211
 1  1.66861373657366  2.26816260816082 -0.63579627802780
 1  1.10076891169117 -1.21062766696670  0.99010800640064
 1  2.38748007280728 -1.82743904540454 -0.48200597059706
 1  3.08087478387839 -1.00596482548255  1.26179946654665
=======
>>>>>>> 6a1b998aacd80a23911c140f266e48a14f2d523d

