%nproc=3
%Mem=2GB
# td=(NStates=1) CAM-B3LYP/6-31G(d,p) 

TD

0 1
 8 -11.68744541214121  0.13040368876888 -1.63189035263526
 8 -12.93769460526053 -2.42506081408141  1.64174985998600
 8  10.54492001190119 -0.85531541944194 -2.10649437573757
 8  14.51478484518452 -0.97250597209721 -0.21390587798780
 6 -10.96699486668667 -0.10353430813081 -0.37798722312231
 6 -11.65556184588459 -1.21830301020102 -1.09508834913491
 6 -11.68794083708371  0.53321000380038  0.89150880588059
 6 -12.95240044374437 -1.77505766366637 -0.79000063406341
 6 -13.15476393439344 -0.00517796539654  1.01992668056806
 6 -13.41668810231023 -1.41716325412541  0.59730849814982
 6 -10.88213380208021 -2.10290570807081 -2.16121844014401
 6 -9.57061650545054  0.09094622842284 -0.42774973307331
 6 -11.01999797719772  0.18197260126013  2.14592966006601
 6 -11.74301468176818  2.03638874197420  0.69864795649565
 6 -8.72644606630663 -0.84050209140914  0.08254699369937
 6 -7.29223721332133 -0.72240408650865  0.14523222352235
 6 -6.40401441634163 -1.90450913971397  0.38520075637564
 6 -6.65693135483548  0.52340317021702 -0.04034258945895
 6 -5.28410835243524  0.86285832253225 -0.16723105330533
 6  11.87390663756376 -0.16129610011001  1.46062559065907
 6  11.71607889798980 -0.58907506270627 -1.24161804150415
 6  12.71965919401940 -1.34425865556556  1.41370610401040
 6  13.40024471117112 -1.72595712911291  0.09343330773077
 6  12.43014794949495 -1.83857836683668 -1.05455941844184
 6  11.02955984388439  0.01639638753875  0.15642282258226
 6  11.02798420332033 -0.04167752575258  2.72057439763976
 6  12.90296341304130  1.12070529132913  1.44838788978898
 6  12.41202750895089  0.61585045834583 -1.94605855365537
 6 -4.72242873857386  2.10796330233023 -0.49096394529453
 6  9.90873206070607  0.55852665546555  0.10016884018402
 6 -3.42929808820882  2.56565531923192 -0.56084634533453
 6  8.66715650165016  0.99371570537054 -0.01556589658966
 6 -3.10145183028303  3.91463292279228 -0.74864459655966
 6 -2.36606352145215  1.58024987368737 -0.46937947264726
 6  7.47464700720072  0.06035662366237  0.04961577747775
 6  7.60827556405641 -1.34314126622662  0.09112903580358
 6  6.26116746474647  0.75085201550155  0.02093815781578
 6 -0.93767789928993  1.91133025672567 -0.37977615271527
 6  4.91844344714471  0.14509362546255  0.15738710751075
 6  0.00937741674167  0.96985029492949 -0.16529563236324
 6  3.87275668336834  0.89433978437844 -0.08488595759576
 6  1.40915285608561  1.23258498619862 -0.17089947084708
 6  2.49570747124712  0.34374367406741 -0.02853949604960
 6  2.28943880558056 -1.06719089938994  0.16142473607361
 1 -12.99626142694269 -2.82198517631763 -0.87024224822482
 1 -13.59617484118412 -1.49844382858286 -1.62073852855286
 1 -13.51312911511151 -0.05069800100010  2.12754543724372
 1 -13.88827822142214  0.58326345344534  0.42342000760076
 1 -14.47892519661966 -1.44226293969397  0.46907851215121
 1 -10.44937355425543 -3.04120090289029 -1.69525482088209
 1 -11.71837204610461 -2.27620241164116 -2.95139342554255
 1 -10.02115429892989 -1.53989319791979 -2.77475908840884
 1 -9.24226288108811  1.14419655065507 -0.62180599069907
 1 -9.98289961756176  0.44165542964296  2.29663540634063
 1 -11.60842620352035  0.39154585618562  3.16886523662366
 1 -11.12852354605461 -0.88832570907091  2.33092388208821
 1 -12.20661320382038  2.44035015701570 -0.30644742874287
 1 -12.31931817121712  2.49215479097910  1.51104481628163
 1 -10.71666194829483  2.51332192269227  0.88847314081408
 1 -11.97924099659966 -2.72875574917492  1.40049452835283
 1 -9.16500734263426 -1.57355571327133  0.47202630153015
 1 -5.54201364746475 -1.98676200130013 -0.30558860326033
 1 -5.92358477377738 -1.96739197179718  1.34930332653265
 1 -7.09589970057006 -2.81151342434243  0.38893504430443
 1 -7.31609292039204  1.46629495859586 -0.17167684418442
 1 -4.49930657535754  0.12123074147415 -0.08905268096810
 1  13.55181085818582 -1.56968865626563  2.22552749334933
 1  12.07393257025703 -2.14693407340734  1.89836583628363
 1  13.81057341424142 -2.77104876987699  0.20374730063006
 1  13.06254369286929 -1.93431991049105 -1.92364545924592
 1  11.66803681188119 -2.64742386628663 -1.02043738583858
 1  11.47552716091609 -0.07879751305130  3.55483052175218
 1  10.42766974467447  0.73519908300830  2.86156368056806
 1  10.15953357455746 -0.85673398789879  2.72014825602560
 1  13.60693759565957  1.35511413561356  0.56356042084208
 1  12.17801041424142  1.99891932973297  1.67138184388439
 1  13.77781361846185  0.80457493659366  2.25426190779078
 1  12.48701952145215  0.35794918531853 -2.97682013391339
 1  11.74351141954195  1.36098818971897 -2.04210214511451
 1  13.35414624722472  0.87913396629663 -1.52320780618062
 1 -5.44664688858886  2.89894428122812 -0.43331474227423
 1  9.78280953155316 -0.05906456405641 -2.28804113991399
 1  15.16934978017802 -0.81914172857286  0.59422802210221
 1  8.47211906270627  2.15021734893489 -0.20479775697570
 1 -2.67380246444644  4.51323777347735  0.25946177587759
 1 -2.38888765306531  4.20357758255826 -1.57285039413941
 1 -4.07630401550155  4.31930011181118 -0.86687648914892
 1 -2.51898151825183  0.56631884388439 -0.42385534013401
 1  6.67749049894989 -1.88476803890389 -0.25404291959196
 1  8.55693090759076 -1.67162188698870 -0.33182395649565
 1  7.78019794139414 -1.58852118051805  1.08733249414941
 1  6.32673782088209  1.91773557895790 -0.10132215191519
 1 -0.75149650665066  2.96886092959296 -0.36781669316932
 1  4.96776276267627 -0.92695919261926  0.32179486058606
 1 -0.46916583978398  0.07589577667767 -0.12788017691769
 1  4.02007117501750  1.97998363456346 -0.25121734673467
 1  1.68743561876188  2.28558435033503 -0.21705440384038
 1  1.03252208700870 -1.35826243044304 -0.39597060146015
 1  3.19667099189919 -1.73101940344034 -0.26049381938194
 1  2.21927862426243 -1.15719994899490  1.48785207180718

