%nproc=3
%Mem=2GB
# td=(NStates=1) CAM-B3LYP/6-31G(d,p) 

TD

0 1
<<<<<<< HEAD
 8 -11.68611527912791  0.34657530593059 -1.54894205780578
 8 -13.05032586838684 -2.37360566856686  1.27227291229123
 8  10.72594811471147 -0.89433932183218 -2.15988971527153
 8  14.47185055175517 -1.02353107460746 -0.20208469586959
 6 -11.07482564976498 -0.14079803450345 -0.32053147754775
 6 -11.69109539923992 -1.08311949184918 -1.24158299859986
 6 -11.75118716171617  0.42439912271227  0.95660531553155
 6 -13.18060326402640 -1.58595875377538 -1.03695532953295
 6 -13.31946040404040 -0.01346879447945  0.89741442934293
 6 -13.68097453095310 -1.43663520132013  0.41049981728173
 6 -10.90321591029103 -1.92236765426543 -2.15411773007301
 6 -9.60803024682468 -0.04362722892289 -0.31965892399240
 6 -11.18158413581358 -0.03604920092009  2.15150021712171
 6 -11.81695207550755  1.94975007810781  0.85131322302230
 6 -8.61081450315032 -0.69509755095510  0.31586032503250
 6 -7.24341233083308 -0.59129097519752  0.29606730703070
 6 -6.50172418731873 -1.86043473227323  0.68954119041904
 6 -6.66102176387639  0.60413124302430 -0.01424998019802
 6 -5.20983092469247  0.90112214891489 -0.03736806700670
 6  11.97904715161516  0.03432346184618  1.33399292739274
 6  11.70867815791579 -0.45674182938294 -1.20291417111711
 6  12.73074030213021 -1.27233146284628  1.47860259365937
 6  13.32769745644565 -1.74627916131613  0.21153511791179
 6  12.31629656435643 -1.80027453645365 -0.94145810831083
 6  11.06617350525053  0.05264001190119  0.04704188448845
 6  11.12520392529253  0.31414805680568  2.66710905110511
 6  12.91075419211921  1.29244246504650  1.30450350135014
 6  12.61201750795079  0.47037591089109 -1.96384033183318
 6 -4.67825432113211  2.10161266726673 -0.38262311121112
 6  9.86781796929693  0.56884768756876  0.03379220252025
 6 -3.35395055345535  2.35469422312231 -0.42830309100910
 6  8.63800358635864  1.00557689148915 -0.12007634763476
 6 -2.95168685378538  3.80181164066407 -0.61606133823382
 6 -2.27545446054605  1.32148399709971 -0.34138667336734
 6  7.44821436393639  0.15012560056006  0.01320213611361
 6  7.63922865936594 -1.29514646674667  0.22162208510851
 6  6.19637098509851  0.73785071537154 -0.12176611261126
 6 -0.87907203870387  1.73151227492749 -0.57904607970797
 6  4.93588519131913  0.06068518461846  0.00116148494849
 6  0.07953443244324  0.73487679757976 -0.28758786158616
 6  3.82972237993799  0.75035538593859 -0.05995346434643
 6  1.46583852465247  1.14541626932693 -0.15208758965897
 6  2.57888578907891  0.23248254795480  0.04802816071607
 6  2.37489735143514 -1.29926410671067  0.31183977757776
 1 -13.18111991279128 -2.69602258005801 -1.08717394139414
 1 -13.75646086978698 -1.21908589278928 -1.89683613831383
 1 -13.73435123732373  0.10702777157716  1.99092177487749
 1 -13.70533992759276  0.73343847094709  0.13549121472147
 1 -14.94097140124012 -1.52680139353935  0.31207281158116
 1 -10.86472508940894 -2.91178796159616 -1.62874817021702
 1 -11.51252146104611 -1.96296108750875 -3.09185747194720
 1 -9.81121330483048 -1.56282549114911 -2.26362797529753
 1 -9.17795645044504  0.82434456545655 -0.84200801090109
 1 -10.13526485408541  0.27218848294829  2.27710345314531
 1 -11.74567992889289  0.41444814641464  3.04064241434143
 1 -11.14271496519652 -1.06245312181218  2.12462325202520
 1 -11.95792833533353  2.48820494249425 -0.04915169916992
 1 -12.63966020542054  2.39233480898090  1.50726443824382
 1 -10.77256753885389  2.46267685818582  1.09962425592559
 1 -12.06460953345334 -2.21456433003300  1.36280075897590
 1 -8.96389723162316 -1.61850020772077  0.80670976987699
 1 -5.98512795889589 -2.32979630473047 -0.33654169856986
 1 -5.76766918221822 -1.70965619821982  1.56503489968997
 1 -7.16458656925693 -2.59580185318532  1.03637978877888
 1 -7.28915022612261  1.62048037713771 -0.02292196869687
 1 -4.44424106880688  0.15812443084308  0.29841606590659
 1  13.43239891699170 -1.36129781718172  2.10728566916692
 1  11.99200437743774 -1.99222860286029  1.81474747444745
 1  13.67280963786379 -2.70807247224722  0.15831275717572
 1  13.00649808830883 -2.27800427892789 -1.86188928362836
 1  11.47224723292329 -2.51994111801180 -0.73840918301830
 1  11.71311091929193  0.29002936963696  3.60860589928993
 1  10.55643262096210  1.20766632973297  2.65775329952995
 1  10.51241886308631 -0.60186850135014  2.78533477467747
 1  13.73363026492649  1.21590021422142  0.52478654345435
 1  12.33055566876688  2.23781321912191  1.07108181388139
 1  13.26110194729473  1.48081256035604  2.26325280688069
 1  12.94092491199120  0.15101849224923 -3.05310776267627
 1  12.00847791619162  1.34035612651265 -2.00698863376338
 1  13.47204803740374  0.60320637353735 -1.46110159555956
 1 -5.35437766166617  2.92819720652065 -0.29229063986399
 1  10.20745199579958 -0.11224988258826 -2.15865820162016
 1  15.15462830803080 -1.12905271967197  0.53054165346535
 1  8.24187603840384  1.93831615881588 -0.38315559275928
 1 -2.42550763496350  4.02948939863986  0.27480331003100
 1 -2.22650141444144  4.02674989978998 -1.46323943304330
 1 -3.79838622372237  4.68079626142614 -0.74771457295730
 1 -2.46861648174818  0.37835004700470 -0.25547850245025
 1  6.76873962386239 -1.83230279237924  0.42600508520852
 1  8.14409962446245 -1.59011373617362 -0.68897967206721
 1  8.42861278287829 -1.49203153155316  1.07765152605261
 1  6.11092623972397  1.86577038243824 -0.29561158085809
 1 -0.68285964296430  2.75935997949795 -0.95019493099310
 1  4.74285027142714 -0.97044354105411  0.11695437653765
 1 -0.16888581178118 -0.25025683858386  0.01618422952295
 1  4.01110027792779  1.68545418161816 -0.43486571157116
 1  1.68434530973097  2.17544333623362 -0.17140983938394
 1  1.45948478327833 -1.59849645384538  0.49501849744975
 1  2.95827715251525 -1.66883318481848 -0.50534830483048
 1  2.71788848524852 -1.54576880588059  1.34157744434443
=======
>>>>>>> 6a1b998aacd80a23911c140f266e48a14f2d523d

