%nproc=3
%Mem=2GB
# td=(NStates=1) CAM-B3LYP/6-31G(d,p) 

TD

0 1
<<<<<<< HEAD
 8 -11.64054072167217  0.20663131153115 -1.57459462306231
 8 -12.98129896569657 -2.34758306630663  1.33237892289229
 8  10.45963148304831 -1.24180406830683 -1.95895962226223
 8  14.44960832753275 -1.05985470697070 -0.04733922132213
 6 -10.98000616781678 -0.17765171987199 -0.44447387178718
 6 -11.66803309300930 -1.13826500640064 -1.30950979127913
 6 -11.68545058805881  0.38045472827283  0.85170482548255
 6 -12.96800200390039 -1.66340649854986 -0.96397803180318
 6 -13.14973343134313  0.01463401580158  0.87977266516652
 6 -13.50374680818082 -1.42128366616662  0.44706347364736
 6 -10.82915850455046 -1.96868228572857 -2.26491881018102
 6 -9.52410185398540  0.09240637443744 -0.47701465956596
 6 -10.86654263166317 -0.13050864686469  2.12249731683168
 6 -11.71003138343834  1.88441354445445  0.85674376607661
 6 -8.56271969366937 -0.79424746594659  0.01057979697970
 6 -7.19302729232923 -0.57514936103610  0.15226292659266
 6 -6.30728474337434 -1.82037072587259  0.37193943024302
 6 -6.66766242794279  0.68788961886189  0.01240268506851
 6 -5.24411435303530  0.90209224592459 -0.19918424862486
 6  11.95806505340534  0.20438046754675  1.17214674277428
 6  11.57372466256626 -0.69947610281028 -1.23377725742574
 6  12.55618284638464 -1.19582381208121  1.35920065346535
 6  13.29121380808081 -1.77380191359136  0.22048601300130
 6  12.46272120682068 -1.93604811381138 -0.99116307880788
 6  10.99156604450445  0.05467021492149 -0.08169098879888
 6  11.00086149104910  0.49125576757676  2.40533287348735
 6  12.93390650735073  1.35390861166117  1.00080313131313
 6  12.33936024222422  0.29499837313731 -2.12975692349235
 6 -4.75315181088109  2.20158266426643 -0.25039988888889
 6  9.79029021652165  0.49480028282828 -0.05788696539654
 6 -3.40355551395140  2.49642839653965 -0.21986224692469
 6  8.59886967296730  1.04083041684168 -0.19067340734073
 6 -3.02952463756376  3.92070352985299 -0.40776050815082
 6 -2.33436035113511  1.51360320902090 -0.08155068976898
 6  7.38009755225523  0.10992158015802  0.12419323522352
 6  7.63768850535054 -1.32834978707871  0.40281020392039
 6  6.16196754475448  0.76266319661966  0.08349441344134
 6 -0.94645877737774  1.80505962966297 -0.12396057115712
 6  4.87252885568557  0.13779289538954  0.14728609740974
 6 -0.04476799779978  0.80186349624962  0.04711560876088
 6  3.80417982568257  0.88675902630263 -0.11851932093209
 6  1.36219816061606  1.11799352705271 -0.03424580548055
 6  2.48256615711571  0.31329062876288  0.04965832373237
 6  2.52722258395840 -1.20377455775578  0.33072166576658
 1 -12.90572237303730 -2.75957893569357 -1.07754297829783
 1 -13.79143436713671 -1.33544752895290 -1.88429488418842
 1 -13.55018282048205  0.24690175897590  1.96864954765477
 1 -13.68101749534953  0.55464059115912 -0.02560489488949
 1 -14.55750305440544 -1.52769148254825  0.62367397169717
 1 -10.13495211211121 -2.78560534333433 -1.86335163056306
 1 -11.67684789368937 -2.56203099449945 -2.87389567576758
 1 -10.09003118661866 -1.17526673527353 -2.88531014351435
 1 -9.26530518531853  0.96840897189719 -1.08161197129713
 1 -9.85919724732473  0.48743000710071  2.17651339413941
 1 -11.68344370527053  0.18782548414842  2.81704005410541
 1 -10.54064475817582 -1.23571044754475  1.99612040174017
 1 -12.12829537203720  2.17572369436944 -0.09708649264926
 1 -12.07700393979398  2.41903747924792  1.93366707850785
 1 -10.53338362046205  2.35150574107411  0.67431172467247
 1 -11.99929300180018 -2.30509338293829  1.15731020992099
 1 -8.86411725362536 -1.67054541224122  0.55279437833783
 1 -6.04142358845885 -2.22039536463646 -0.51081912631263
 1 -5.34518693399340 -1.56806203880388  1.00436883308331
 1 -7.01368147874788 -2.57440971397140  0.85562171297130
 1 -7.24960627172717  1.44036236533653  0.03264358785879
 1 -4.67904454915492 -0.13494487608761 -0.36604037973797
 1  13.23879955705570 -1.06161784918492  2.24604954555456
 1  11.78661383838384 -1.78887826782678  1.72298829852985
 1  13.70866322322232 -2.81695336033603  0.45871279717972
 1  12.96702414091409 -2.33116959545955 -1.83272636733673
 1  11.71722173037304 -2.81208033193319 -0.76706204830483
 1  11.60344995319532  0.68747911461146  3.34247928662866
 1  10.54274125182518  1.49418498159816  2.21666919111911
 1  10.51474909610961 -0.36489480398040  2.59128536973697
 1  13.78011491339134  1.08991761596160  0.27194125892589
 1  12.21338395159516  2.36960639843984  0.60389509520952
 1  13.44719055615561  1.83036751585159  2.04959144074407
 1  12.19279009850985 -0.26231284088409 -3.29940239213921
 1  11.80740780918092  1.22773486438644 -2.29650758565857
 1  13.47082791539154  0.16672272517252 -1.91371685708571
 1 -5.49759198309831  2.92447683448345 -0.13564497529753
 1  10.02771402200220 -0.51961061866187 -2.26224856065607
 1  14.97433027822782 -1.21616143054306  0.78421702100210
 1  8.37703955475548  2.10381270847085 -0.52836011321132
 1 -1.97802288648865  4.27200365006501  0.21425725542554
 1 -2.89249801410141  4.13573079787979 -1.51210431953195
 1 -3.75889227432743  4.77397557935794 -0.07638744024402
 1 -2.68551817191719  0.53582579457946  0.44212125752575
 1  6.64057680758076 -1.93605316741674  0.43942642734273
 1  8.24558977347735 -1.76764148894890 -0.18380915501550
 1  7.94728465006501 -1.61539386778678  1.49389315021502
 1  6.17901304840484  1.85566937233723 -0.20299231893189
 1 -0.63979533653365  2.79489353285329 -0.42777268876888
 1  4.88866485288529 -0.91244774147415  0.46092877397740
 1 -0.51211013421342 -0.27502931583158  0.14398700980098
 1  3.95484465236524  1.91691732793279 -0.31304352935293
 1  1.63534040924092  2.09193498539854 -0.34780747914791
 1  1.43667250205021 -1.56359296349635  0.19446844244424
 1  3.24360568536854 -1.85769207070707 -0.35306307630763
 1  2.87030372677268 -1.50894512351235  1.29368265486549
=======
>>>>>>> 6a1b998aacd80a23911c140f266e48a14f2d523d

