%nproc=3
%Mem=2GB
# td=(NStates=1) CAM-B3LYP/6-31G(d,p) 

TD

0 1
<<<<<<< HEAD
 8 -11.60985765336534  0.29048969736974 -1.58933609720972
 8 -13.22385322112211 -2.30281858985899  1.46365205020502
 8  10.60296581648165 -1.04532442034203 -2.03590731703170
 8  14.56801016771677 -0.70564928642864 -0.28776326372637
 6 -11.00876904410441 -0.13632758745875 -0.25384480888089
 6 -11.57489377907791 -1.15485666556656 -1.28874771507151
 6 -11.85450749374937  0.36074275707571  0.91257091209121
 6 -12.93833903760376 -1.84169432733273 -1.02037367136714
 6 -13.34438289628963  0.06451900430043  0.72277696559656
 6 -13.66440287378738 -1.45980751855186  0.40171893919392
 6 -10.57107269596960 -1.92200761826183 -2.16983930223022
 6 -9.60909035283528  0.06226336013601 -0.33748070617062
 6 -11.32549852725272 -0.06617221322132  2.28283335043504
 6 -11.64695507580758  1.90705580868087  0.80663875557556
 6 -8.76449987168717 -0.74502254345435  0.14629336833683
 6 -7.24969295889589 -0.59269111521152  0.17694539483948
 6 -6.39074308920892 -1.78212690149015  0.50641287758776
 6 -6.72392805450545  0.71078190809081  0.05358680348035
 6 -5.29172911451145  0.92112414911491 -0.12827715791579
 6  11.95761500840084 -0.02735270577058  1.31687121522152
 6  11.66351364146415 -0.65434158935894 -1.36111999169917
 6  12.73552078017802 -1.32734696439644  1.44480921432143
 6  13.55382006870687 -1.64268880228023  0.14460842524252
 6  12.53721865656566 -1.80245475447545 -0.99881384388439
 6  11.10320720862086 -0.04091934403440  0.05395257555756
 6  10.94621602650265  0.13158980098010  2.56681902210221
 6  12.92668578527853  1.25558877967797  1.21520457145715
 6  12.35084139033903  0.40716959025903 -2.17704165196520
 6 -4.62897939363936  2.15322782878288 -0.36955180408041
 6  9.88868005550555  0.43107391019102 -0.04796597329733
 6 -3.32981814021402  2.49016777047705 -0.43931419211921
 6  8.71820160616062  0.90638697249725 -0.12318665866587
 6 -2.91467315241524  3.96942840234023 -0.69638937103710
 6 -2.42219913501350  1.60372222092209 -0.20050258495850
 6  7.49154869736974  0.13951453945395  0.06228704460446
 6  7.62796753325333 -1.31974892699270  0.34875479837984
 6  6.34282563056306  0.73853078337834 -0.02127606360636
 6 -0.96419055055506  1.68762788648865 -0.39667784288429
 6  4.95115671847185  0.18182729882988  0.08951031983198
 6  0.01309778877888  0.84077738763876  0.07002789999000
 6  3.70677008470847  0.85311566196620  0.03335586658666
 6  1.36271821262126  1.08454018171817 -0.15182756365637
 6  2.49887778827883  0.21289058875888  0.05269862776278
 6  2.18149801150115 -1.25569975027503  0.39713830743074
 1 -12.75206700750075 -3.03928690649065 -1.05854107810781
 1 -13.47125234893489 -1.52737672187219 -1.88511496619662
 1 -13.99658746094610  0.43013008180818  1.63497618031803
 1 -13.63919331293129  0.71167629472947 -0.31122345674567
 1 -14.78440574467447 -1.44001271467147  0.32328393269327
 1 -10.03982259915992 -2.62601938473847 -1.52508780418042
 1 -11.07990819971997 -2.44559935133513 -3.00941922812281
 1 -9.93568575207521 -1.08955816441644 -2.70001161366137
 1 -9.32919157395740  0.94499663066307 -0.82963677377738
 1 -10.09261058865887 -0.02585132103210  2.27726346914691
 1 -11.56527188808881  0.54938163976398  3.12561091119112
 1 -11.47395808950895 -1.24261113761376  2.43516430613061
 1 -11.89931247374737  1.98148427042704 -0.30704748874888
 1 -12.48243448284829  2.39382495799580  1.34735844764476
 1 -10.68369865196520  2.09029962046205  1.31737603110311
 1 -12.27352042454245 -2.54076695029503  1.32589706860686
 1 -9.18721956385639 -1.61492985068507  0.50866996589659
 1 -5.80571001710171 -2.15032835793579 -0.39480752515251
 1 -5.66719913521352 -1.44146937953795  1.31052944914491
 1 -6.96403651425142 -2.44002627562756  1.04168031883188
 1 -7.29222053315331  1.63273160226023 -0.14100377687769
 1 -4.73856050075007  0.04291290969097 -0.04713848954895
 1  13.57472314941494 -1.22927461486149  2.32858779937994
 1  12.05694087108711 -2.03165254525453  1.60675667536754
 1  14.09105146204620 -2.55645731073107  0.50130705660566
 1  13.02725016351635 -2.07088356685669 -1.93979707440744
 1  11.96671667986799 -2.62568169206921 -0.52348769086909
 1  11.57841744994499 -0.05776540984098  3.39586462516252
 1  10.29402638033803  0.93554911801180  2.29568709290929
 1  10.08331595279528 -0.63450176467647  2.56597283848385
 1  13.65478238013801  1.19281790599060  0.55492955775578
 1  12.43277589078908  2.23959339713971  1.24103880958096
 1  13.27482331943194  1.43026750585059  2.17488396999700
 1  12.89528034753475  0.20735412581258 -3.18764121602160
 1  11.67877494589459  1.13870596149615 -2.48199613451345
 1  13.21271210381038  0.81369742264226 -1.42147763316332
 1 -5.21841406530653  2.90502488928893 -0.42877428822882
 1  10.17535878647865 -0.24869352695270 -2.14250658645865
 1  15.09541238643864 -0.86462627702770  0.50075867516752
 1  8.35986783758376  1.95509783698370 -0.43202047924793
 1 -2.41247633183318  4.17788423812381  0.30573640334033
 1 -2.39099786408641  3.96246347114711 -1.50668377747775
 1 -3.79513589868987  4.64261244304430 -0.68818862036204
 1 -2.61327094719472  0.58334054605461  0.12223926932693
 1  6.75362811271127 -1.92978254035404  0.39732221692169
 1  8.44227944244424 -1.80459518431843 -0.22189296339634
 1  8.15454537613761 -1.34630695909591  1.35007876877688
 1  6.26934208130813  1.80956476187619 -0.08399041874187
 1 -0.63917527452745  2.60672471597160 -0.84793470497050
 1  5.05989197559756 -0.93711020772077  0.39680236133613
 1 -0.16668559175918 -0.12817463036304  0.33277588868887
 1  3.57057622552255  1.92416805300530 -0.21265349034903
 1  1.54780165536554  2.11447723962396 -0.49067176557656
 1  1.20075891069107 -1.72108871307131 -0.06225723012301
 1  3.09451077587759 -1.89532583408341 -0.09499726972697
 1  2.35779247564756 -1.46226045504550  1.46443973057306
=======
>>>>>>> 6a1b998aacd80a23911c140f266e48a14f2d523d

