%nproc=3
%Mem=2GB
# td=(NStates=1) CAM-B3LYP/6-31G(d,p) 

TD

0 1
 8 -11.56848351595159  0.36906755515552 -1.55625278887889
 8 -13.20154098989899 -2.46943525152515  1.25843152815282
 8  10.59328484838484 -1.17083697159716 -2.05085881218122
 8  14.43399676637664 -1.13523224472447 -0.03046753415342
 6 -11.00790895809581 -0.13685764046405 -0.30221964636464
 6 -11.57751404110411 -1.07743892379238 -1.23100194049405
 6 -11.76075811881188  0.32315899869987  0.95543519851985
 6 -12.88855405910591 -1.72840299819982 -1.09944157815782
 6 -13.24632309030903  0.00969352175217  0.82937762566257
 6 -13.55130156365636 -1.45815735353535  0.26059482678268
 6 -10.68198378707871 -1.84985040254025 -2.28262058035804
 6 -9.57722716651665  0.17992512631263 -0.27038399649965
 6 -11.06310228762876 -0.30084568056806  2.22632769986999
 6 -11.71791217151715  1.89000410351035  1.04904299599960
 6 -8.52824624632463 -0.74053209440944  0.02188092709271
 6 -7.14799278887889 -0.59665151125113  0.14275197549755
 6 -6.37796181108111 -1.90487917671767  0.52726496279628
 6 -6.56917257895789  0.63675450535053  0.01578302310231
 6 -5.19797973957396  0.85542757945795 -0.09170350055006
 6  11.85833508040804  0.16448647814781  1.30451998009801
 6  11.55482277237724 -0.61126728192819 -1.25220910061006
 6  12.53918114621462 -1.22780701040104  1.58772350575058
 6  13.23147783448345 -1.82848738213821  0.32143610801080
 6  12.23522845754575 -1.97184169316932 -0.89354331683168
 6  11.03728061596160  0.01918666656666  0.08646582688269
 6  10.98362976787679  0.60421706370637  2.56908924912491
 6  12.91103422012201  1.29970319111911  1.13585663666367
 6  12.47906421262126  0.24182305560556 -2.22769671747175
 6 -4.68705520122012  2.11350385638564 -0.24131898079808
 6  9.80472165966597  0.49400020282028 -0.02407358405841
 6 -3.35711086948695  2.54689344304430 -0.29173943464346
 6  8.59907969396940  1.04260059385939 -0.37877221722172
 6 -2.99324100920092  3.92684414391439 -0.67791752385239
 6 -2.32146906200620  1.56516836553655 -0.11224375907591
 6  7.48538808130813  0.21784237223722 -0.18866805090509
 6  7.76555129162916 -1.19942689478948  0.16167609050905
 6  6.26721806980698  0.73399032933293 -0.30404434043404
 6 -0.97187131863186  1.85529465316532 -0.19639781488149
 6  5.00414201700170  0.18377749384939  0.00153152195220
 6  0.03347982698270  0.81409471937194  0.18935983318332
 6  3.80032944064406  0.82975332573257 -0.21407887688769
 6  1.40038197899790  1.16094782248225 -0.05921830273027
 6  2.49785768626863  0.34571387108711  0.08175153305331
 6  2.34657451915192 -1.21841602190219  0.49874846844684
 1 -12.63190499129913 -2.80407338513851 -1.18290351435144
 1 -13.52278750245025 -1.50527451165117 -2.06478293299330
 1 -13.72975077727773  0.05486255505551  1.88590127282728
 1 -13.72280167376737  0.71028615571557  0.30532819841984
 1 -14.53705100920092 -1.62155086848685  0.34032563686369
 1 -10.28503712061206 -2.76444322712271 -1.84158945434543
 1 -11.31207141604160 -2.11953674507451 -3.15597388358836
 1 -9.96827901140114 -1.24672388098810 -2.64225583808381
 1 -9.32687134193419  1.13579571057106 -0.77042085218522
 1 -10.14568589618962 -0.08376711261126  2.52649839263926
 1 -11.66054141504150 -0.08046134453445  3.22514086418642
 1 -11.02586328002800 -1.37864474097410  2.40576136583658
 1 -12.10670321282128  2.36318244024402  0.14394761076108
 1 -12.39195543494349  2.23502907840784  1.95345905770577
 1 -10.62728301040104  2.28561915241524  1.38951324482448
 1 -12.28348142064206 -2.81333420702070  1.15162964186419
 1 -8.80078091999200 -1.72776113381338  0.25499459835984
 1 -5.55483492959296 -2.37166049114912 -0.15247329172917
 1 -5.78609102440244 -1.70986621922192  1.49059745594559
 1 -6.99891000160016 -2.68740101310131  0.76378252905290
 1 -7.20338164926493  1.50751908100810  0.09945026852685
 1 -4.70456710141014 -0.11090247184718 -0.18502227792779
 1  13.19128480558056 -1.14121580898090  2.44719966056606
 1  11.74756993399340 -1.88854823482348  1.90035603530353
 1  13.15575793269327 -2.93964562956296  0.89710663656366
 1  12.98261570007001 -2.17488396689669 -1.66550964566457
 1  11.51241124932493 -2.82593171707171 -0.68812415451545
 1  11.55950555875588  0.28224859155916  3.49864490319032
 1  10.62003898159816  1.76577214031403  2.38950647484748
 1  10.20167778897890 -0.11535985048505  2.69134537573757
 1  13.49348625052505  1.17241586578658  0.25081914671467
 1  12.40434304750475  2.41244068186819  0.93907861356136
 1  13.54728056515651  1.19028350745075  1.97521400300030
 1  12.33499431893189 -0.38021463106311 -3.31505395729573
 1  11.94125119351935  1.23916600750075 -2.29855779067907
 1  13.54994582718272  0.23965001790179 -1.92182766816682
 1 -5.58538076197620  2.87445183198320 -0.62005341614161
 1  9.99306055665567 -0.46588524612461 -2.23057539333933
 1  14.78224106930693 -1.01306112051205  0.90110871017102
 1  8.60817266806681  2.14096642384238 -0.88537581478148
 1 -2.27918300250025  4.36330277997800  0.03453928362836
 1 -2.64594335863586  3.85553277807781 -1.78931204030403
 1 -3.89438582368237  4.54632281408141 -0.71397119861986
 1 -2.65668528862886  0.46552876487649  0.07130417581758
 1  6.80939368926893 -1.90209977207721 -0.27307482278228
 1  8.67690290479048 -1.63998872367237 -0.24548532263226
 1  8.02646256785679 -1.27489981838184  1.23026678757876
 1  6.10669581668167  1.79412321772177 -0.69902192189219
 1 -0.89297065406541  2.99564360786079 -0.56350626212621
 1  4.88533451985198 -0.61171766846685  0.50623330443044
 1 -0.35309423262326 -0.15232704560456  0.33719633073307
 1  4.10376954485448  1.82845848204820 -0.38231045604560
 1  1.53004988018802  2.20361615351535 -0.43183588198820
 1  1.19358819361936 -1.32976958115812  0.43365236083608
 1  2.87104842964296 -1.80497679917992 -0.17437520752075
 1  2.82345904230423 -1.45473970297030  1.47596088268827

