%nproc=3
%Mem=2GB
# td=(NStates=1) CAM-B3LYP/6-31G(d,p) 

TD

0 1
 8 -11.65236190379038  0.32934358275828 -1.64731189478948
 8 -13.16742757855786 -2.50213852185218  1.31701738673867
 8  10.66331185108511 -1.23693358125813 -2.20457418371837
 8  14.58406177287729 -0.86467518901890 -0.04681916931693
 6 -11.07708587578758 -0.03443739843984 -0.31834125852585
 6 -11.59455574527453 -1.12536371627163 -1.33636247654765
 6 -11.83881592459246  0.34428111091109  0.93807346234623
 6 -12.94887009070907 -1.76101625952595 -1.07574920892089
 6 -13.36197465546555 -0.04845229282928  0.78670335823582
 6 -13.60886732023202 -1.45182672047205  0.31064983228323
 6 -10.60295588428843 -1.93469888738874 -2.19415173347335
 6 -9.55920536433643  0.14623175697570 -0.22698965706571
 6 -11.17572354975498 -0.20828642464246  2.18407347444745
 6 -11.65768614891489  1.96102120522052  0.91751984368437
 6 -8.76027944964496 -0.69397743894389  0.22237097609761
 6 -7.26679466906691 -0.65072691879188  0.31893959425943
 6 -6.45366938183818 -1.91989067786779  0.67046928322832
 6 -6.63683934563456  0.54532536243624 -0.09191774697470
 6 -5.22284222582258  0.90319235593559 -0.02611694189419
 6  11.91057030393039  0.08233826332633  1.23569309740974
 6  11.63067035713571 -0.68532468766877 -1.33701758145815
 6  12.71307853595360 -1.24290852055206  1.57073180658066
 6  13.52867755445545 -1.75416995039504  0.29764372877288
 6  12.58429336403640 -1.87240174917492 -0.95717968046805
 6  11.05605249314931 -0.07375262736274 -0.04428724842484
 6  10.92243364826483  0.24990163216322  2.49252159235924
 6  12.81124424112411  1.28093131393139  1.29342239323932
 6  12.44943124932493  0.40043891719172 -2.04911885968597
 6 -4.76893338903890  2.15676818281828 -0.33959880878088
 6  9.90960214771477  0.50147094989499 -0.10567174387439
 6 -3.45025018341834  2.61511026472647 -0.32790305100510
 6  8.61593137913791  0.82837917171717 -0.19423376337634
 6 -3.12389407450745  4.06365782528253 -0.67009674177418
 6 -2.33793070817082  1.72484433313331 -0.11100363506351
 6  7.41985152765277 -0.02002141414141  0.00591140704070
 6  7.63217795429543 -1.50043699579958  0.16997692059206
 6  6.21425277327733  0.69357628792879 -0.06174011001100
 6 -0.95368950045005  1.91840096379638 -0.30203837893789
 6  4.93246484928493  0.18868798489849  0.03627499629963
 6  0.08154463346335  0.98943225312531 -0.12299140194019
 6  3.82928233593359  0.90803115351535 -0.10230769976998
 6  1.38141008180818  1.24171589928993 -0.18222060296030
 6  2.46642454295430  0.37969726942694 -0.01393803590359
 6  2.42422228392839 -1.05826000630063  0.54966355995600
 1 -12.63059486028603 -2.99903288108811 -0.95279050305031
 1 -13.55162038573857 -1.67551153535354 -1.77004345904590
 1 -13.64172197439744  0.15143221202120  1.71141382408241
 1 -13.80005939953995  0.64264939203920  0.11016868246825
 1 -14.64108141224122 -1.76504521792179  0.30928253255326
 1 -10.37628624552455 -2.91893867666767 -1.80319561496150
 1 -11.14500470937094 -2.15348013941394 -3.19653793999400
 1 -9.59656183968397 -1.38705791439144 -2.34147576007601
 1 -9.23246190099010  1.16052818381838 -0.52246605670567
 1 -10.19657098469847  0.35086635073507  2.26970271307131
 1 -11.70013537443744  0.25728242984298  3.05357370747075
 1 -11.31621231493149 -1.28402527902790  2.38187897759776
 1 -11.92479502200220  2.23184930693069 -0.01054783878388
 1 -12.30063630303030  2.50715629112911  1.56894060586059
 1 -10.46863714581458  2.42157274777478  1.00009430293029
 1 -12.31380445294529 -2.92055492909291  1.19074355325533
 1 -8.95524636653665 -1.90658901660166  0.58923802270227
 1 -5.82931237733773 -2.47937126222622 -0.04035207960796
 1 -5.74889730503050 -1.71176640924092  1.69488788498850
 1 -7.02103221382138 -2.80974324732473  0.79902605340534
 1 -7.35796710781078  1.28537686678668 -0.30958063456346
 1 -4.71736838153815 -0.06316769836984  0.16760298459846
 1  13.41072674977498 -1.12013370077008  2.23133807440744
 1  12.00565574257426 -2.07187656765677  1.71267726742674
 1  14.11384374127413 -2.78183984898490  0.71527845374538
 1  13.22269970847085 -2.13515999449945 -1.77010010471047
 1  11.96818682688269 -2.68190731463146 -0.73730907300730
 1  11.83983359155916  0.43437380408041  3.30506554525453
 1  10.38152513021302  1.13997956105611  2.58569609380938
 1  10.25470309150915 -0.48834714921492  2.56927316851685
 1  13.56771367326733  1.27872649684969  0.37130119491949
 1  12.00454306750675  2.08068750655065  0.92310701640164
 1  13.10985682278228  1.25492997209721  2.09492597419742
 1  12.84239505900590 -0.03215982558256 -3.16134858675868
 1  11.86473354175418  1.31975406630663 -2.27536547144715
 1  13.53825465806581  0.44077012991299 -1.54038952435244
 1 -5.54399662356236  2.92780716751675 -0.58539995079508
 1  9.91779302990299 -0.56381503910391 -2.77442977877788
 1  15.19016186138614 -0.57560737513751  0.69149774907491
 1  8.49033088388839  1.94091641884188 -0.46879415661566
 1 -2.40965604980498  4.37136358605861  0.00387621732173
 1 -2.76579534383438  4.43936116091609 -1.68030113921392
 1 -4.10680706580658  4.73233141494149 -0.80391019251925
 1 -2.44746436653665  0.71028324032403  0.17118416381638
 1  6.72597534743474 -2.10546010811081 -0.11912942824282
 1  8.42784799929993 -1.84306903170317 -0.45253602770277
 1  8.02534245584558 -1.78298062646265  1.21546530743074
 1  6.33369851695170  1.73141694709471 -0.29548156785679
 1 -0.77291864886489  2.98096213971397 -0.54235414691469
 1  4.85116110251025 -0.92584908160816  0.31428410951095
 1 -0.22303122632263 -0.08468028092809  0.21385399649965
 1  4.08844801270127  1.95282091829183 -0.19522174717472
 1  1.90536741194119  2.18141393329333 -0.67644034243424
 1  1.34200303510351 -1.39460606480648  0.49427842344234
 1  3.14011533633363 -1.78568486998700 -0.05966373637364
 1  3.11599829622962 -1.04324855385539  1.51448473507351

