%nproc=3
%Mem=2GB
# td=(NStates=1) CAM-B3LYP/6-31G(d,p) 

TD

0 1
<<<<<<< HEAD
 8 -11.61265793339334  0.24869551795180 -1.57898506210621
 8 -13.04381521732173 -2.36556486448645  1.45976166116612
 8  10.54907042694269 -1.03775366326633 -2.20334406070607
 8  14.36542990969097 -0.93363208470847 -0.23153764116412
 6 -10.98660682788279 -0.10789474417442 -0.43216264066407
 6 -11.56229251895189 -1.16278745864586 -1.26640548084808
 6 -11.68414045704570  0.37092377517752  0.88536819181918
 6 -12.92559776347635 -1.81530168806881 -0.88900053405341
 6 -13.25963442144215 -0.01914936253625  0.79845453335334
 6 -13.45356178967897 -1.48539007680768  0.42756152345235
 6 -10.59679526822682 -1.87768318581858 -2.29894221252125
 6 -9.39537898169817  0.12747988178818 -0.42103906200620
 6 -11.09999597699770 -0.10964656065607  2.12842790989099
 6 -11.68969935023502  1.87869297239724  0.89361745344534
 6 -8.59093251495150 -0.77853589478948  0.08307704670467
 6 -7.18479646924693 -0.55237708380838  0.02692039233923
 6 -6.29159317421742 -1.79516820562056  0.48435067136714
 6 -6.60982664436444  0.63984481438144 -0.28883743894389
 6 -5.26921686328633  0.92462449914992 -0.15251958215822
 6  11.95476472337234  0.09274930443044  1.14469399749975
 6  11.58475576567657 -0.59872602780278 -1.36646052575258
 6  12.66186341444144 -1.28091232093209  1.44206894029403
 6  13.26052073877388 -1.76992152555255  0.22371633603360
 6  12.28605354005400 -1.95686019501950 -1.06284024652465
 6  11.02862975087509  0.06722147004700 -0.11245406510651
 6  11.09893129802980  0.41355799779978  2.46075841604160
 6  12.96152926962696  1.25158837963796  1.11105415641564
 6  12.44768107430743  0.39526840014001 -2.18981292909291
 6 -4.72335883158316  2.22527503350335 -0.39851470037004
 6  9.78787997549755  0.51685248804880 -0.04386556325633
 6 -3.42621778017802  2.52163091679168 -0.46692695339534
 6  8.56595638163816  0.90670700450045 -0.08846318631863
 6 -2.94163584868487  4.03274473397340 -0.66237596969697
 6 -2.38718563366337  1.54986683538354 -0.16115865056506
 6  7.35601514401440  0.10304089208921  0.19034985088509
 6  7.68771350785078 -1.33859081118112  0.49938986188619
 6  6.15678702670267  0.64423135343534  0.05880194419442
 6 -0.96215034653465  1.90725984968497  0.00487231213121
 6  4.89275087788779 -0.04361524542454  0.17516888568857
 6  0.00375685468547  0.86662997289729  0.07465836303630
 6  3.72871227892789  0.70600095049505  0.00364289528953
 6  1.34461640244024  1.17106883458346  0.00478809790979
 6  2.42784068456846  0.25501480118012  0.27022037993799
 6  2.17085694739474 -1.14510869116912  0.73351194479448
 1 -12.80965276607661 -2.86489946774677 -1.13125834983498
 1 -13.56243146684668 -1.32113609780978 -1.60751720642064
 1 -13.55915371757176  0.17972504130413  1.75558824152415
 1 -13.65755514911491  0.64255938303830  0.04913257885789
 1 -14.49524682878288 -1.66104481788179  0.28691029532953
 1 -10.03110172707271 -2.84215099789979 -1.88370366576658
 1 -11.21433164206421 -2.30027481888189 -2.95640392659266
 1 -9.74516670017002 -1.27255646424642 -2.93588520102010
 1 -9.24513316811681  1.02516464746475 -1.02518632873287
 1 -9.85548687628763  0.27647891199120  2.09681542434243
 1 -11.74521988288829  0.33834053565357  2.90982933303330
 1 -11.03395408910891 -1.19433631013101  2.34915570527053
 1 -12.20020256275628  2.47014313631363 -0.02494927892789
 1 -12.21666790619062  2.27557313281328  1.90844455625563
 1 -10.65284556665667  2.12216280678068  1.11622591609161
 1 -12.11934500700070 -2.65348822242224  1.20502498139814
 1 -8.97499834173417 -1.65627398509851  0.39942904180418
 1 -5.67768721482148 -2.23728705380538 -0.46500454485449
 1 -5.47120953625362 -1.29218445104510  1.17632602880288
 1 -6.82789289988999 -2.76727900090009  0.65290144094409
 1 -7.41109242034203  1.50469879897990 -0.66719639613961
 1 -4.58768541324132  0.08612723112311 -0.00241401710171
 1  13.42948862596260 -1.02983467086709  2.20759570017002
 1  12.06028120512051 -1.98499787978798  1.93133913361336
 1  13.68719107600760 -2.75184684968497  0.30697762366237
 1  12.83747118561856 -2.15818229672967 -1.88221131583158
 1  11.33652366056606 -2.52297142104210 -0.93993933603360
 1  11.71588119631963  0.40785115181518  3.23712875157516
 1  10.34078105580558  1.17769333243324  2.38044556875688
 1  10.35702332353235 -0.53200151465146  2.60412665386539
 1  13.66359326122612  0.88636726092609  0.31275534033403
 1  12.64896750995100  2.20366980478048  1.01290599629963
 1  13.50802663976397  1.40077455655566  2.14664114571457
 1  12.73341416091609 -0.22686929652965 -3.17001945384538
 1  11.96482355075508  1.49157124802480 -2.28065600050005
 1  13.31187201980198  0.61447750065006 -1.44419990539054
 1 -5.41213343724372  2.80857524432443 -0.72854426522652
 1  9.91183243384338 -0.31979063666367 -2.38866120192019
 1  15.27738058325832 -1.01160097449745  0.22425102440244
 1  8.19943179397940  1.95022734993499 -0.29845712291229
 1 -2.64840992519252  4.50013646334633  0.30554638433843
 1 -1.95187395169517  4.08941616641664 -1.36871998109811
 1 -3.84938132323232  4.53374155595560 -1.04619442094209
 1 -2.62343196329633  0.45592780478048 -0.03339629422942
 1  6.87536028592859 -2.00618018011801  0.68390087478748
 1  8.17032224672467 -1.65883060786079 -0.45400617471747
 1  8.29056897849785 -1.37516984538454  1.29235299619962
 1  6.33717886498650  1.75668947434744 -0.28813083278328
 1 -0.61606296329633  3.01248529202920  0.10896098459846
 1  4.93247923432343 -0.97450394709471  0.66762944404440
 1 -0.38008693189319 -0.08617042994299  0.24107671877188
 1  3.58819798769877  1.71884752095210 -0.54210643564356
 1  1.71189806500650  2.30711650355035 -0.13753645204521
 1  1.20840967576758 -1.46713331753175  0.53446244184418
 1  2.82870419521952 -1.79864616611661  0.27756998699870
 1  2.53383007940794 -1.18582281128113  1.75897918451845
=======
>>>>>>> 6a1b998aacd80a23911c140f266e48a14f2d523d

