%nproc=3
%Mem=2GB
# td=(NStates=1) CAM-B3LYP/6-31G(d,p) 

TD

0 1
<<<<<<< HEAD
 8 -11.83377004460446  0.08966961536154 -1.70192735633563
 8 -13.08419925572557 -2.42499080708071  1.49118480348035
 8  10.41785730563056 -0.91659154705471 -2.05996972327233
 8  14.45753912061206 -0.92566128762876 -0.50493498089809
 6 -11.18558672587259 -0.08068202290229 -0.44160358475848
 6 -11.65396168586859 -1.21127230713071 -1.25047388768877
 6 -11.87594963796380  0.53155983878388  0.80727038203820
 6 -13.01114631833183 -1.93176333423342 -0.88896053005301
 6 -13.26616507450745  0.02534508690869  0.66839152705271
 6 -13.49463589708971 -1.42382392019202  0.54388315561556
 6 -10.80398598729873 -2.10940635813581 -2.10169248754875
 6 -9.56640608440844  0.06405353915392 -0.39466642474247
 6 -11.18530450785078  0.21923632763276  2.19396446354635
 6 -11.72793317361736  2.06317142024202  0.59709780148015
 6 -8.66526994869487 -0.73831187238724  0.13259199819982
 6 -7.21741973157316 -0.57512935903590  0.21096879717972
 6 -6.42769678457846 -1.64609329812981  0.56927916421642
 6 -6.69473513521352  0.60342117201720 -0.15475403060306
 6 -5.27294723632363  0.90909294599460 -0.17770210041004
 6  12.04401364826483 -0.09077904840484  1.28220774887489
 6  11.57532482258226 -0.45383153835384 -1.29335321502150
 6  12.84784201230123 -1.39421365106511  1.28515324872487
 6  13.44697938463847 -1.73996853025303 -0.09814585018502
 6  12.38284321902190 -1.68295280428043 -1.20386434893489
 6  11.18884577247725  0.00326507440744  0.03181036133613
 6  11.11138254315432 -0.00104346234623  2.55438777897790
 6  12.85455857255726  1.19939316011601  1.35001805280528
 6  12.28765507170717  0.66626549984999 -2.07422136993699
 6 -4.68277477317732  2.13296580258026 -0.50603545244524
 6  9.90380156765677  0.47348815161516  0.17784660796080
 6 -3.33909906830683  2.49032778647865 -0.56513677437744
 6  8.66138592459246  0.82418875267527  0.08275393539354
 6 -2.94966665176518  3.86177763726373 -0.67696742884288
 6 -2.27173408850885  1.49331117981798 -0.26293882858286
 6  7.43741328382838  0.08624921292129  0.21442225812581
 6  7.73880861736174 -1.32172912501250  0.49449937283728
 6  6.28380972897290  0.71771870217022  0.11843790779078
 6 -0.92974710621062  1.85003412711271 -0.23948212331233
 6  5.01159276207621  0.09706882298230  0.12950431923192
 6  0.08222470147015  0.90993430333033  0.03273417061706
 6  3.81397080478048  0.82504285468547  0.09538206920692
 6  1.49889182998300  1.20007173487349 -0.12367474837484
 6  2.51449935043504  0.28151745144514  0.24036739463946
 6  2.36679654135414 -1.12150633093309  0.64838343194319
 1 -12.84975677647765 -3.10205318311831 -0.76662188618862
 1 -13.75503072677268 -1.73829781398140 -1.67328378307831
 1 -13.74819262146215  0.39665673447345  1.70893357605761
 1 -13.90004939853985  0.51219634673467 -0.03091542594259
 1 -14.61153845794579 -1.53110182358236  0.45344694899490
 1 -10.61847046394639 -3.11506828962896 -1.64851014641464
 1 -11.44463467236724 -2.52280707210721 -3.02792107830783
 1 -9.89358154165416 -1.54776398499850 -2.39948156065606
 1 -9.17329598439844  0.94134626562656 -0.96843065316532
 1 -10.06663799139914  0.25232649674967  2.14099984278428
 1 -11.63584894579458  0.86810351195120  3.00053840394039
 1 -11.44045473917392 -0.92306918341834  2.57257804750475
 1 -12.12045458795880  2.39456557855786 -0.53062984698470
 1 -12.30237647704771  2.56356193169317  1.30234394619462
 1 -10.67021730383038  2.41739232973297  0.69560385388539
 1 -12.10442351485148 -2.79573244684468  1.30339481838184
 1 -9.07315815771577 -1.70976933463346  0.66306540544054
 1 -5.93369281538154 -1.98779210431043 -0.30398844324432
 1 -5.58895131043104 -1.59828506110611  1.38711710791079
 1 -7.00313042364236 -2.61366363936394  0.77595374617462
 1 -7.28703001410141  1.32296062516252 -0.52307198369837
 1 -4.69367601230123  0.09307792619262  0.02045827012701
 1  13.72579825692569 -1.29920160756076  2.04363930453045
 1  12.16144132113211 -2.14702408240824  1.51566756645665
 1  13.67360971787179 -2.92637430243024 -0.05294836893689
 1  12.85189262776278 -1.92654913341334 -2.03707680238024
 1  11.62110211841184 -2.56132525642564 -0.91546688878888
 1  11.62271187938794 -0.08562819611961  3.53032807150715
 1  10.39378635633563  0.91642720582058  2.57904542874287
 1  10.58732635383539 -0.91327964246425  2.37373361456146
 1  13.63854075597560  1.35039366356636  0.58139220402040
 1  12.25590820402040  1.97774721252125  1.47928263396340
 1  13.60287612471247  1.33051753085309  2.20139662126213
 1  12.54288510801080  0.16832022242224 -2.98109056095610
 1  11.61226829522952  1.64577666856686 -2.17426536143614
 1  13.32312314491449  1.00258631153115 -1.54479996539654
 1 -5.46311853575358  2.96625101190119 -0.59186059685969
 1  9.80562181278128 -0.20155881348135 -2.16212854865487
 1  15.36710955615562 -1.13758357275728  0.18143674297430
 1  8.54511636243624  1.98338066526653  0.13042576537654
 1 -2.52988807300730  4.42668911861186  0.35405123482348
 1 -2.05059382368237  4.25733295809581 -1.34588769786979
 1 -3.82649903500350  4.37525570737074 -0.86102590409041
 1 -2.68090771087109  0.54814702670267 -0.11729468406841
 1  7.01832458235824 -2.03957351945195  0.01808429312931
 1  8.63394860936094 -1.44010873567357 -0.27507828192819
 1  8.11584150575058 -1.53306563496350  1.50541430233023
 1  6.10997614471447  1.67970177557756 -0.19019103880388
 1 -0.60463182018202  2.87195123862386 -0.48783869536954
 1  5.02843883028303 -0.93465996269627  0.71500418151815
 1  0.05027610441044 -0.23388520142014  0.24018662976298
 1  4.03139230713071  1.83458909510951  0.00354812981298
 1  1.69699657485749  2.23356914881488 -0.11601429982998
 1  1.28207704250425 -1.40965756995700  0.51792078767877
 1  2.89891121592159 -1.89655595709571  0.15422765276528
 1  2.69800649704971 -1.32027625662566  1.54317760436044
=======
>>>>>>> 6a1b998aacd80a23911c140f266e48a14f2d523d

