%nproc=3
%Mem=2GB
# td=(NStates=1) CAM-B3LYP/6-31G(d,p) 

TD

0 1
 8 -11.69808647624762  0.19419006740674 -1.56432359595960
 8 -13.01222205800580 -2.41881018901890  1.55470115511551
 8  10.58315383528353 -0.94357424532453 -2.21222494879488
 8  14.52070543724372 -1.03844256575658 -0.20750523792379
 6 -11.05641380858086 -0.18429238393839 -0.41076050045005
 6 -11.73874016371637 -1.23008418831883 -1.15562440274027
 6 -11.72841488448845  0.41931861466147  0.92154180918092
 6 -13.07827303100310 -1.77739789768977 -0.87949958395840
 6 -13.20337879587959 -0.02963041064106  0.85090977887789
 6 -13.47469390289029 -1.45970750855085  0.64957372467247
 6 -10.91514710341034 -2.01828724622462 -2.19164148244824
 6 -9.53883332713271  0.06854398819882 -0.42067902600260
 6 -11.04451042844284  0.03813821782178  2.17355242234223
 6 -11.72514289458946  1.94506961006101  0.74721281298130
 6 -8.57764118581858 -0.83435147634763 -0.02134339533953
 6 -7.18324631423142 -0.59782162826283  0.04152185248525
 6 -6.40896491139114 -1.78345703450345  0.48024026032603
 6 -6.55298095979598  0.60273110301030 -0.30316887208721
 6 -5.20049999159916  0.82706474317432 -0.25846017621762
 6  11.93774302120212 -0.04929489999000  1.33675320342034
 6  11.65215250535054 -0.60068622382238 -1.24464834453445
 6  12.71856908500850 -1.33710794049405  1.46919165256526
 6  13.44544923162316 -1.80397493089309  0.25871983638364
 6  12.54695963066307 -1.78837334633463 -1.06474043654365
 6  11.10491737963796 -0.00086533863386  0.01564874517452
 6  11.03367477237724  0.02719936193619  2.63796613681368
 6  12.87410052675268  1.19238245904590  1.37144019501950
 6  12.55196150235023  0.46105497879788 -2.09880382818282
 6 -4.76125262096210  2.13886639263926 -0.47874272317232
 6  9.86841802930293  0.34825562836284 -0.13025420212021
 6 -3.41499665806581  2.47866662036204 -0.45588584928493
 6  8.66724651065106  0.98760509430943 -0.14092843284328
 6 -3.03982566766677  3.98614007350735 -0.68066779887989
 6 -2.33484039913991  1.69182103080308 -0.26528906360636
 6  7.41162070457046  0.24289487748775  0.15462627852785
 6  7.57091182768277 -1.29820677277728  0.30197011991199
 6  6.19538088608861  0.82791972227223  0.01236730073007
 6 -1.01479561106111  1.85681480518052 -0.25786396149615
 6  4.94130573337334  0.24536365246525  0.13149451825183
 6 -0.00942446344635  0.85272858275828  0.04021491869187
 6  3.72412181988199  0.88620897129713  0.09496202720272
 6  1.38753069386939  1.20032175987599  0.07216483558356
 6  2.42479037953795  0.40663996369637  0.09360271817182
 6  2.34048391009101 -1.09416359665967  0.32150074367437
 1 -13.16011781258126 -2.98351132893289 -1.27692291629163
 1 -13.94367959165917 -1.42488647284728 -1.56516297099710
 1 -13.69925772797280  0.33608067686769  1.80629331203120
 1 -13.49726912051205  0.55785091219122  0.11677934353435
 1 -14.35290259435944 -1.53806251965196  0.98466007030703
 1 -10.84288290519052 -3.10822760556056 -1.80533582898290
 1 -11.47057726662666 -1.91185597699770 -3.29517780398040
 1 -9.86415859935994 -1.50829003760376 -2.29012062456246
 1 -9.44449310411041  1.12252438343834 -0.51159496959696
 1 -10.10698202580258  0.59833109720972  2.58118386118612
 1 -11.82957831873187  0.07631433303330  2.97851620172017
 1 -10.85984667836784 -1.17214409090909  2.25701649134913
 1 -12.15235777827783  1.96246236823682 -0.28143492749275
 1 -12.29541578097810  2.46169174467447  1.48897260906091
 1 -10.75884616671667  2.40442103260326  0.69543383688369
 1 -11.98425149764977 -2.38409128272827  1.44033851275128
 1 -8.88383922582258 -1.83788214591459  0.27097619651965
 1 -6.22061150725072 -2.57522084718472 -0.25669371377138
 1 -5.50772318761876 -1.43947918051805  1.08752714891489
 1 -7.20084019461946 -2.41661393439344  0.99782593339334
 1 -7.11842315341534  1.59709803890389 -0.36242591909191
 1 -4.65432207690769 -0.06116749834984 -0.07019079477948
 1  13.46113179027903 -1.32211389878988  2.15225016561656
 1  11.86556173317332 -2.14062344234423  1.56322232193219
 1  13.69578193509351 -2.79855152015202  0.14674160006001
 1  13.16413385188519 -1.85692217071707 -2.00255335003500
 1  11.64892490069007 -2.48949807370737 -0.83427876997700
 1  11.83199280748075  0.01392175887589  3.39036407510751
 1  10.62586956465647  1.04815037813781  2.52231975617562
 1  10.30597821902190 -0.54281259575958  2.60601684288429
 1  13.50576747864786  0.95925454965497  0.61809587438744
 1  12.18603121632163  2.22951238903890  1.28636334203420
 1  13.33632947004700  1.19565404450445  2.32590907250725
 1  12.56877769726973 -0.15099170877088 -2.95389784168417
 1  12.02462953135313  1.25832792369237 -2.37634556945695
 1  13.54304513711371  0.69109516241624 -1.48798428382838
 1 -5.44299652355236  2.98843323012301 -0.66569798059806
 1  9.99917116771677 -0.02066072367237 -1.96704904070407
 1  15.09375222042204 -1.09645946034603  0.67295589488949
 1  8.37191904270427  2.01480380758076 -0.38344562176218
 1 -2.50538562276228  4.51587803750375  0.32172800250025
 1 -2.39595836013601  3.80837806260626 -1.55699880898090
 1 -3.95874225932593  4.81725990779078 -1.11571137263726
 1 -2.63701332143214  0.72889510151015 -0.07857081168117
 1  6.78093084298430 -1.83487304940494  0.26998948364836
 1  8.34071928642864 -1.65825054985499 -0.42951372547255
 1  7.86629655125513 -1.39602193059306  1.25175893679368
 1  6.19404455155516  2.00996480188019 -0.22733475317532
 1 -0.55386674367437  2.78917296079608 -0.32167207870787
 1  5.08860484688469 -0.82559905660566  0.15104778587859
 1 -0.48504742794279 -0.12797461036104  0.32768537963796
 1  3.86844601250125  2.04450008620862 -0.24173639863986
 1  1.50148702390239  2.23352914481448 -0.12486518491849
 1  1.40658949374938 -1.53521012521252  0.54766376197620
 1  2.73389471427143 -1.67867416891689 -0.59383715371537
 1  2.97554425082508 -1.56636086508651  1.15123841044104

