%nproc=3
%Mem=2GB
# td=(NStates=1) CAM-B3LYP/6-31G(d,p) 

TD

0 1
 8 -11.74589125672567  0.36821747014701 -1.54297146074607
 8 -13.12480331613161 -2.40125843384338  1.41383706870687
 8  10.56004152405241 -1.12158204610461 -2.17398112441244
 8  14.63654702140214 -0.86188490999100 -0.14854934233423
 6 -10.97143531073107 -0.11166512121212 -0.30543996839684
 6 -11.70761705140514 -1.07833901380138 -1.30292913321332
 6 -11.66446848984898  0.46639332213221  0.92628228322832
 6 -13.07271247494749 -1.67357751565157 -0.92859449344935
 6 -13.20591904990499  0.07442999539954  0.89050373827383
 6 -13.52731916541654 -1.33782532033203  0.53748251555156
 6 -10.92254784348435 -1.92193761126113 -2.29092141044104
 6 -9.61222066586659  0.16424355815582 -0.39519647774777
 6 -11.09473545094509 -0.13193878987899  2.21526659375938
 6 -11.69649002930293  1.96447155025503  1.05720381208121
 6 -8.64192761446145 -0.80343838503850  0.00638937793779
 6 -7.17972596219622 -0.71579342544254  0.13804150445045
 6 -6.41888590349035 -1.96822551135114  0.48996123242324
 6 -6.56708236993699  0.44092492239224 -0.13595215041504
 6 -5.18232817441744  0.76657869456946 -0.18838316851685
 6  11.90010925782578  0.11131116061606  1.29659918801880
 6  11.63971126122612 -0.59999615481548 -1.24975885558556
 6  12.73080030813081 -1.24195842554255  1.40084481788179
 6  13.52688737543754 -1.66968150155015  0.21190515491549
 6  12.55073000770077 -1.73215772477248 -0.95335929842984
 6  11.05027191509151 -0.00553580568057 -0.01198401810181
 6  10.88577998289829  0.17311395339534  2.47630997119712
 6  12.77374049074908  1.33542676347635  1.39991304230423
 6  12.44750105630563  0.44938381168117 -1.91973592139214
 6 -4.66903339903990  2.05183768976898 -0.36902175107511
 6  9.87086827432743  0.54564536733673 -0.03909508620862
 6 -3.27048220662066  2.49457821152115 -0.39179944064406
 6  8.66697648364836  0.95058139193919 -0.08448278827883
 6 -2.98752043714371  3.90834229372937 -0.69869960206021
 6 -2.27179409450945  1.53924577327733 -0.18125065976598
 6  7.42415195769577  0.06089667766777  0.09943075897590
 6  7.71891662816282 -1.35923287538754  0.54945486838684
 6  6.21666301430143  0.72348927922792 -0.04743867986799
 6 -0.96804093559356  1.78613773747375 -0.31650982608261
 6  4.94657626042604  0.05280439653965 -0.07828645984598
 6  0.02613909290929  0.85456876677668 -0.11507060986099
 6  3.79051845954595  0.78563891429143 -0.21953942294229
 6  1.39042098289829  1.09560128782878 -0.26034841574157
 6  2.46424432493249  0.28783808350835 -0.04706134823482
 6  2.25052491419142 -1.12888706900690  0.46700529412941
 1 -13.15664746554655 -2.71370434823482 -0.82862808680868
 1 -13.73913913761376 -1.19690367456746 -1.74390084478448
 1 -13.59413721592159  0.52271934073407  1.90238292099210
 1 -13.43717311091109  0.66584171127113  0.02246991259126
 1 -14.63964126822682 -1.47036574997500  0.48431003530353
 1 -10.62420103700370 -2.86358314111411 -2.07779307470747
 1 -11.44689489838984 -2.00971576297630 -3.18640692689269
 1 -10.04926711021102 -1.29848905750575 -2.50315192769277
 1 -9.31899055385539  1.07488961996200 -0.83183699379938
 1 -9.93348467606761  0.17796906100610  2.42490823362336
 1 -11.62916827772777  0.43449015061506  2.91055940604060
 1 -11.18775946964696 -1.33492036853685  2.46621741144114
 1 -12.32317485998600  2.35241136313631  0.10878409440944
 1 -12.56998323772377  2.25062063756376  1.71757546934693
 1 -10.80379066116612  2.34848543904391  1.25469976347635
 1 -12.25561863436343 -2.45618849244924  1.42421690059006
 1 -9.00221106300630 -1.78688704640464  0.43972307120712
 1 -5.76167561366137 -2.09813313841384 -0.49476752115211
 1 -5.79771218651865 -1.86674190679068  1.47370576677668
 1 -7.27213732433243 -2.77802007500750  0.44409055985599
 1 -7.32289360046005  1.36651498059806 -0.19172884938494
 1 -4.60583722842284  0.01535015341534  0.16391261556156
 1  13.44763044014401 -1.08654034143414  2.35052999359936
 1  12.04591976897690 -2.15287466746675  1.36179217891789
 1  13.77699005590559 -2.82775444044404  0.13457038293829
 1  13.13445088358836 -2.06382286078608 -1.88733182788279
 1  11.74427443564356 -2.66867599149915 -0.80226556865687
 1  11.55307491569157  0.24982534923492  3.41917695639564
 1  10.32019899759976  1.08039360246025  2.54023154735474
 1  9.83615123632363 -0.41902021652165  2.36429267046705
 1  13.57240414231423  1.14993361756176  0.64396846164616
 1  12.11045365856586  2.22175161296130  1.05107981368137
 1  13.22963880098010  1.38458293739374  2.41349783138314
 1  12.46068688818882  0.12867625802580 -2.94083653555356
 1  12.13737080548055  1.59297138803880 -1.91734966986699
 1  13.59840067266727  0.46656270917092 -1.42560804620462
 1 -5.40397262116212  2.86168055485549 -0.70905231603160
 1  9.79279052965297 -0.52305096269627 -2.24432676847685
 1  15.08514135933593 -0.56012582698270  0.74826342564256
 1  8.43666551735174  1.92837516471647 -0.43884116131613
 1 -2.36469155335534  4.26881333103310 -0.05680985128513
 1 -2.47379614391439  4.21612883768377 -1.63412652175217
 1 -3.87075346044604  4.25850403220322 -0.79536933843384
 1 -2.70182980308031  0.64367657965797  0.30058710411041
 1  6.73714646454645 -1.80131969406941  0.43265575027503
 1  8.48293350785078 -1.77090181498150 -0.20063083718372
 1  7.99130905250525 -1.35528785718572  1.45413917481748
 1  6.27405255235524  1.76799060446045 -0.29799181888189
 1 -0.57035839283928  2.76342038553855 -0.69943985548555
 1  4.89625561196120 -0.93797029372937  0.26938962006201
 1 -0.29154807800780 -0.12022383528353 -0.09382677157716
 1  3.82781194909491  1.85322095829583 -0.56303852885289
 1  1.68236511171117  2.19485527742774 -0.54508720712071
 1  1.14120295509551 -1.29030563476348  0.57498649424942
 1  2.72986431123112 -1.84933123462346 -0.13351112111211
 1  2.58611530793079 -1.49127335633563  1.59077236383638

