%nproc=3
%Mem=2GB
# td=(NStates=1) CAM-B3LYP/6-31G(d,p) 

TD

0 1
<<<<<<< HEAD
 8 -11.71954862246225  0.57318796719672 -1.47382454605461
 8 -13.12837367316732 -2.41770007800780  1.25506119111911
 8  10.61074659455946 -1.10493038093809 -2.11522524882488
 8  14.56649001570157 -0.80849957145715 -0.11991647904790
 6 -11.05689385658566 -0.03493744844484 -0.23838326272627
 6 -11.57581387108711 -0.90624180408041 -1.23884272457246
 6 -11.83834587758776  0.36232291509151  0.95529518451845
 6 -12.99052425612561 -1.60072022992299 -1.08985061906191
 6 -13.39696815481548  0.02210476287629  0.79410409830983
 6 -13.61161759525953 -1.45841737953795  0.35503427072707
 6 -10.70155574427443 -1.71327674517452 -2.23914623292329
 6 -9.64909435323532  0.21778891269127 -0.26589354745475
 6 -11.19580555795580 -0.12284788078808  2.24725979307931
 6 -11.81732211251125  1.88159326242624  1.02764085578558
 6 -8.74226764846485 -0.76377441864186  0.00540927992799
 6 -7.25182317191719 -0.68853069916992  0.17469516981698
 6 -6.57492150705071 -1.93928261706171  0.57176941324132
 6 -6.56799246094609  0.50949177907791  0.08118956375638
 6 -5.23975391699170  0.77649968666867 -0.07307163736374
 6  11.88292753965397  0.24683471297130  1.33772330043004
 6  11.71637892799280 -0.64533068826883 -1.24864874457446
 6  12.77628485658566 -1.07642187188719  1.55601033443344
 6  13.49570425712571 -1.60035456885689  0.31675563996400
 6  12.56047098179818 -1.83289779877988 -0.86273023552355
 6  11.20674756265626  0.06137088498850  0.04338151845185
 6  10.94526593149315  0.31593823582358  2.51956429662966
 6  12.81808492519252  1.29732295309531  1.21897494849485
 6  12.52075838203820  0.39791866516652 -2.06759070687069
 6 -4.76758325402540  1.99858236423642 -0.31048589748975
 6  9.96638782628263  0.48844964776478 -0.13053423012301
 6 -3.35061021942194  2.30512926662666 -0.33833409410941
 6  8.61367115311531  0.88020435423542 -0.27897223722372
 6 -2.96279796489649  3.71717317681768 -0.68850858295830
 6 -2.36455337043704  1.40517236593659 -0.21660419511951
 6  7.51710125262526  0.09860044804480  0.01692250815082
 6  7.69902463896390 -1.45530248234823  0.25084500740074
 6  6.29884123212321  0.62273920422042 -0.08863279927993
 6 -0.98559269076908  1.71446056975698 -0.30606878197820
 6  5.00214181698170  0.04959407550755  0.09621098989899
 6  0.09227570657066  0.74153746364636 -0.04359346214621
 6  3.82057146484649  0.83666401680168 -0.25069253825383
 6  1.40462240304030  1.13002473017302 -0.40414279517952
 6  2.51553945444544  0.24122342204220 -0.12510915301530
 6  2.28234809650965 -1.18482266256626  0.54448304190419
 1 -12.82903470427043 -2.57272024982498 -1.21253647764777
 1 -13.84148937263726 -1.45520950515052 -1.62042849754976
 1 -13.81054885708571  0.18084515331533  1.94471715441544
 1 -13.91611100470047  0.57312243934393  0.13955162076208
 1 -14.52555986008601 -1.57040575397540  0.31783338763876
 1 -10.50552916981698 -2.85816259905991 -1.72940823622362
 1 -11.37520772967297 -1.87792258365837 -3.21370965716572
 1 -9.87614979847985 -1.10356956555656 -2.47381899439944
 1 -9.40046870167017  1.24151628262826 -0.55137894799480
 1 -10.26848817641764  0.45823708780878  2.53497924072407
 1 -11.93787914881488  0.09040574217422  2.97901625172517
 1 -11.02246293999400 -1.26117299379938  2.43105389508951
 1 -12.25781832433243  2.08419454145415  0.12559577557756
 1 -12.41290753015302  2.12206778227823  1.89930364216422
 1 -10.81287156925693  2.54157474797480  1.14404869836984
 1 -12.04459753225322 -2.16513938753875  1.30217469636964
 1 -9.08105894779478 -1.78295665336534  0.30291939083908
 1 -6.13873331943194 -2.13684700980098 -0.29821786618662
 1 -5.78022043734373 -1.92464769736974  1.26508490469047
 1 -7.34759487008701 -2.70264253725373  0.71887803860386
 1 -7.29994130523052  1.54690301940194  0.16838716221622
 1 -4.44330097479748 -0.03067444904490  0.13228945324532
 1  13.42789846694669 -0.92592427982798  2.28910385098510
 1  12.11362653965397 -1.84344372437244  2.00983698339834
 1  13.85902825972597 -2.59104076907691  0.52683960986099
 1  13.03601103960396 -2.14568104660466 -1.71179427412741
 1  11.82818282648265 -2.81527065096510 -0.51174651675167
 1  11.44228383658366  0.22871323802380  3.51799683838384
 1  10.44739171687169  1.36210177327733  2.49551707590759
 1  10.06438405960596 -0.24786310081008  2.10663690489049
 1  13.50360726262626  1.28177680188019  0.34731879667967
 1  12.32295490869087  2.25289472727273  1.27577228292829
 1  13.49908574567457  1.50247472657266  2.06203268486849
 1  12.57424824432443 -0.10570718031803 -3.03327577947795
 1  11.80944801320132  1.33338542944294 -2.21424935983598
 1  13.64944577717772  0.50058611151115 -1.46859234463446
 1 -5.73218544244424  2.72578696549655 -0.41192260306031
 1  9.81074232483248 -0.40375903350335 -1.86474881068107
 1  15.29173201840184 -0.54950476487649  0.72699129842984
 1  8.36641849264927  1.90122244944494 -0.64964224142414
 1 -2.24345943014301  4.11278772847285 -0.07971214151415
 1 -2.55121388568857  3.79610683548355 -1.63476658575858
 1 -3.89467585268527  4.35610379217922 -0.82007180868087
 1 -2.73934355445545  0.32507471947195  0.02183922932293
 1  6.81525427532753 -2.07668723082308  0.05207769246925
 1  8.52035725022502 -1.83518824362436 -0.30923169726973
 1  8.10898081968197 -1.72972530093009  1.27569133003300
 1  6.34321946904690  1.84084789018902 -0.31513353305331
 1 -0.73252460946095  2.53872791629163 -0.77397730923092
 1  4.88983496989699 -0.91589808650865  0.47852053315332
 1 -0.24711363456346 -0.14829664256426  0.12800541164116
 1  3.91239040694069  1.83537917411741 -0.60705293029303
 1  1.75125200040004  2.13968976087609 -0.58810150855085
 1  1.24054288908891 -1.45684228842884  0.67771676727673
 1  2.64294561936194 -2.11140744224422 -0.27866563656366
 1  2.82065876227623 -1.27324155315532  1.56515980258026
=======
>>>>>>> 6a1b998aacd80a23911c140f266e48a14f2d523d

