%nproc=3
%Mem=2GB
# td=(NStates=1) CAM-B3LYP/6-31G(d,p) 

TD

0 1
<<<<<<< HEAD
 8 -11.63539020662066  0.10036068446845 -1.62252941654165
 8 -12.98724956075608 -2.33508181618162  1.51208689368937
 8  10.67423294319432 -0.90804069196920 -2.16160988728873
 8  14.46676004270427 -1.13644236573657 -0.02301678907891
 6 -11.01772994019402 -0.08903285798580 -0.32965238963896
 6 -11.61360765046505 -1.24568574847485 -1.19100794109411
 6 -11.85635767876788  0.47336401920192  0.71318097309731
 6 -12.96214141784178 -1.89049920782078 -0.92557419141914
 6 -13.33288174617462 -0.04707215481548  0.66575126302630
 6 -13.54320075357536 -1.46393793159316  0.44003277057706
 6 -10.80614620332033 -2.07179259675968 -2.14338665696570
 6 -9.56115555935594  0.01722885668567 -0.31061801990199
 6 -11.15190116751675  0.12696710071007  2.20671573867387
 6 -11.75546592689269  1.96447155025503  0.63280137183718
 6 -8.67630105180518 -0.84606264746475  0.15553429242924
 6 -7.23252124172417 -0.64528637473747  0.06644434473447
 6 -6.40894490939094 -1.85147383618362  0.43484572087209
 6 -6.64821048274827  0.59991082098210  0.01054249904991
 6 -5.31219116071607  0.93478551525153  0.03533920372037
 6  11.88646789368937  0.02178220772077  1.27207673577358
 6  11.75894318441844 -0.60982713791379 -1.25214909460946
 6  12.62051928002800 -1.33638786848685  1.47330206360636
 6  13.37008169486949 -1.89303383678368  0.27697166156616
 6  12.41401633633363 -1.99127363636364 -0.96742070457046
 6  11.08224511241124  0.04959970787079  0.00684786508651
 6  11.03556496139614  0.31364800680068  2.51931427162716
 6  12.92174529122912  1.15156837763776  1.25748879987999
 6  12.60476678287829  0.44108298159816 -2.02594654245425
 6 -4.79327582328233  2.18207071307131 -0.29006385528553
 6  9.91687287478748  0.50271107390739 -0.03702487918792
 6 -3.34197935633563  2.54583333703370 -0.23858411911191
 6  8.66135592159216  1.04133046684668 -0.17393173317332
 6 -3.12438412351235  4.00484194369437 -0.35158489058906
 6 -2.29198611371137  1.64146599529953 -0.12139467416742
 6  7.49368891139114  0.27409799779978 -0.01603078717872
 6  7.73517825432543 -1.27037398949895  0.19269919281928
 6  6.22267361536154  0.75313224352435 -0.21241517751775
 6 -0.94369850135014  1.87974709840984 -0.13268144324432
 6  4.95909751255126  0.06970608670867 -0.07749638083808
 6  0.03505998499850  0.99036234613461  0.08628952615262
 6  3.77333674137414  0.75089543994399 -0.22379984898490
 6  1.39002094289429  1.28842056975698 -0.17620000090009
 6  2.45424332483248  0.32952225192519 -0.00739738183818
 6  2.17444730643064 -1.09682386268627  0.35911450505051
 1 -12.68230003080308 -2.98901187898790 -1.04709993399340
 1 -13.78239346304630 -1.62204618881888 -1.80047650235023
 1 -13.71302910511051  0.25328239703970  1.67385006770677
 1 -13.86278567216722  0.52786791389139 -0.10878321272127
 1 -14.40100740484048 -1.70352906630663  0.55821742604260
 1 -10.67686630353035 -2.95980276307631 -1.91041633703370
 1 -11.41787199609961 -2.19030382178218 -3.08764705090509
 1 -9.85937812131213 -1.62808201680168 -2.20245185768577
 1 -9.35402405720572  0.95247737873787 -0.86230004010401
 1 -10.02679400700070  0.51936320042004  2.17568331113111
 1 -11.69686504740474  0.52489919151915  2.96241459155916
 1 -10.94061475517552 -0.96436331283128  2.30052084178418
 1 -12.01941448394840  2.17510363236324 -0.52845962996300
 1 -12.62882912231223  2.35323089858986  1.35647935973597
 1 -10.81773205530553  2.41832242274227  0.94319861336134
 1 -12.22438551105110 -2.53622649624963  1.53419789868987
 1 -9.04534537643764 -1.75570392809281  0.72052115101510
 1 -5.99493893999400 -2.32869619471947 -0.41384942934293
 1 -5.52885530083008 -1.54401963456346  1.01320971717172
 1 -6.88443855445545 -2.74522679567957  0.88130428122812
 1 -7.34486579767977  1.46651498059806 -0.39960963746375
 1 -4.52721936663666  0.03639225762576  0.11422764706471
 1  13.25158083518352 -1.38776046344634  2.30098503910391
 1  11.83004818181818 -2.03209258925893  1.60279627932793
 1  13.73525588248825 -2.89076074107411  0.38061498739874
 1  12.93511094959496 -2.26153263176318 -1.78126122082208
 1  11.72794280248025 -2.66330545444544 -0.85628097019702
 1  11.57806741494150  0.34916528322832  3.38204324302430
 1  10.61897887558756  1.24981054415442  2.42422994719472
 1  10.25408302950295 -0.61485980048005  2.53105934713471
 1  13.76241314321432  1.11897052125213  0.30881494629463
 1  12.42619523272327  2.12292172997300  1.21737644334433
 1  13.37958379547955  1.31245572467247  2.33715019661966
 1  12.90080089958996 -0.10024663426343 -2.91410386228623
 1  12.14329139753975  1.34698678957896 -2.31688962386239
 1  13.49902073467347  0.53117917081708 -1.66043152855285
 1 -5.42135435933593  2.97245163196320 -0.39966137693769
 1  10.18086933753376 -0.16193485108511 -2.42280461626163
 1  15.16472931813181 -1.29684949934993  0.71495009430943
 1  8.47304915571557  2.02460478767877 -0.38927620482048
 1 -2.54066915111511  4.43042949264927  0.44098992869287
 1 -2.40189895419542  3.96890411521152 -1.24308741784178
 1 -3.79691607670767  4.62112029382938 -0.46597639913991
 1 -2.61609122922292  0.66465867786779  0.13973101850185
 1  6.82377512741274 -1.96960652275227  0.29992247694770
 1  8.36200141464147 -1.55398012281228 -0.81564233833383
 1  8.57464738633863 -1.46701903030303  0.96773053395340
 1  6.25576072317232  1.85705951135114 -0.29314133383338
 1 -0.72069342634263  2.78814285778578 -0.56756666816682
 1  4.89048503490349 -0.91775827252725  0.23542622372237
 1 -0.21538046124612 -0.00539235213521  0.30073268436844
 1  3.96989615751575  1.78223385958596 -0.52025425042504
 1  1.71070794599460  2.15840163206321 -0.46491919031903
 1  1.07449628442844 -1.20243684788479  0.82085108070807
 1  2.32932425722572 -1.66091239273927 -0.51974974497450
 1  3.00577727412741 -1.37404163316332  0.97233051965197
=======
>>>>>>> 6a1b998aacd80a23911c140f266e48a14f2d523d

