%nproc=3
%Mem=2GB
# td=(NStates=1) CAM-B3LYP/6-31G(d,p) 

TD

0 1
 8 -11.83127979557956  0.22318296669667 -1.54073123672367
 8 -12.71181201700170 -2.52804111211121  1.42655834083408
 8  10.55598111801180 -1.20416030393039 -1.95505923222322
 8  14.35591895859586 -0.92047076857686 -0.12832732013201
 6 -10.97502566976698 -0.15456941164116 -0.41556098049805
 6 -11.66082237193719 -1.21360254015402 -1.24017285758576
 6 -11.77198924192419  0.31446812961296  0.90076973197320
 6 -12.90811601530153 -1.84177433533353 -0.93836547054705
 6 -13.23098155615562 -0.11389883748375  0.98778346624662
 6 -13.44142057555756 -1.67208874667467  0.58357712501250
 6 -10.82356794549455 -1.94331974947495 -2.28417073537354
 6 -9.47805724952495  0.18961609540954 -0.48283524162416
 6 -10.96864284168417 -0.03570916691669  2.19453452055206
 6 -11.76756713701370  1.82724782788279  0.92909100080008
 6 -8.72946636833683 -0.81210925212521  0.05308404740474
 6 -7.28217620722072 -0.58096994309431 -0.00882318201820
 6 -6.38668268316832 -1.77787647644764  0.25439767606761
 6 -6.67860352205220  0.75573640354035 -0.04585314051405
 6 -5.30724066566657  0.96041807850785 -0.03332766296630
 6  11.80485973287329 -0.01762173267327  1.35481500960096
 6  11.67118440854085 -0.74469062426243 -1.20539441914191
 6  12.57975520362036 -1.36190041974197  1.55968070147015
 6  13.32190687738774 -1.85672020542054  0.32682664706471
 6  12.36046098079808 -1.94295880488049 -0.77213117561756
 6  11.08028491639164 -0.01436668876888 -0.02188500820082
 6  10.92605401030103  0.14401104310431  2.57511985218522
 6  12.92571568826883  1.24110733153315  1.34157720872087
 6  12.46862316851685  0.16288516181618 -2.16458040584058
 6 -4.78611510721072  2.27847035303530 -0.16089093799380
 6  9.93290447794780  0.56404720752075 -0.07317849454945
 6 -3.40252541094109  2.62946169986999 -0.25507576827683
 6  8.73423320932093  1.03626996079608 -0.33221756175618
 6 -3.08755044014401  4.04535599509951 -0.57853758585859
 6 -2.31037795289529  1.62071392009201 -0.13984651935194
 6  7.50597013951395  0.20293088108811 -0.15987517161716
 6  7.75848058455846 -1.18772572467247  0.31354127702770
 6  6.31976332433243  0.74719164946495 -0.34454839083908
 6 -0.97132126362636  1.91350047374737 -0.32781095619562
 6  4.96006760956096  0.14088320442044 -0.13095172637264
 6 -0.01685520652065  0.96286959685969 -0.05719482228223
 6  3.81191059875988  0.89800015041504 -0.19661713071307
 6  1.30146208700870  1.31100282798280 -0.10593297419742
 6  2.48297619811981  0.50142944264426  0.00577393529353
 6  2.33526338803880 -0.98957313761376  0.38044663826383
 1 -12.80468226902690 -2.93047602540254 -0.86449167316732
 1 -13.74628985268527 -1.48026201040104 -1.68008446314631
 1 -13.88475627782778  0.09093616241624  1.80476315901590
 1 -13.87530692429243  0.31434656175618  0.30865853145315
 1 -14.54977228132813 -1.72122083548355  0.74236584088409
 1 -10.69569818671867 -2.97761454425443 -1.98603389878988
 1 -11.29458966786679 -2.03983877527753 -3.36478476467647
 1 -10.02946513001300 -1.32500170877088 -2.39205081758176
 1 -9.16918557335734  1.26724885588559 -0.82174598469847
 1 -10.00834216181618  0.49738100220022  2.06060180298030
 1 -11.19522488338834  0.46895359695970  3.24092244234423
 1 -11.07053774747475 -1.11263814031403  2.24740553025303
 1 -12.13709625212521  2.29079520152015 -0.14365114911491
 1 -12.52595883528353  2.43679925542554  1.56398010981098
 1 -10.96380666276628  2.42273286378638  0.99840413391339
 1 -11.73243631613161 -2.53675654925493  1.08244272317232
 1 -9.03762460436044 -1.65612397009701  0.31510060896090
 1 -5.90793023912391 -2.33254657975798 -0.50130817521752
 1 -5.63692610791079 -1.47809304190419  0.99517791399140
 1 -6.97035714631463 -2.59782205520552  0.65743189398940
 1 -7.36408771987199  1.64557288638864 -0.06144582108211
 1 -4.49603624832483  0.14623324172417  0.13607983228323
 1  13.40448612571257 -1.25199688708871  2.43166810741074
 1  11.86693187018702 -2.14220360036004  1.94967096679668
 1  13.68759111601160 -2.78034969997000  0.40851777767777
 1  12.89604704320432 -2.19424590309031 -1.64779787448745
 1  11.56896690489049 -2.79273839773977 -0.65902124422442
 1  11.59541915011501  0.01113147984798  3.42022706140614
 1  10.57198417611761  1.14152971607161  2.66201372557256
 1  10.15833345454545 -0.49438775327533  2.54382062326233
 1  13.64184108600860  1.15312393659366  0.52351641644164
 1  12.20267288048805  2.14436387418742  1.38759346504650
 1  13.11217705480548  1.05233971307131  2.55570205180518
 1  13.01821264076408 -0.27659426902690 -3.08833128502850
 1  11.96538360676067  1.08269035993599 -2.58306624152415
 1  13.26059689228923  0.59293534643464 -1.55543102850285
 1 -5.54052627652765  3.08249263606361  0.05324391359136
 1  10.19826107670767 -0.31755041264126 -2.25644798059806
 1  15.16766961216122 -0.75116493089309  0.60865946524652
 1  8.63980583138314  2.02623495069507 -0.79332660986099
 1 -2.61611669586959  4.39783623332333  0.26858268796880
 1 -2.32810157445745  3.92937016181618 -1.45847895699570
 1 -3.88734511961196  4.53270145194519 -1.06626642814281
 1 -2.65865548564857  0.67991020302030  0.58558560396040
 1  7.00181293119312 -1.97221678377838  0.21856434113411
 1  8.59599481398140 -1.53756848164816 -0.36073684778478
 1  8.10330025162516 -1.12399472787279  1.42059582048205
 1  6.44362951005101  1.82866667206721 -0.38132015171517
 1 -0.67426878387839  2.78063210671067 -0.75165507700770
 1  5.13142912931293 -0.85290178687869  0.35307798889889
 1 -0.14847377057706 -0.14650646354635  0.26495910701070
 1  4.15746491439144  1.93314895109511 -0.34141636663666
 1  1.62127900310031  2.25008079998000 -0.34140683908391
 1  1.32321115591559 -1.42186879107911  0.21166016161616
 1  2.97149847464746 -1.65195149664966 -0.33356112611261
 1  2.56806350275027 -1.37209143814381  1.41132441904190

