%nproc=3
%Mem=2GB
# td=(NStates=1) CAM-B3LYP/6-31G(d,p) 

TD

0 1
 8 -11.80003667126713  0.11197184558456 -1.74357152075208
 8 -13.12843367916792 -2.33843215121512  1.40149583458346
 8  10.52233775367537 -1.00693058095810 -2.17939166546655
 8  14.59108247494749 -1.11865058655866 -0.37172165956596
 6 -11.10006817401740 -0.08400235493549 -0.43410283468347
 6 -11.70919720942094 -1.23419459935994 -1.26405524582458
 6 -11.81634367736774  0.41885856865687  0.82260191519152
 6 -13.10690589428943 -1.76619677757776 -1.00028166216622
 6 -13.36999545754576 -0.06265371297130  0.79203389128913
 6 -13.62540897439744 -1.41875341314131  0.36243501080108
 6 -10.93574916361636 -2.06476189368937 -2.30992331063106
 6 -9.61133057685769  0.07282441624162 -0.54679163726373
 6 -11.08622459985999  0.01837624162416  2.11407647474747
 6 -11.69322970327033  1.97608271137114  0.64671276297630
 6 -8.74009743144314 -0.81589963116312  0.13129186818682
 6 -7.28076606620662 -0.61226307240724  0.20383808410841
 6 -6.46920093499350 -1.80079876867687  0.68356059235924
 6 -6.62005766746675  0.56483731363136  0.03977542234223
 6 -5.17246718831883  0.87338937563756  0.01160683048305
 6  12.00690993789379  0.02283231273127  1.28546807490749
 6  11.65882317241724 -0.62689884508451 -1.29843372307231
 6  12.84064129222922 -1.26641087078708  1.35044977837784
 6  13.40824551125113 -1.81086561996200  0.04643860826083
 6  12.49046398109811 -1.87075158415842 -1.07816177867787
 6  11.11252814071407 -0.04313956605661  0.00551773207321
 6  11.14926633153315  0.21355799779978  2.49207154735474
 6  12.97327044374437  1.28150137093709  1.05694874587459
 6  12.34304061026103  0.37907678097810 -2.22659660746075
 6 -4.69852634833483  2.16097860386039 -0.19250409930993
 6  9.92863405090509  0.47724852765277  0.00727955125513
 6 -3.37112227062706  2.51239999369937 -0.22010227092709
 6  8.69436922292229  0.98031436523652  0.09052471247125
 6 -3.08970065516552  3.87016847634763 -0.71743147524752
 6 -2.34907182228223  1.54881673037304 -0.05491802650265
 6  7.52059160166017  0.20285087308731  0.19492030793079
 6  7.65809054555456 -1.24130108220822  0.61756167906791
 6  6.25707705570557  0.78082501280128  0.06110217421742
 6 -0.98092222372237  1.82497162086209 -0.18919709480948
 6  5.05348695149515  0.19230834693469  0.20000136893689
 6  0.06382286128613  0.93746705660566 -0.02544164696470
 6  3.90212962066207  0.98052840324032 -0.06887435643564
 6  1.46714865566557  1.22650437813781 -0.02021440234023
 6  2.61724962546255  0.43849314901490  0.16655001290129
 6  2.43371323302330 -1.05586976727673  0.47690628422842
 1 -12.99820162096210 -2.78494147194719 -1.08517374137414
 1 -13.98676390009001 -1.29816380058006 -1.63332978767877
 1 -13.77716551875188 -0.02019495069507  1.79197187988799
 1 -13.63888328192819  0.83028815591559  0.23433109870987
 1 -14.57611491559156 -1.62790150355036  0.31835343964396
 1 -10.51402001890189 -3.07376415921592 -2.07604289968997
 1 -11.58161837073707 -2.25726051745175 -3.06260454665467
 1 -10.02900508400840 -1.66580578917892 -2.76491810431043
 1 -9.25891454625463  0.77932006300630 -1.00006381648165
 1 -9.99595092269227  0.05693695779578  1.92333807660766
 1 -11.39354471537154  0.79750645224522  3.02725107520752
 1 -11.38762945664566 -1.14264114061406  2.03143393309331
 1 -12.04109665216522  2.20648677067707 -0.43319010301030
 1 -12.53974021342134  2.41670724622462  1.20000371217122
 1 -10.73473375547555  2.52237282778278  0.97373166666667
 1 -12.05874894739474 -2.37879075267527  1.39193367226723
 1 -9.15907674957496 -1.70696905460546  0.66003510241024
 1 -5.60569001510151 -2.02294561966197 -0.11263930833083
 1 -5.90737315261526 -1.46219145174517  1.73492188838884
 1 -7.11836194679468 -2.72574484748475  0.76766291709171
 1 -7.21931324242424  1.47278560766077 -0.11243091959196
 1 -4.51997864256426  0.06239485788579  0.26876310061006
 1  13.50595627272727 -1.15570725812581  2.22678761936194
 1  12.14309948694870 -1.86062544254425  1.82543854355436
 1  13.83878623552355 -2.80046171117112  0.32801972787279
 1  13.03951138963896 -2.15855233373337 -2.00466356105611
 1  11.73183319151915 -2.75238436233623 -0.66919226132613
 1  11.61433104130413  0.06758712541254  3.32101714041404
 1  10.82861983968397  1.23397896099610  2.11986951115111
 1  10.43352097329733 -0.49063737823782  2.48089433063306
 1  13.72490939283928  1.06848547274728  0.24754881968197
 1  12.24594720792079  2.07257669546955  0.95031973767377
 1  13.49733557065706  1.25046952605261  2.00439692129213
 1  12.39207002650265 -0.14039064866487 -3.26247869976998
 1  11.58943601200120  1.25963805470547 -2.41649958485849
 1  13.39523035563556  0.64551060396040 -1.91432691809181
 1 -5.55283750765077  2.79339372617262 -0.19619102990299
 1  9.98897014761476  0.02906424882488 -2.29505184098410
 1  15.14648749394939 -1.31361117551755  0.49891849114911
 1  8.47682953375338  2.15934826202620 -0.09616689388939
 1 -2.61244632883288  4.27801425112511  0.19248507820782
 1 -2.57535629992999  3.80780800560056 -1.56345945504550
 1 -3.96398278337834  4.37515569736974 -0.94063386488649
 1 -2.64391401150115  0.62731494349435  0.39261630703070
 1  6.63266601650165 -1.90840040214021  0.62885537023702
 1  8.40175539003900 -1.73117784258426  0.01210043594359
 1  7.94548447004701 -1.26240856925693  1.73230699159916
 1  6.32127727482748  1.91926573197320 -0.03078509820982
 1 -0.69583094009401  2.81272531603160 -0.53804371587159
 1  4.74490047644764 -0.86069256595660  0.36896957805781
 1 -0.17327625082508 -0.07896970987099  0.29183179427943
 1  4.07928709660966  2.05440107630763 -0.12232445744574
 1  1.70339721492149  2.45564135603560  0.08523582518252
 1  1.30122895769577 -1.65517212141214  0.27398639423942
 1  3.07242856765677 -1.79283558505851 -0.14540231023102
 1  2.51070776717672 -1.28686291529153  1.56827011361136

