%nproc=3
%Mem=2GB
# td=(NStates=1) CAM-B3LYP/6-31G(d,p) 

TD

0 1
 8 -11.68236490409041  0.27477812621262 -1.48495565916592
 8 -13.15271610741074 -2.33711201920192  1.45422110711071
 8  10.57668318821882 -1.17990787868787 -2.04080780708071
 8  14.49239260596060 -0.71448016951695 -0.32836732413241
 6 -11.02646081328133 -0.17846180088009 -0.25056448084808
 6 -11.69885617531753 -1.16569774967497 -1.26847568786879
 6 -11.82522456545655  0.36282296509651  0.87426708170817
 6 -13.02073727742774 -1.72092225012501 -0.95155678967897
 6 -13.33870232823282  0.00464301670167  0.85851053895390
 6 -13.58966540004000 -1.46101763956396  0.42608137543754
 6 -11.00298588728873 -1.95427084458446 -2.26101842014201
 6 -9.54086353015301  0.12299943374337 -0.35349230733073
 6 -11.09465544294429 -0.15673126912691  2.30722578967897
 6 -11.64415479577958  1.86138124122412  0.79081717341734
 6 -8.67476089778978 -0.81333937513751 -0.04065532653265
 6 -7.20387837743774 -0.61588343444344  0.03436113641364
 6 -6.38910292519252 -1.80024871367137  0.53706594289429
 6 -6.68121378307831  0.66318714861486 -0.23219177437744
 6 -5.26829677127713  0.94100613731373 -0.19982431263126
 6  11.95055430233023 -0.02177214771477  1.41710123822382
 6  11.71272856295630 -0.62499865506551 -1.24064794449445
 6  12.76411363946395 -1.21617584728473  1.45075980938094
 6  13.49873456015602 -1.72651718511851  0.15865983038304
 6  12.54616955165517 -1.91714622362236 -1.04136809930993
 6  11.10312720062006 -0.08354360646065  0.06248342864286
 6  11.08296970187019  0.09638628062806  2.67354969516952
 6  12.92940605730573  1.34702792359236  1.37028007900790
 6  12.41696800300030  0.43982285558556 -2.09797374517452
 6 -4.69869636533653  2.17118962496250 -0.37275212411241
 6  9.89412059955996  0.47944874767477 -0.04411558825883
 6 -3.31193635203520  2.49118787248725 -0.27449771047105
 6  8.62241202720272  0.80963729752975 -0.21605594559456
 6 -2.98356004110411  3.94306576607661 -0.61740147224722
 6 -2.28523543864386  1.56956880558056 -0.19454198889889
 6  7.45870541304130  0.10690127812781  0.02699351525153
 6  7.70511524802480 -1.36858381048105  0.46504642754275
 6  6.19273062106211  0.76177310761076 -0.07118105410541
 6 -0.87291142264226  1.83678280198020 -0.35488366346635
 6  4.95165676847685  0.11566068216822  0.10753212201220
 6  0.06094257325733  0.94617792769277 -0.04116321912191
 6  3.77000640834083  0.81801215161516 -0.17887535653565
 6  1.35937787858786  1.21320304800480 -0.19890227112711
 6  2.40787868836884  0.37695699539954  0.00285364326433
 6  2.17682754445445 -1.10338451875188  0.42275086868687
 1 -13.03037483828383 -2.92625560336034 -0.94988021202120
 1 -13.68795401910191 -1.47072105630563 -1.51230768546855
 1 -13.83136093829383  0.16402347114712  1.90703338603860
 1 -13.90629002260226  0.60031515861586  0.21441910751075
 1 -14.62222952705270 -1.67275598899890  0.69529113341334
 1 -10.86627524442444 -3.02980976377638 -1.72940823622362
 1 -11.57503771267127 -2.14879967136714 -3.11541982818282
 1 -10.06627881138114 -1.44641384998500 -2.48204981748175
 1 -9.20002865766577  1.16495862686269 -0.59811362146215
 1 -9.93949527712771  0.22575383948395  2.43308905170517
 1 -11.50534589548955  0.23499020062006  3.23382173227323
 1 -10.85927662136213 -1.22092896939694  2.40382117181718
 1 -11.68715125762576  2.58267438943894 -0.22288907290729
 1 -12.25217145654565  2.42150772627263  1.45614932673267
 1 -10.67243752585259  2.09029962046205  1.11657595109511
 1 -12.23269634213421 -2.49946281988199  1.19330380928093
 1 -8.94429527142714 -1.81231958965897  0.17912701160116
 1 -5.68832827892789 -2.16732005710571 -0.28360640504050
 1 -5.82377479277928 -1.44084931753175  1.36527492369237
 1 -6.98894900550055 -2.72315458845885  0.76005215601560
 1 -7.14952626372637  1.50325865496550 -0.47796747324732
 1 -4.51212785748575  0.03862248064806 -0.00026380208021
 1  13.66783246034603 -0.81941362876288  2.13718865946595
 1  12.26904208120812 -2.07348672867287  1.96441244094409
 1  14.06033839073907 -2.62295396039604  0.50280720662066
 1  13.05766320482048 -2.20468694719472 -1.80513360806081
 1  11.87730773897390 -2.74012313621362 -0.95693103520352
 1  11.50276988518852  0.10951131783178  3.60399543824382
 1  10.30050702840284  0.88569413251325  2.63166069026903
 1  10.32158978017802 -0.80711902640264  2.49915615681568
 1  13.63256015791579  1.26801542574257  0.69000306510651
 1  12.26106872007201  2.27154659245925  1.14543924962496
 1  13.28929476657666  1.37288176727673  2.33865034663466
 1  12.88650947044705  0.04972836323632 -2.91540399229923
 1  11.62766983538354  1.22902499339934 -2.41174910981098
 1  13.07570840344034  1.02625867876788 -1.37307279267927
 1 -5.43396562046205  2.95966035283528 -0.50664207500750
 1  9.80628187878788 -0.54086274387439 -2.11915425122512
 1  15.24961780698070 -0.66069588398840  0.35139373867387
 1  8.33882573337334  1.89641196839684 -0.47404468166817
 1 -1.99364444864487  4.04866131583158  0.02711854155416
 1 -2.48310707500750  3.99452667746775 -1.44177728682868
 1 -3.69475586068607  4.71206938873887 -0.49392919441944
 1 -2.76489610971097  0.44614682668267 -0.11212416701670
 1  6.73515626552655 -1.91352091419142  0.63229571427143
 1  8.47042225672567 -1.71489621442144 -0.34034480858086
 1  8.35839576117612 -1.44835716411641  1.51299506040604
 1  6.26635178227823  1.96369017441744 -0.25661768146815
 1 -0.55483684068407  2.87759180268027 -0.60535044654465
 1  4.88367435383538 -0.88187468416842  0.41065374647465
 1 -0.09059798299830 -0.06239805270527  0.05482809390939
 1  3.93600276817682  1.86720235643564 -0.38132035703570
 1  1.49791666686669  2.29355514741474 -0.50745344374437
 1  1.03107194199420 -1.29332593679368  0.71086008160816
 1  2.55783710851085 -1.75081138263826 -0.44880265026503
 1  2.98630532693269 -1.34486871587159  1.26745003160316

