%nproc=3
%Mem=2GB
# td=(NStates=1) CAM-B3LYP/6-31G(d,p) 

TD

0 1
<<<<<<< HEAD
 8 -11.71668833643364  0.21209185758576 -1.64009117271727
 8 -13.03146398219822 -2.64357266526653  1.30861654665467
 8  10.58981450135014 -1.18974886278628 -2.14446817311731
 8  14.58614198089809 -1.07347606910691 -0.28710319771977
 6 -11.09684785198520 -0.04056801150115 -0.32085150955095
 6 -11.53293958365837 -1.14199537943794 -1.29788862916292
 6 -11.90333237623762  0.36054273707371  0.90814046904690
 6 -12.79912511621162 -1.96095625352535 -1.04606624062406
 6 -13.36597505550555 -0.18795624322432  0.73726841474147
 6 -13.43741017451745 -1.67509904770477  0.34030279757976
 6 -10.46818240694070 -1.92083750125012 -2.10545286358636
 6 -9.58162760656066  0.30165729952995 -0.28988594669467
 6 -11.27477345474547 -0.13574917091709  2.24827989508951
 6 -11.81632201250125  1.97070217331733  0.83478156985699
 6 -8.67033045474547 -0.55335337653765  0.14557329632963
 6 -7.29484747434743 -0.44577642374237  0.24843254355436
 6 -6.41713572847285 -1.64685337413741  0.55127736403640
 6 -6.65274093579358  0.71447227712771 -0.06929548474847
 6 -5.25550549214922  1.01670370707071 -0.09614394459446
 6  11.86859610651065  0.05569559905991  1.25219474757476
 6  11.67122441254125 -0.67586374157416 -1.36634051375138
 6  12.70761798989899 -1.21364559425943  1.38802353575358
 6  13.41465615231523 -1.75877041044104  0.12745671007101
 6  12.46677161186119 -1.93915842484248 -0.95590955345535
 6  11.07445433333333  0.05881062896290 -0.03090591029103
 6  11.01470287518752  0.22078872087209  2.50505284548455
 6  12.86273939063906  1.23362658345835  1.23677672867287
 6  12.50606691289129  0.34876374967497 -2.19174312211221
 6 -4.62158865456546  2.26787929392939 -0.35368021692169
 6  9.80203139063906  0.54351515431543 -0.09607078377838
 6 -3.27547270567057  2.57418617231723 -0.40795105580558
 6  8.62040182618262  0.98364469826983 -0.21796613661366
 6 -2.92385407050705  4.11238269776978 -0.85152488458846
 6 -2.34592150725073  1.68500034873487 -0.20645318001800
 6  7.45527507000700  0.12940352835284  0.04823563946395
 6  7.57437217371737 -1.34512146424642  0.44095401830183
 6  6.22315366336634  0.72740967126713 -0.03572750875087
 6 -0.97712184368437  1.89158828252825 -0.10783895899590
 6  4.97860946374638  0.10725984208421  0.18845021382138
 6 -0.01879540054005  0.96301961186119  0.08287918511851
 6  3.75665507320732  0.81196154655466  0.12225475647565
 6  1.36028796959696  1.14156588428843 -0.03402578347835
 6  2.47972587308731  0.20205950565056  0.15738909680968
 6  2.20004986668667 -1.19835401570157  0.55329392299230
 1 -12.55503730453045 -3.14531750955095 -1.25928115211521
 1 -13.46493171687169 -1.84831881608161 -1.80361681638164
 1 -13.99233703590359 -0.18648157935794  1.64261694439444
 1 -13.83353274687469  0.60892601970197  0.08210587618762
 1 -14.62845014911491 -2.10973968736874  0.23521512581258
 1 -9.88614723162316 -2.88873565636564 -1.62222751815182
 1 -11.00327053595359 -2.28528331973197 -3.02585087128713
 1 -9.49333151665166 -1.26107531613161 -2.30971258375838
 1 -9.26350500530053  1.33143527452745 -0.89301311141114
 1 -10.22941426902690 -0.10544928082808  2.14346008880888
 1 -11.84156951785178  0.43309001060106  3.09675802590259
 1 -11.51252194589459 -1.35183205970597  2.44998578827883
 1 -12.12785532803280  2.35853197519752 -0.06189297329733
 1 -12.47640387978798  2.11173674917492  1.55544925672567
 1 -10.88227850995099  2.25939653015302  1.12527682118212
 1 -12.10630370287029 -2.67074994859486  1.18744322322232
 1 -9.06298714061406 -1.54714307200720  0.57918701760176
 1 -5.72444189028903 -1.74846817191719 -0.56925496989699
 1 -5.72375479077908 -1.19767500010001  1.27438583478348
 1 -6.99468957955796 -2.26665893889389  0.97902405320532
 1 -7.34478578967897  1.67677600670067 -0.04730440694069
 1 -4.60696734143414  0.09838845724572 -0.09762353805380
 1  13.35438111521152 -0.98131981938194  2.27467240784078
 1  12.22319749674968 -2.18188756875688  1.61697769746975
 1  13.63613597049705 -2.79583124812481  0.31705863176318
 1  12.94471190969097 -2.26839331783178 -1.75216831153115
 1  11.53623363156316 -2.51478060196020 -0.58779412151215
 1  11.57763737193719 -0.03263289658966  3.27875291399140
 1  10.37147412511251  1.27299286238624  2.35823334753475
 1  10.18891651285129 -0.51864017851785  2.66180242144214
 1  13.54066096799680  1.10043866806681  0.34143820862086
 1  12.36159877307731  2.01613105090509  1.00316502220222
 1  13.43696953405341  1.13224770387039  2.22476895849585
 1  12.88061888138814 -0.14740134973497 -2.96573902580258
 1  11.89387645604560  1.30072216311631 -2.45200313521352
 1  13.40735156775678  0.66186223912391 -1.57045253065307
 1 -5.35752797669767  2.99124351115112 -0.51656306710671
 1  9.98747999859986 -0.46946560416042 -2.30369270507051
 1  15.14426727192719 -0.57290710511051  0.54437303660366
 1  8.39590144094410  1.99921224842484 -0.36284356155616
 1 -2.05171025522552  4.44033048274827 -0.30402457275727
 1 -2.48930769506951  3.85796302110211 -2.00068317741774
 1 -3.80439682478248  4.83766194799480 -0.67276707820782
 1 -2.65611523162316  0.70794300630063  0.24424146954696
 1  6.50179292919292 -1.84083364546455  0.50190267496750
 1  8.21331654615462 -1.88516324112411 -0.43218399249925
 1  8.18500842244224 -1.41635396379638  1.57657141804180
 1  6.21354650175017  1.90776458185819 -0.29289130883088
 1 -0.63688504550455  3.04795883938394 -0.42423233473347
 1  4.84680066646665 -1.06029252595259  0.56116879797980
 1 -0.29134805800580  0.02940112721272  0.59858246934693
 1  3.96697586548655  1.83412904910491 -0.20452267726773
 1  1.74613148834884  2.24109990189019 -0.39955265366537
 1  1.14972380718072 -1.15919252345235  0.76898589418942
 1  2.67029835463546 -1.77532383388339 -0.14866263626363
 1  2.72425912231223 -1.27156138513851  1.67320060666067
=======
>>>>>>> 6a1b998aacd80a23911c140f266e48a14f2d523d

