%nproc=3
%Mem=2GB
# td=(NStates=1) CAM-B3LYP/6-31G(d,p) 

TD

0 1
 8 -11.72767943554355  0.34410505890589 -1.42351951555156
 8 -12.95842667846785 -2.56392470047005  1.25859154415442
 8  10.64738025792579 -1.17577746564656 -2.02022574887489
 8  14.54978834553455 -1.06919564106411 -0.04108859625963
 6 -11.00340850805081 -0.10434438913891 -0.30094951935194
 6 -11.65498178787879 -1.04789596949695 -1.28129696999700
 6 -11.63296533953395  0.22800948374838  0.99834948994899
 6 -13.00535573927393 -1.70928108600860 -1.00798243224322
 6 -13.23550200820082 -0.11735918351835  0.93538822672267
 6 -13.51495792929293 -1.56610814861486  0.44251301860186
 6 -10.74283987268727 -1.70380579807981 -2.27268958725873
 6 -9.51600104390439  0.12620975477548 -0.36510346844684
 6 -11.02669864726473 -0.33661925792579  2.26200126722672
 6 -11.70723110341034  1.79790489358936  1.09228732043204
 6 -8.67528094979498 -0.78342638383838 -0.03963522452245
 6 -7.23636162576258 -0.59477132323232  0.12694039433943
 6 -6.37001101600160 -1.86472516131613  0.39447168346835
 6 -6.61108677037704  0.65549637953795 -0.04011256645665
 6 -5.22780272187219  0.84973701040104 -0.18448277847785
 6  11.90578982588259  0.18078810831083  1.29530905900590
 6  11.64856214631463 -0.67150330553055 -1.24040792049205
 6  12.67289451755176 -1.23065729542954  1.59002373577358
 6  13.41459614631463 -1.84912944634463  0.31789575397540
 6  12.43409834453445 -2.00851536053605 -0.72261622412241
 6  11.04223111101110 -0.01426667876788  0.03603078337834
 6  11.03973537843784  0.46373301530153  2.50959329952995
 6  12.90255337203720  1.33076629742974  1.10168321932193
 6  12.62053836003600  0.12964183748375 -2.10527447524752
 6 -4.80501699739974  2.16522902890289 -0.28176302520252
 6  9.84765595309531  0.48973977677768  0.01978080138014
 6 -3.43548870727073  2.49983873757376 -0.30841110181018
 6  8.60649043504350  0.88216455025503 -0.19840418041804
 6 -3.13498518361836  3.96907836733673 -0.71333106520652
 6 -2.39313622872287  1.72351420012001 -0.15206774147415
 6  7.44770431293129  0.11861244924492 -0.04679386348635
 6  7.63478821532153 -1.35542249434943  0.40806072897290
 6  6.18662001000100  0.70879781008101 -0.33854779077908
 6 -1.01390552205221  2.03544266796680 -0.24142231733173
 6  4.89443104590459  0.03856297239724 -0.24743337453745
 6 -0.03963748474847  1.12907621752175 -0.08193729652965
 6  3.81388079577958  0.92408275867587 -0.16705417441744
 6  1.40203214401440  1.32425415311531 -0.12709509040904
 6  2.40650855135513  0.40871017071707  0.06060941884188
 6  2.22564242594259 -1.00753493379338  0.47631622522252
 1 -13.04755655645564 -2.85514849264926 -1.17231245524552
 1 -13.78388361206120 -1.52100608480848 -1.69316577127713
 1 -13.58379618181818 -0.25493842504250  1.94012669536954
 1 -13.78593798739874  0.66088121522152  0.40963862946295
 1 -14.54665196929693 -1.78435714911491  0.38524012831283
 1 -10.11101971887189 -2.52416919971997 -1.91236653205321
 1 -11.45478568746875 -2.30948573997400 -2.99920820702070
 1 -10.10350253375337 -0.93082229082908 -2.84251586408641
 1 -9.20381903670367  1.25123725472547 -0.57443125322532
 1 -10.08329965756576  0.15976724082408  2.36353209600960
 1 -11.45888124902490  0.02493919551955  3.27095544564456
 1 -10.88331902560256 -1.38464534103410  2.36567735743574
 1 -12.01738428092809  2.19921604360436  0.10565378137814
 1 -12.53742998239824  2.07299287478748  1.98696240804080
 1 -10.64103438553855  2.06089668016802  1.19162345584558
 1 -12.07289036153615 -2.66353922752275  1.13569804870487
 1 -8.97432827472747 -1.74661301900190  0.40883998289829
 1 -6.00251969806981 -1.89427275237524 -0.68843688808881
 1 -5.47808022332233 -1.56408164076408  1.14971336753675
 1 -7.10950106070607 -2.71521379437944  0.73559971077108
 1 -7.07888920002000  1.59242757185719 -0.30217989448945
 1 -4.54049069376938 -0.05333671527153 -0.39539331503150
 1  13.42742841994199 -1.05365705310531  2.33530847144714
 1  11.97258243524353 -2.12890227022702  1.92402840254025
 1  13.78119047594759 -2.88996066106611  0.64063098899890
 1  12.73848128662866 -2.41645812431243 -1.82199529422942
 1  11.66804681288129 -2.84785390929093 -0.45317065916592
 1  11.90122973117312  0.03563393009301  3.34237927662766
 1  10.79481645934593  1.47922348544855  2.50946847104710
 1  10.15096271747175 -0.11832014651465  2.42464870607061
 1  13.71609851175118  1.21776040024002  0.44889895469547
 1  12.25942855605560  2.03790322812281  0.71482618831883
 1  13.25203104020402  1.56512099119912  2.03924040564056
 1  12.75665648514851 -0.53099970957096 -3.04421687358736
 1  11.86588365676568  1.06293838473847 -2.46625456035604
 1  13.55621645424542  0.60664671757176 -1.61834732013201
 1 -5.47125934983498  2.89682406920692 -0.33853526432643
 1  10.05444669526953 -0.48213687128713 -2.01317365316532
 1  15.19739258445844 -1.15915572997300  0.64328292759276
 1  8.52273412421242  1.86655898309831 -0.53389066626663
 1 -2.54651973617362  4.49468591829183  0.08065389508951
 1 -2.37679644394439  3.84193141794179 -1.56085919501950
 1 -4.04479086418642  4.75450363216322 -0.92591239273927
 1 -2.62234185428543  0.51376358835884  0.08275532093209
 1  6.70313306320632 -1.93588315041504  0.43593607830783
 1  8.40405562006201 -1.70460518531853 -0.39960073417342
 1  8.28388831043104 -1.49623195159516  1.35512927382738
 1  6.42600774787479  1.70903470887089 -0.69900191989199
 1 -0.80660201720172  3.15664970847085 -0.71400131163116
 1  4.57592357875788 -0.91951844854485  0.19640232133213
 1 -0.31234015721572  0.07907609470947 -0.08530591949195
 1  4.04279344724472  2.15240087628763 -0.49076130113011
 1  1.81381825702570  2.41907769966997 -0.14346704510451
 1  1.01455028982898 -1.04682128632863  1.39080807640764
 1  1.82759408420842 -1.73909021052105 -0.80877864786479
 1  3.48803549994999 -1.52368659765977  1.04012729932993

