%nproc=3
%Mem=2GB
# td=(NStates=1) CAM-B3LYP/6-31G(d,p) 

TD

0 1
 8 -11.76874354195420  0.21214186258626 -1.58487565116512
 8 -12.94849568536854 -2.45105341334133  1.37742342734273
 8  10.69402492239224 -0.94497438533853 -2.20498422472247
 8  14.47966133283328 -1.21175989748975 -0.07003149054905
 6 -11.05051321852185 -0.16166012071207 -0.35987541194119
 6 -11.69325561526153 -1.12646382628263 -1.26204504480448
 6 -11.81148319131913  0.38624530733073  0.87264691969197
 6 -12.94472967666767 -1.84476463436344 -0.93256489048905
 6 -13.32933139113911  0.01331388378838  0.82381706960696
 6 -13.46540297379738 -1.48398993679368  0.41680044734473
 6 -10.88888447714772 -1.86507192469247 -2.24077639593959
 6 -9.59765920972097  0.13802093589359 -0.45888284638464
 6 -11.26876285368537 -0.10296589258926  2.30453552065207
 6 -11.80114049434943  1.91114621772177  0.89070716241624
 6 -8.71666508820882 -0.74146218741874  0.29622836183618
 6 -7.25173316291629 -0.55959780588059  0.30036773707371
 6 -6.46102011691169 -1.74755344414441  0.73112534883488
 6 -6.68237389908991  0.65563639353935  0.00431187598760
 6 -5.28023796539654  0.81147318401840  0.05036070587059
 6  11.87811705860586  0.10109013851385  1.36613614171417
 6  11.80338762886289 -0.52912906810681 -1.23219709940994
 6  12.61736896499650 -1.36853108280828  1.42138687208721
 6  13.34396908360836 -1.93460799419942  0.20541450585059
 6  12.32228716341634 -1.80345485448545 -0.97112107460746
 6  11.14341122902290  0.08530327822782  0.04324150445045
 6  10.99138054295430  0.15844248624862  2.54985732593259
 6  12.95130824752475  1.15404862566257  1.33532658365837
 6  12.64342064826483  0.47312618591859 -2.02435638343834
 6 -4.73271976767677  2.10159266526653 -0.37779262816282
 6  9.94875606310631  0.52289309210921 -0.02246342304230
 6 -3.37268242664266  2.45122387608761 -0.49580984168417
 6  8.71898168416842  1.02943927772777 -0.12976731673167
 6 -3.07350903600360  3.88890034953495 -0.79461919401940
 6 -2.38644555965597  1.60029187788779 -0.24493702840284
 6  7.55337487998800  0.17765835383538  0.06701751765177
 6  7.80838557505751 -1.17343429552955  0.20329025192519
 6  6.29813116111611  0.76215314561456  0.01729779377938
 6 -1.00831496299630  1.87685680938094 -0.30370854595460
 6  5.00496209900990  0.11848096419642  0.08386975577558
 6 -0.00357387838784  0.85581889178918 -0.36397550035004
 6  3.78570797849785  0.89541989238924 -0.02897036603660
 6  1.40012195299530  1.18278000570057 -0.22221460236024
 6  2.53481138163816  0.27066636633663  0.03984734263426
 6  2.29045890759076 -1.10772495279528  0.26889548314831
 1 -12.75394719551955 -2.97270024782478 -0.80513573757376
 1 -13.57517274097410 -1.43614759895990 -1.83261971667167
 1 -13.78259606180618  0.20938800760076  1.83966664936494
 1 -13.82986237983798  0.44232936003600  0.03487115271527
 1 -14.53642094619462 -1.79886860026003  0.58642024632463
 1 -10.28058667556756 -2.73550033283328 -1.75968126352635
 1 -11.37561777067707 -2.23289808120812 -3.09017730393039
 1 -9.97597978147815 -1.14029323792379 -2.60552216471647
 1 -9.31564021882188  0.84525665666567 -1.19748355845584
 1 -10.33970529812981  0.38427969206921  2.39661540434043
 1 -12.06853221412141  0.32582928452845  2.96758510861086
 1 -11.20119081278128 -1.16520339683968  2.66523731343134
 1 -12.14513705620562  2.36449257125713 -0.21167795179518
 1 -12.39772601200120  2.56685226072607  1.75267897969797
 1 -10.72181246334634  2.30638122862286  0.88503279677968
 1 -11.75583865636564 -2.37939081268127  1.39072355125513
 1 -9.03773461536154 -1.59319767746775  0.88607770667067
 1 -5.96884633073307 -2.34358768386839 -0.20473851825182
 1 -5.67451986728673 -1.55898113071307  1.40824922112211
 1 -7.06565667626763 -2.50210248324832  1.21851800260026
 1 -7.35767707880788  1.49755808490849 -0.09450912741274
 1 -4.49767641234123  0.19277789618962  0.21421764606461
 1  13.36160183728373 -1.28906059345935  2.19322426302630
 1  11.89087426442644 -2.25529490949095  1.70524652435244
 1  13.47209956685668 -2.76049771477148  0.19525645154515
 1  12.66813425192519 -2.07567404590459 -2.11157425212521
 1  11.57051705990599 -2.49570869476948 -0.69892523462346
 1  11.56682629082908  0.35871623832383  3.42117715641564
 1  10.20926790449045  1.11295685878588  2.64398192239224
 1  10.35096271747175 -0.63614192869287  2.66763300450045
 1  13.86896379827983  0.95747437163716  0.71141520632063
 1  12.53840645384538  2.13600303810381  0.82418712441244
 1  13.40712654975497  1.21336581568157  2.32455893749375
 1  13.00271109060906  0.17156054645465 -2.93240569246925
 1  12.06451351975197  1.50475256615662 -2.20144807970797
 1  13.42408324092409  0.75027108000800 -1.54599008440844
 1 -5.64870709460946  2.68649303610361 -0.76637804860486
 1  10.39648089868987  0.08314965736574 -2.67583991979198
 1  14.96022886808681 -1.29398921332133  0.91962056135614
 1  8.54643649444944  2.00435276247625 -0.28530580778078
 1 -2.46880196439644  4.37493394309431  0.03470930063006
 1 -2.53468223252325  4.01606883168317 -1.78342145124512
 1 -3.98776516161616  4.55956413821382 -0.85098489999000
 1 -2.58868848894890  0.53650586258626 -0.10296325092509
 1  7.03841659155916 -2.03160272237224  0.24027651235124
 1  8.49297451195119 -1.49107383218322 -0.54902567666767
 1  8.51904182578258 -1.41075340374037  1.27548130903090
 1  6.26525167226723  1.94885869126913 -0.12582460216022
 1 -0.89047040404040  2.91906595009501 -0.58690860236024
 1  4.92299828622862 -0.85050154685469  0.11219390049005
 1 -0.37471639483948 -0.19872168506851 -0.20575796469647
 1  4.14718388628863  1.92661829802980 -0.20101232623262
 1  1.64528140334033  2.23904969686969 -0.03056575497550
 1  1.26669550435044 -1.40195679987999  0.30272926852685
 1  3.07830915571557 -1.53588989048905 -0.44465223522352
 1  2.65591228762876 -1.35128935793579  1.30407369396940

