%nproc=3
%Mem=2GB
# td=(NStates=1) CAM-B3LYP/6-31G(d,p) 

TD

0 1
 8 -11.63646031363136  0.19302995139514 -1.48242540614061
 8 -12.84856569236924 -2.55338364636464  1.24448013301330
 8  10.63719923982398 -1.03636352425243 -2.20293401970197
 8  14.47789115581558 -1.09605832733273 -0.23413790119012
 6 -11.03091125832583 -0.23364731943194 -0.33157258165817
 6 -11.68006429612961 -1.16023720362036 -1.19672851315132
 6 -11.85434747774777  0.37187387018702  0.77076673167317
 6 -13.05169037273727 -1.80104026192619 -1.05503713771377
 6 -13.30355881388139 -0.12876032363236  0.68467315521552
 6 -13.46927336083608 -1.55771730953095  0.38045681298130
 6 -10.66802239093909 -2.02935835333533 -2.12373469176918
 6 -9.60677012081208  0.18043517731773 -0.33738069616962
 6 -11.25950192759276  0.13312771677168  2.19732479957996
 6 -11.82814319461946  1.95197030013001  0.75536362806281
 6 -8.68561198289829 -0.63080112131213  0.23666240524052
 6 -7.28043603320332 -0.53392523862386  0.20057775807581
 6 -6.36833084798480 -1.68684737353735  0.73527576387639
 6 -6.57364302600260  0.57921875177518 -0.19223777897790
 6 -5.21227116871687  0.88513054975498 -0.05822015221522
 6  11.99333858075808  0.02683271277128  1.31796132423242
 6  11.62019931003100 -0.56239239443944 -1.29787366706671
 6  12.70430765886589 -1.28114234393439  1.40553528692869
 6  13.34114880158016 -1.87132166556656  0.13595756015602
 6  12.43566850155015 -1.80816532553255 -1.04367833033303
 6  11.04726161406141 -0.00959621172117 -0.03512633233323
 6  11.08486989188919  0.11969861186119  2.58340068026803
 6  12.91063418011801  1.21802502330233  1.24396744774477
 6  12.50037634383438  0.47665653895390 -2.03453740154015
 6 -4.68852534823482  2.15642814881488 -0.41004585348535
 6  9.88524971247125  0.49390019281928  0.04023284658466
 6 -3.33582874127413  2.61164991869187 -0.44576483718372
 6  8.56050583658366  0.86027236103610 -0.20354469446945
 6 -3.02836452155216  4.04064552405241 -0.73137286938694
 6 -2.28323523862386  1.63615546424642 -0.20976351105111
 6  7.43224276677668  0.11703229122912  0.02944376027603
 6  7.51942667916792 -1.41217816991699  0.38159808270827
 6  6.21366271427143  0.83210014031403 -0.10120405640564
 6 -0.89578370987099  1.88856798049805 -0.06617479257926
 6  4.91605320812081  0.25253436953695  0.05843721252125
 6  0.02033851285128  0.86839014891489  0.06085698289829
 6  3.71974138183818  0.87524787518752 -0.04537200620062
 6  1.36763870467047  1.26282801050105 -0.01921430233023
 6  2.42061996249625  0.29300860056006  0.16110946884688
 6  2.30553041474147 -1.13343752405241  0.55865445904590
 1 -12.91981378217822 -2.97151012881288 -1.13053827782778
 1 -13.74304952865286 -1.40122410661066 -1.77631408610861
 1 -13.82591039323932 -0.15403833503350  1.82319500220022
 1 -13.91896128972897  0.44127925502550 -0.07271960636064
 1 -14.73026033013301 -1.73577229062906  0.52036364066407
 1 -10.45279389628963 -2.94217099989999 -1.48789408480848
 1 -11.31674188308831 -2.23949874127413 -3.03383166936694
 1 -9.82390457395740 -1.40285949454945 -2.44377599009901
 1 -9.27350600540054  0.90599273027303 -0.93519732983298
 1 -10.18028935653565  0.59174043814381  2.01081682448245
 1 -11.81602696359636  0.85254195579558  2.83563191329133
 1 -11.18444913861386 -0.88700557705771  2.61260204990499
 1 -12.11402394489449  2.22407852985299 -0.29825660966097
 1 -12.48998523792379  2.36287186268627  1.42621633343334
 1 -10.69138942104211  1.98039863036304  1.04295858935894
 1 -11.84659773227323 -2.70143301690169  0.93715819471947
 1 -8.89022986488649 -1.56557491519152  0.73533263216322
 1 -5.69157860396040 -2.26566989208921 -0.04974301870187
 1 -5.60285270057006 -1.44176940954095  1.86683507970797
 1 -7.10904101470147 -2.69791206420642  1.08468461926193
 1 -7.05664697579758  1.40579890899090 -0.67062673917392
 1 -4.50540718541854  0.04957357575758  0.41484770907091
 1  13.61908758585859 -1.21398308570857  2.18599353995400
 1  12.13412858985899 -1.81629100910091  1.92709870957096
 1  13.66765912281228 -2.83877554255425  0.35774270017002
 1  12.93142058055805 -2.07825430393039 -2.04599769446945
 1  11.62785279347935 -2.60007913181318 -1.00724606670667
 1  11.74689429762976  0.21713207990799  3.42748778747875
 1  10.49273625132513  1.07506306940694  2.52307983218322
 1  10.43042066326633 -0.75623393789379  2.48804504570457
 1  13.62809971187119  1.06381500570057  0.35164922972297
 1  12.24353696689669  2.16442588038804  1.31602630833083
 1  13.70404624172417  1.19681416051605  2.04616109770977
 1  12.78004882438244  0.31163455385539 -3.12982543444344
 1  11.92081915031503  1.36391848274828 -2.06163409830983
 1  13.53234406700670  0.67130318321832 -1.69764524992499
 1 -5.30385260916092  2.92511689848985 -0.57334874567457
 1  10.00577182778278 -0.20688934653465 -2.33157549334934
 1  15.35227807300730 -1.31333114751475  0.39535813511351
 1  8.34529638043804  1.86969929712971 -0.44250152735274
 1 -2.38057314151415  4.63315976567657 -0.05414958525853
 1 -2.47413617791779  4.09901712651265 -1.65766887598760
 1 -4.02193857895790  4.56908509030903 -1.09239904140414
 1 -2.50097971807181  0.54130634263426 -0.31787474207421
 1  6.68271102100210 -2.07364692679268  0.11495398009801
 1  8.34093930843084 -1.84709943474347 -0.36820759485949
 1  7.88941886348635 -1.37434976337634  1.36322008290829
 1  6.41374652175218  1.82905671107111 -0.43737575727573
 1 -0.51760311731173  2.84648869236924 -0.13378328982898
 1  4.83416940334033 -0.75590208690869  0.46781946304630
 1 -0.22405132833283 -0.21671348424842  0.26446905800580
 1  3.82335150305031  2.00567620382038 -0.47481970697070
 1  1.70621749694969  2.28397418931893 -0.24147684608461
 1  1.33632246704670 -1.31404800900090  0.72596159175918
 1  2.68070939573957 -1.89812611411141 -0.25930370037004
 1  2.76328302470247 -1.23373760276028  1.54017730433043

