%nproc=3
%Mem=2GB
# td=(NStates=1) CAM-B3LYP/6-31G(d,p) 

TD

0 1
<<<<<<< HEAD
 8 -11.75929259685969  0.33976462486249 -1.43826098969897
 8 -13.06711754755475 -2.51439974797480  1.28183386838684
 8  10.68492401230123 -1.09044893279328 -2.02976670297030
 8  14.54048741544154 -1.18628735023502  0.00388590119012
 6 -11.08327649484949 -0.11915587028703 -0.25494491889189
 6 -11.80288657835784 -1.09162034193419 -1.18102694299430
 6 -11.79949199219922  0.29165584838484  1.11993164816482
 6 -13.13204840854085 -1.61850200810081 -0.97473910791079
 6 -13.31315977397740 -0.06706415401540  0.95840052795280
 6 -13.55655208870887 -1.49868140594059  0.59832860016002
 6 -10.97923351205121 -1.76530194769477 -2.28526084438444
 6 -9.60722016581658  0.05545267906791 -0.38723568166817
 6 -11.09703568096810 -0.22456805280528  2.20637570467047
 6 -11.61938231853185  1.93485858895890  1.09651774347435
 6 -8.64279770147015 -0.74644268546855  0.07756649564956
 6 -7.24257224682468 -0.67154900100010  0.14469216951695
 6 -6.42181619651965 -1.89849853865387  0.45757799409941
 6 -6.64344000570057  0.53381421132113 -0.10089864506451
 6 -5.18342828442844  0.73446548324832 -0.20075440564056
 6  11.90855010191019  0.08941897139714  1.35499502760276
 6  11.69322661276128 -0.63838999419942 -1.23847772747275
 6  12.59100632873287 -1.22663689338934  1.59958469186919
 6  13.42812749944995 -1.88475300870087  0.38472243664366
 6  12.41765670037004 -1.96066057505751 -0.80449441194119
 6  11.13265015291529  0.12299704760476 -0.00694351405141
 6  11.12038344324432  0.30499714171417  2.57072941314131
 6  12.92718583528353  1.27477069786979  1.30579363036304
 6  12.68131443764376  0.20261913521352 -2.12189613741374
 6 -4.72417891359136  2.05829833583358 -0.46173102200220
 6  9.92980416791679  0.54882568536854  0.02469129242924
 6 -3.40295545394539  2.43688244194419 -0.50545080578058
 6  8.68074786078608  1.09898623242324 -0.16034037403740
 6 -3.07562924802480  3.93630509000900 -0.54292402450245
 6 -2.31471838693869  1.53715556425643 -0.44025656035604
 6  7.41201074357436  0.27572816081608  0.09967078297830
 6  7.59779451595159 -1.21982893499350  0.14130405330533
 6  6.23579492749275  0.85939286958696 -0.21579551555156
 6 -0.96327045854585  1.84694381808181 -0.37472564766477
 6  5.00548215101510  0.25966508260826 -0.12076070727073
 6  0.02046852585259  0.96009931983198 -0.25553465626563
 6  3.77676708440844  0.97072742314231 -0.15596306530653
 6  1.42166410721072  1.26443817151715 -0.11732411331133
 6  2.53703160366037  0.35458475817582 -0.03325996809681
 6  2.37047690939094 -0.98797297759776  0.22512110571057
 1 -13.17554935573557 -2.74144712251225 -1.06970219421942
 1 -13.83858908260826 -0.96909089328933 -1.84025047974797
 1 -13.90075787798780  0.10298736753675  1.94477716041604
 1 -13.67726712031203  0.52203733083308  0.17261492709271
 1 -14.65081238533853 -1.56697541094109  0.79568117241724
 1 -10.41298991589159 -2.65899268206821 -1.79539483488349
 1 -11.56258646754675 -1.93689848124812 -3.17226551275128
 1 -10.12518470197020 -1.19235844444444 -2.58648026052605
 1 -9.48891754655466  1.02117424842484 -0.73775758585859
 1 -9.92043337093709 -0.08740747664766  2.19350509330933
 1 -11.50414577547755  0.23131983358336  3.26818516861686
 1 -11.11832252595259 -1.35093196969697  2.23401419111911
 1 -11.73575611811181  2.23293941594159  0.05140835683568
 1 -12.47094333373337  2.24774034953495  1.93814752655266
 1 -10.49454973707371  2.00716130663066  1.40667496099610
 1 -12.00860393289329 -2.72355522912291  1.24493897279728
 1 -8.99867070897090 -1.76336469416942  0.58366746564656
 1 -5.43001244734473 -2.20888421352135 -0.30756880128013
 1 -5.91398381368137 -1.78039327192719  1.61068946514651
 1 -7.17056716731673 -2.75368764176418  0.46186233703370
 1 -7.14864617571757  1.47482581168117 -0.45107478397840
 1 -4.49970661536154 -0.11459284088409 -0.18953272897290
 1  13.41349702680268 -1.19976166356636  2.28171311191119
 1  11.78620379737974 -1.99469884988499  1.86014201390139
 1  13.57034939183918 -2.92329399439944  0.63458038393839
 1  13.25109254775477 -2.41436791529153 -1.46739983468347
 1  11.64071407960796 -2.78451757565757 -0.81163650575058
 1  11.72687229542954 -0.00736036933693  3.52660769946995
 1  10.74177115481548  1.33346890999100  2.70761828602860
 1  10.32359998119812 -0.37321563606361  2.63298954015402
 1  13.96856375827583  1.03092171637164  0.69269333413341
 1  12.42290490369037  2.11992142994300  0.85427013271327
 1  13.30320615771577  1.40801528062806  2.46641312291229
 1  12.92060287978798 -0.47774438403840 -3.09098155005501
 1  12.17153422182218  1.17734982588259 -2.26691462636264
 1  13.55365619821982  0.44528058095810 -1.66753223862386
 1 -5.65223744764476  2.78860324712471 -0.50205161596160
 1  10.12450370097010 -0.28626728432843 -2.41616395219522
 1  15.02998584378438 -0.94006382078208  0.82763136243624
 1  8.49985183598360  2.09859218641864 -0.37794507170717
 1 -2.67488257245725  4.31122757245725  0.31298712841284
 1 -2.24489325362536  4.02871009580958 -1.36414952405240
 1 -4.17072345744575  4.31146932873287 -0.83288308980898
 1 -2.54067368746875  0.46713892589259 -0.29372232683268
 1  6.65400815071507 -1.75455501760176 -0.27813532883288
 1  8.24103931843184 -1.54968969376938 -0.50709148324832
 1  7.94567448904891 -1.56332866126613  1.24441820272027
 1  6.41086623372337  1.91140494589459 -0.36503852355236
 1 -0.79935129212921  2.86993103660366 -0.42736264776478
 1  4.85268125452545 -0.83235973267327 -0.12077939683968
 1 -0.04677360056006 -0.04491630453045 -0.03758114701470
 1  3.79542871077108  1.88331396759676 -0.49963218821882
 1  1.78474534973497  2.27401319321932 -0.21021371977198
 1  1.33954278907891 -1.38699530373037  0.26707570317032
 1  2.80663198799880 -1.84141044254425 -0.50088785878588
 1  2.93118981538154 -1.40511474047405  1.16817010361036
=======
>>>>>>> 6a1b998aacd80a23911c140f266e48a14f2d523d

