%nproc=3
%Mem=2GB
# td=(NStates=1) CAM-B3LYP/6-31G(d,p) 

TD

0 1
 8 -11.74077074467447 -0.01535088668867 -1.66646380998100
 8 -13.09324015981598 -2.59805811381138  1.50386607160716
 8  10.49230475037504 -1.12961284918492 -2.08598232453245
 8  14.45196856355636 -1.11821054255426 -0.31063555095510
 6 -10.94996316351635 -0.21596555125513 -0.42044146854686
 6 -11.44052034173417 -1.28444962486249 -1.26297513781378
 6 -11.76136817981798  0.32039872267227  0.82620227522752
 6 -12.71576678037804 -2.09820997889789 -0.81960359435944
 6 -13.24309276727673 -0.14719216681668  0.72239692759276
 6 -13.41250768426843 -1.69492102990299  0.45422418971897
 6 -10.51946753545355 -2.17708312581258 -2.05423774207421
 6 -9.51148059185919  0.16786392019202 -0.41662862096210
 6 -11.08992496989699 -0.02140773677368  2.08409347644765
 6 -11.66212659295929  1.89344444754475  0.80077816951695
 6 -8.52794621632163 -0.66963500470047  0.14739347834783
 6 -7.15199318891889 -0.45111695779578  0.17534523482348
 6 -6.27612162706271 -1.63694238303830  0.26919915621562
 6 -6.63609927162716  0.80996182608261 -0.01221977717772
 6 -5.24674461606161  1.08911094779478 -0.25264959515952
 6  11.97098634553455 -0.02275224572457  1.31703123122312
 6  11.57474476457646 -0.68189434463446 -1.31456533623362
 6  12.66398362646265 -1.40776500620062  1.38956368976898
 6  13.33064775147515 -1.90617515091509  0.10202416681668
 6  12.40264519921992 -1.95098960796080 -1.07933189568957
 6  11.09065595349535 -0.07557280938094  0.12751993229323
 6  11.06637804270427  0.10623726572657  2.58940128032803
 6  12.96056917361736  1.23207642844284  1.32748579957996
 6  12.29992629882988  0.39719859315932 -2.18957290509051
 6 -4.76667316301630  2.39161166716672 -0.33547839673967
 6  9.82238342584258  0.44801560436044  0.02884170747075
 6 -3.38596375477548  2.80516927062706 -0.41535179587959
 6  8.58106789278928  0.76560289408941 -0.21049538953895
 6 -3.06311799689969  4.27092855235524 -0.52617234933493
 6 -2.33979089418942  1.84406625532553 -0.14929746444644
 6  7.34881442394239  0.10450103810381  0.13072388828883
 6  7.57769250575057 -1.28608556065607  0.48065798869887
 6  6.10409175717572  0.79576650695069 -0.01555549154915
 6 -1.01463559505951  2.11968109180918 -0.19292746784678
 6  4.92365396819682  0.20809992609261 -0.02415104630463
 6  0.03484996399640  1.14132744264426  0.02612350955096
 6  3.74029343704370  0.86891724212421  0.01134366536654
 6  1.37133907470747  1.32986471417142 -0.14314669556956
 6  2.38017591809181  0.44119341904190  0.11471482938294
 6  2.14516437813781 -1.01447562786279  0.46274486808681
 1 -12.45226702750275 -3.10812379017902 -0.62036726072607
 1 -13.44083930763076 -2.21326531073107 -1.76914336903690
 1 -13.94852265446545  0.14394146294629  1.44930761346135
 1 -13.63548294189419  0.48985411251125 -0.24095643004300
 1 -14.53179048314832 -1.94473318671867  0.24684628892889
 1 -10.19247786468647 -3.10945772857286 -1.49504479987999
 1 -11.14283449234923 -2.53573836523652 -2.88022630883088
 1 -9.57090927442744 -1.63414262286229 -2.36365797829783
 1 -9.35507416221622  1.17289942094209 -1.02772658275828
 1 -10.15245657325733  0.71929319341934  2.19821556435643
 1 -11.66765212611261  0.05127182878288  2.83972232233223
 1 -10.91642233593359 -1.19010588708871  2.13619440914091
 1 -12.09263180568057  2.60524664666467 -0.03242002600260
 1 -11.96668290769077  2.34567014251425  1.67460117191719
 1 -10.67943822592259  2.22369295979598  0.60078437193719
 1 -11.87785085758576 -2.34252712631263  1.86578105700570
 1 -8.95796663856386 -1.58276663436344  0.52969206810681
 1 -5.75208465456546 -2.00709403450345 -0.48031607600760
 1 -5.48162057735774 -1.56075130773077  1.02942133833383
 1 -6.70780089068907 -2.54744701770177  0.56618276907691
 1 -7.42680399149915  1.63834216331633 -0.43863353985399
 1 -4.60491713641364  0.13653227162716 -0.00008378407841
 1  13.44217989508951 -1.53050473787379  2.25997093769377
 1  12.03371854885489 -2.17447682768277  1.88475447514751
 1  13.78181053795380 -2.91237290229023  0.44932185808581
 1  12.82170960946095 -2.29390586908691 -1.93128622332233
 1  11.74152416061606 -2.57961708560856 -0.87227256935694
 1  11.60527013521352  0.21999236593659  3.45370040874087
 1  10.28770574827483  0.90261582468247  2.39057658185819
 1  10.27917553875388 -0.80484879937994  2.54614085528553
 1  13.78163506540654  0.89717834203420  0.56559062386239
 1  12.41024363756376  2.18260769856986  1.03495820152015
 1  13.51826766386639  1.20370484958496  2.21093757535754
 1  12.34774559405941 -0.18627523712371 -3.08310076197620
 1  11.55886295469547  1.14960705160516 -2.16070400530053
 1  13.50427125972597  0.43058911181118 -1.83140862626263
 1 -5.49438166206621  3.05899028582858 -0.44737614841484
 1  9.77787903850385 -0.43225188278828 -2.01443377917792
 1  15.20152299749975 -1.13550336473647  0.39129772907291
 1  8.63236508730873  1.81173350055006 -0.61312859005901
 1 -2.68408349254925  4.75235168486849  0.32191802150215
 1 -2.49122788708871  4.27160438523852 -1.38322143124312
 1 -3.90348673377338  4.79925810761076 -0.83590339183918
 1 -2.71250087018702  0.74642685468547  0.09571661706171
 1  6.56908965886589 -1.86871643374337  0.54963744844484
 1  8.39910512501250 -1.81768649344934 -0.03480425452545
 1  7.91000092169217 -1.39161148954895  1.51059482038204
 1  6.05938108520852  1.85957976337634 -0.25440746044604
 1 -0.57452880988099  3.17776181968197 -0.41477138863886
 1  4.94449043544354 -0.73823031973197  0.44482716381638
 1 -0.34745366856686  0.13933212031203  0.24153676477648
 1  3.87581674957496  2.02929856605660 -0.19908213321332
 1  1.53443031823182  2.50254604650465 -0.35523822222222
 1  1.20390922572257 -1.42849945414541  0.45910490609061
 1  2.79062038683868 -1.73083938543854 -0.11926969696970
 1  2.68778547494749 -1.19584381338134  1.59555284188419

