%nproc=3
%Mem=2GB
# td=(NStates=1) CAM-B3LYP/6-31G(d,p) 

TD

0 1
 8 -11.73840050765076  0.23476412481248 -1.62477964156416
 8 -13.24471530733073 -2.38254656265627  1.45465115011501
 8  10.71687720762076 -0.89259914781478 -2.16898062436244
 8  14.45314868156816 -0.89605832733273 -0.11819630703070
 6 -11.05761392859286 -0.11881583628363 -0.33657308170817
 6 -11.69013530323032 -1.08506968686869 -1.21039988028803
 6 -11.82451449444944  0.39231591439144  0.89565922092209
 6 -13.12699790349035 -1.70601075897590 -0.87109874387439
 6 -13.26695515351535 -0.01412886048605  0.90362505040504
 6 -13.65013144664466 -1.44071560936094  0.48100686798680
 6 -10.88947453615362 -1.98814423192319 -2.07504982328233
 6 -9.66685612941294  0.19681681548155 -0.38807576567657
 6 -11.06258223562356 -0.13589918591859  2.19510457755776
 6 -11.81513189348935  1.88760386348635  0.88714680638064
 6 -8.70263368506851 -0.78428646984698  0.11990072907291
 6 -7.29767775737574 -0.59156100220022  0.17038473877388
 6 -6.57579159405940 -1.76287497629763  0.59466170247025
 6 -6.61131679337934  0.60136096599660 -0.05284383958396
 6 -5.25442538413841  0.82573461016102 -0.01119544974497
 6  11.86466571347135  0.09757978747875  1.41591111921192
 6  11.73352064216422 -0.50615677087709 -1.17432131183118
 6  12.61940916901690 -1.32693692339234  1.41130586398640
 6  13.49554424112411 -1.73983851725173  0.27110107450745
 6  12.46694162886289 -1.81092560156016 -0.92796675917592
 6  11.07248413631363  0.09423417131713  0.09442662296230
 6  10.94803620852085  0.05018166016602  2.63998633883388
 6  12.84639775647565  1.26489971077108  1.38051110211021
 6  12.56955326152615  0.41941081438144 -1.86924087188719
 6 -4.65024151985198  1.97444995099510 -0.36933178207821
 6  9.88332952045205  0.50736153895390  0.05634445774577
 6 -3.25596075447545  2.46460521422142 -0.44749501020102
 6  8.64354414041404  0.98982531633163 -0.18563290329033
 6 -2.88883056815682  3.88505996549655 -0.76589632173217
 6 -2.21630854595460  1.65605745444544 -0.24388692339234
 6  7.43118266076608  0.11070165816582 -0.07373655775578
 6  7.76635137163716 -1.27241419351935  0.12644256715672
 6  6.22103345134513  0.61175810611061 -0.20189412541254
 6 -0.88075220672067  1.86393551725172 -0.29002717781778
 6  4.97114871767177  0.03289240534053 -0.13784241544154
 6  0.20336681568157  0.97858116801680 -0.14216331913191
 6  3.87678708640864  0.81348169856986 -0.19076654565457
 6  1.52923486428643  1.24423615131513 -0.23756613751375
 6  2.52700060056006  0.30939023872387  0.00844420232023
 6  2.30703056475648 -1.25087926822682  0.22965155875588
 1 -13.03474527532753 -2.78025100290029 -1.08553377737774
 1 -13.66705192889289 -1.22098608280828 -1.56389284398440
 1 -13.86212401460146  0.02686975577558  1.77149983268327
 1 -13.87718711231123  0.66842196929693  0.18044571017102
 1 -14.84650195429543 -1.72486119951995  0.35493709800980
 1 -10.32744136103610 -2.85513229602960 -1.73513880928093
 1 -11.47148735763576 -2.62170696209621 -2.85060334653465
 1 -10.22406458995900 -1.31230043864386 -2.54679629212921
 1 -9.30781943674367  0.92016414741474 -1.10318412851285
 1 -10.01241256885689  0.06281754585459  2.16300204300430
 1 -11.43177853875387  0.30403710531053  2.98669701980198
 1 -10.93301399509951 -1.07376425292529  2.41977276697670
 1 -12.30094263676368  2.29841596359636 -0.08878566256626
 1 -12.27579381878188  2.21636721222122  1.75402911471147
 1 -10.80975125722572  2.35733632413241  0.99339363286329
 1 -12.34300737323732 -2.70630350395040  1.06807128602860
 1 -9.27827866976698 -1.60740909860986  0.71018011691169
 1 -5.85606505260526 -2.36209953505351 -0.16974501890189
 1 -5.90895331063106 -1.22067730033003  1.43291168736874
 1 -7.19956006660666 -2.42483475647565  1.08592474327433
 1 -7.26317762886289  1.54158248734874 -0.41510118661866
 1 -4.62732937763776 -0.08717009860986  0.23455968026803
 1  13.48200387748775 -1.45945763316332  2.18182312291229
 1  11.91669684668467 -2.14654403440344  1.56597259695970
 1  13.88474083098310 -2.74852651765176  0.33108003390339
 1  13.10907834633463 -2.12055853435344 -1.79848294299430
 1  11.72841284948495 -2.56997612151215 -0.91770711281128
 1  11.71968157635764  0.06965733243324  3.47157219591959
 1  10.37896487418742  0.90200576367637  2.77765528972897
 1  10.38629625082508 -0.95087340184018  2.90730697189719
 1  13.25542244414441  1.30858948314831  0.46468053285329
 1  12.21989460266027  2.13511294909491  1.51685639133913
 1  13.42648848594859  0.97561204030403  2.17683416501650
 1  12.70209102860286 -0.14660126972697 -2.65171762366237
 1  12.08268533693369  1.26577866876688 -2.43894182908291
 1  13.46018685128513  0.63518957185719 -1.43589907530753
 1 -5.58589081298130  2.69676406320632 -0.70556196699670
 1  9.90889213981398 -0.26577523512351 -2.19575191099110
 1  15.02383522872287 -0.82908272267227  0.68668726802680
 1  8.70499235003500  1.95884821202120 -0.60293757095710
 1 -2.12796788098810  4.07873432313231  0.05981181088109
 1 -2.37184594889489  3.88099532433243 -1.69057216631663
 1 -3.65562194729473  4.86272445424542 -0.57056685818582
 1 -2.56411603170317  0.52551476347635 -0.22516547114711
 1  6.80369311921192 -1.82141170327033 -0.03046056135614
 1  8.65277049154916 -1.74867959275928 -0.28894966906691
 1  7.75996591819182 -1.38842117051705  1.19860362126213
 1  6.06757190429043  1.65137894329433 -0.16965898559856
 1 -0.72247360436044  3.10921496499650 -0.33326323782378
 1  4.85518150455045 -0.97887438413841  0.25423810491049
 1 -0.10980990419042 -0.08186999989999 -0.04298168706871
 1  3.93269243714371  1.72839847604760 -0.47736996199620
 1  1.87641451665167  2.25689148104810 -0.38924162256226
 1  1.38600743554355 -1.69243584778478  0.48742773837384
 1  2.91239256405641 -1.69259556105611 -0.75885365536554
 1  3.07157385378538 -1.44426865586559  1.01779506610661

