%nproc=3
%Mem=2GB
# td=(NStates=1) CAM-B3LYP/6-31G(d,p) 

TD

0 1
 8 -11.75539220682068  0.30511115951595 -1.40651781538154
 8 -13.03752458825883 -2.49655796379638  1.38417410241024
 8  10.58937445734573 -1.17929781768177 -1.96415014131413
 8  14.48538190489049 -0.97939666116612 -0.05266975437544
 6 -11.05526369356936 -0.13333728842884 -0.28121754615462
 6 -11.73841013071307 -1.16427760766077 -1.17516635693569
 6 -11.73796583958396  0.38539522232223  0.96645630063006
 6 -13.00696590029003 -1.81604176207621 -0.94472610661066
 6 -13.25954441244125 -0.07148459605961  0.98276296419642
 6 -13.54193062656266 -1.47895943374337  0.51935070237024
 6 -10.82871846054605 -1.91687710521052 -2.17229954825483
 6 -9.55623506730673  0.03007014081408 -0.41342830093009
 6 -11.14133011041104 -0.18786438243824  2.30276534363436
 6 -11.62508288858886  1.84285938903890  1.16099419111911
 6 -8.67782120382038 -0.79527756895690  0.07720645964596
 6 -7.20662865246525 -0.53918576467647  0.00022772307231
 6 -6.35103911881188 -1.82027071587159  0.25949818611861
 6 -6.61446710841084  0.73261409130913 -0.08408696389639
 6 -5.24022396399640  0.99050108680868 -0.17420175037504
 6  11.97307655455546  0.02474250375038  1.29718924702470
 6  11.67943523362336 -0.71088724392439 -1.17768164786479
 6  12.76822405050505 -1.21056528622862  1.53205793919392
 6  13.35906059275928 -1.85064959835984  0.32884684908491
 6  12.50372530723072 -1.90505501450145 -0.82021598409841
 6  11.10502739063906 -0.02401765386539  0.02362954325433
 6  11.04848625352535  0.23922056405641  2.64970731093109
 6  12.92988610531053  1.26352957375738  1.34210726172617
 6  12.47579388558856  0.47600647394739 -2.00024397219722
 6 -4.75174166986699  2.27905041104110 -0.26097094599460
 6  9.84302549004900  0.39002980578058  0.03752257555756
 6 -3.41748690709071  2.55979473317332 -0.43736399709971
 6  8.68396818281828  0.98315464926493 -0.14532887288729
 6 -3.07271895699570  4.06575803530353 -0.59014874697470
 6 -2.42381929702970  1.65124697339734 -0.44804733943394
 6  7.37199674217422  0.19628021602160 -0.01645082918292
 6  7.62195693219322 -1.28995594769477  0.36931685458546
 6  6.30045139313931  0.81867879817982 -0.16190012601260
 6 -1.01347547904790  1.89220834453445 -0.40581875697570
 6  5.01985358815882  0.15648476457646 -0.16113474467447
 6  0.02527900690069  0.91354466436644 -0.26077518031803
 6  3.80672007970797  0.75449579998000 -0.30983845284528
 6  1.41479342014201  1.18343007070707 -0.34801718261826
 6  2.51046894739474  0.30023932363236 -0.08966560866087
 6  2.29669953165317 -1.18433261356136  0.19377797139714
 1 -12.99409120992099 -2.94999797759776 -1.26171139513951
 1 -13.76910213391339 -1.46220020422042 -1.46563301800180
 1 -13.73071087328733  0.05189225802580  1.92111479417942
 1 -13.77024641824182  0.77141226832683  0.38230589618962
 1 -14.49042634673467 -1.63523223662366  0.60308191249125
 1 -10.66428504540454 -2.85050183298330 -1.78403369876988
 1 -11.65231544044404 -2.19388417981798 -3.01388967516752
 1 -9.90522270577058 -1.52591179977998 -2.53315492799280
 1 -9.34923357815782  0.88766089708971 -1.10399420952095
 1 -10.12799412701270 -0.07059579547955  2.71153689648965
 1 -11.81835719661966  0.04884158575858  3.01857020712071
 1 -11.23774446814681 -1.18632550905090  2.32311310101010
 1 -12.10550309280928  2.43332945494549  0.34787800380038
 1 -12.06696293569357  2.09314488998900  2.22956666846685
 1 -10.53765404750475  2.05620621112111  1.24115840934093
 1 -12.10687375987599 -2.51670454405441  1.24391887078708
 1 -9.05173601550155 -1.72920127782778  0.42693179207921
 1 -6.06584603070307 -2.09959328442844 -0.74703274767477
 1 -5.23521593689369 -1.46929216181618  0.64047244344434
 1 -6.67915802640264 -2.74871714471447  0.95469161996200
 1 -7.33236454755476  1.51791012011201 -0.12290196669667
 1 -4.62827947264727  0.03189180758076 -0.12147592329233
 1  13.59980565766577 -0.82390407780778  2.10259520012001
 1  12.11509668666867 -2.03847322732273  1.94004000370037
 1  13.63741609850985 -2.81232289728973  0.37718464436444
 1  12.92928036653665 -2.38358483698370 -1.63524661936194
 1  11.68592860106011 -2.62967209110911 -0.56308165026503
 1  11.50345995419542  0.24885525222522  3.60226526522652
 1  10.43525050275028  1.12032759585959  2.49703722792279
 1  10.29841746294630 -0.61285960046005  2.73818005920592
 1  13.73362026392639  1.08932755695570  0.55148921372137
 1  12.38448106130613  2.31145058285829  1.00672537823782
 1  13.41275711281128  1.44646912601260  2.43644012561256
 1  12.85044586408641  0.15576896729673 -3.13772622452245
 1  11.88013508190819  1.23483557445745 -1.82809074397440
 1  13.52959379197920  0.67843389628963 -1.54091957735774
 1 -5.46477870177018  3.11887627442744 -0.49557096789679
 1  9.81225247584759 -0.54267292489249 -2.09930226602660
 1  15.08054089928993 -0.97057687208721  0.68088668796880
 1  8.51096294709471  1.88904123132313 -0.40094737193719
 1 -2.55345042924292  4.26928337803780  0.35554138383838
 1 -2.19335810011001  4.13417064186419 -1.30063317241724
 1 -3.93486987208721  4.84212239403940 -0.88194799629963
 1 -2.62293191329133  0.50194240624062 -0.63429638423842
 1  6.75904865476548 -1.91791135323532  0.48932141684168
 1  8.27220243474348 -1.74864958975898 -0.46823759785979
 1  8.30701062266227 -1.38165049344934  1.23319708060806
 1  6.19307445454546  1.79883368876888 -0.34782680238024
 1 -0.79398075507551  2.91928597209721 -0.58268818031803
 1  5.05033101950195 -1.00840733743374  0.07245992709271
 1 -0.39092801600160 -0.07160897379738  0.08679129022902
 1  3.99332850075007  1.80124576077608 -0.60424264926493
 1  1.76275315051505  2.19510530243024 -0.28843154155416
 1  1.19041787658766 -1.47269387358736  0.22696169176918
 1  2.66173749854986 -1.63747004850485 -0.57935570557056
 1  2.66975367176718 -1.60215444444444  1.03728701530153

