%nproc=3
%Mem=2GB
# td=(NStates=1) CAM-B3LYP/6-31G(d,p) 

TD

0 1
 8 -11.73329999759976  0.30825147354735 -1.45228239183918
 8 -12.87514835063506 -2.58940724872487  1.25055074007401
 8  10.58945446534653 -1.14886477437744 -2.02469619591959
 8  14.47878124482448 -1.20330905240524 -0.06663115051505
 6 -10.96341450865087 -0.10769472417242 -0.20547997239724
 6 -11.51964825452545 -1.16477765766577 -1.19913875417542
 6 -11.78932097509751  0.22501918471847  1.01705136013601
 6 -12.87710291399140 -1.84652481038104 -1.10795242924292
 6 -13.33338179617962 -0.23879132673267  0.89637432533253
 6 -13.51270770427043 -1.70565210301030  0.42443121042104
 6 -10.68693428212821 -1.80668608610861 -2.25420773907391
 6 -9.57849729352935  0.20339747354735 -0.18804576267627
 6 -11.13395937333733 -0.27745334133413  2.33566863396340
 6 -11.89935031533153  1.75295039813981  1.10641873357336
 6 -8.68419184088409 -0.74095213641364  0.09567830683068
 6 -7.24121211081108 -0.50432227832783  0.23995169546955
 6 -6.30958497339734 -1.70566925572557  0.46627886418642
 6 -6.60439610131013  0.60403123302330 -0.04139269446945
 6 -5.24370431203120  1.02423446014601 -0.05707003720372
 6  11.93941318821882  0.06524655415542  1.30405993409341
 6  11.67050434053405 -0.71172732793279 -1.20684456415642
 6  12.63228045614562 -1.24096832653265  1.57060179357936
 6  13.39573426012601 -1.89457399079908  0.38044200860086
 6  12.45883081778178 -2.01933644264426 -0.71747571007101
 6  11.07829471737174  0.02451719961996  0.00203738403840
 6  11.02354375927593  0.50085672767277  2.52312465266527
 6  12.96419953665366  1.22663588438844  1.17931098209821
 6  12.55247155335534  0.11617049034904 -2.02638658645865
 6 -4.73481997769777  2.31915442144214 -0.35779062796280
 6  9.85482667016702  0.42960376317632  0.01610043334333
 6 -3.35155031343134  2.65904465816582 -0.40786104680468
 6  8.63755354135414  0.91280761456146 -0.25424976497650
 6 -3.05967765286529  4.13136459595960 -0.66837656975698
 6 -2.38361527662766  1.71645349404940 -0.42358489318932
 6  7.37272681518152  0.14140472847285 -0.01668085218522
 6  7.49706444294429 -1.30208716081608  0.27853777667767
 6  6.22577392539254  0.70065699599960 -0.11896583258326
 6 -1.07337146864686  2.02702182588259 -0.47723589868987
 6  4.92259386218622  0.12910202630263  0.05908727752775
 6  0.07618409740974  0.96107941784178 -0.35677478027803
 6  3.78067747544754  0.96015636603660 -0.13662113111311
 6  1.36800874167417  1.30329205690569 -0.18008038893889
 6  2.51756965746575  0.53705300500050  0.03198655655566
 6  2.23971383308331 -1.06964114441444  0.12395098869887
 1 -12.96515831663166 -2.81288426622662 -1.33995921992199
 1 -13.51295651935193 -1.24523850805080 -1.90897735243524
 1 -13.71002880508051 -0.54830776197620  1.95590827352735
 1 -13.75364475807581  0.50228535563556  0.23248091369137
 1 -14.49607691179118 -1.97479619301930  0.63106471077108
 1 -10.63386200310031 -2.92354913771377 -2.11772706810681
 1 -11.24161437033703 -1.58899369076908 -3.22398068426843
 1 -9.78959114261426 -1.14856406500650 -2.37150876337634
 1 -9.43450210501050  1.24717684868487 -0.49102291239124
 1 -10.27693902150215  0.21992325642564  2.52407815061506
 1 -11.88890425132513 -0.25824912331233  3.16107445754575
 1 -11.10448114181418 -1.46797367386739  2.27725851555155
 1 -12.34595713821382  2.22764888688869  0.21452466846685
 1 -12.54139037843784  2.01707728322832  2.06453016481648
 1 -11.00337061916192  2.26257684818482  1.32232652615262
 1 -11.92269534203420 -2.48797167076708  1.25669014791479
 1 -8.92657349924992 -1.70450880858086  0.51512061096110
 1 -5.74633407950795 -1.77496082118212 -0.44170221462146
 1 -5.68987140244024 -1.49090432303230  1.30602899909991
 1 -6.74681479207921 -2.65058733173317  0.75879203000300
 1 -7.24120543164316  1.49674800390039 -0.16659633613361
 1 -4.54456110081008  0.17000561896190  0.08447467176718
 1  13.31358703580358 -1.37079876727673  2.48212315291529
 1  11.77412258925893 -1.98889826982698  1.76268226792679
 1  13.59471182808281 -3.00356202120212  0.69332625852585
 1  12.95669310781078 -2.12906938543854 -1.76854994969497
 1  11.84716472467247 -2.83128225212521 -0.55740108220822
 1  11.79516912511251  0.60481084778478  3.36955199389939
 1  10.67087406510651  1.64290985408541  2.59478700290029
 1  10.47181480268027 -0.20857917241724  2.85608184938494
 1  13.96134303620362  0.94794341854185  0.53927799259926
 1  12.52951556475648  2.30727016481648  0.82523722942294
 1  13.30567640474047  1.26914139323932  2.13036951855186
 1  12.72683350285029 -0.38397500710071 -3.04043649554955
 1  11.98996606500650  1.07107919881988 -2.33115105000500
 1  13.58333916651665  0.46698275117512 -1.82442792819282
 1 -5.44578680258026  3.16779116591659 -0.32559397019702
 1  10.22674392499250 -0.25187384498450 -2.18404073987399
 1  15.36355920112011 -1.14226404080408  0.50858945824582
 1  8.56759861066107  1.92410473767377 -0.60870814801480
 1 -2.39523460766077  4.56111256095610 -0.07447161746175
 1 -2.59329809410941  4.50764798959896 -1.64840794989499
 1 -4.03501988708871  4.75243342514251 -0.74821462296230
 1 -2.79713933403340  0.75786799879988 -0.41058401300130
 1  6.53838658855886 -1.98378794089409  0.24219670437044
 1  8.23920913541354 -1.69662438723872 -0.43351412551255
 1  7.87972789438944 -1.53341566996700  1.35260902180218
 1  6.29244439153915  1.70946475187519 -0.40903292299230
 1 -0.53433479047905  3.05848989248925 -0.38396830833083
 1  5.06402238863886 -0.96382287898790  0.22277495859586
 1 -0.37062598579858 -0.01683349624962  0.16609922102210
 1  4.00162933083308  2.07331296749675 -0.46901912691269
 1  1.60811768696870  2.38347413931393 -0.60737343574357
 1  1.14571340614061 -1.21408801300130  0.30411940754075
 1  2.74790611541154 -1.52442874437444 -0.85862363236324
 1  2.77735443184318 -1.43996822582258  0.94388767536754

