%nproc=3
%Mem=2GB
# td=(NStates=1) CAM-B3LYP/6-31G(d,p) 

TD

0 1
<<<<<<< HEAD
 8 -11.85440210781078  0.33575422382238 -1.33852101570157
 8 -12.85073590939094 -2.52163047104710  1.55660134513451
 8  10.87442296219622 -0.93248313621362 -2.14784851115111
 8  14.53583695039504 -1.04446316781678  0.22013752635264
 6 -11.16057422462246 -0.08208216291629 -0.25197462186219
 6 -11.74006029572957 -1.00487166706671 -1.15584442474247
 6 -11.75400744374437  0.39625630843084  1.05137479247925
 6 -13.11548675237524 -1.69600975887589 -0.84192582658266
 6 -13.19606806480648 -0.09031647924792  1.14101878977898
 6 -13.51244767826783 -1.44381591939194  0.73157192449245
 6 -11.05542113081308 -1.82543796129613 -2.27652997129713
 6 -9.59924936873687  0.21600873467347 -0.33857081518152
 6 -10.98735471287129 -0.17679327532753  2.33982905000500
 6 -11.79954033433343  1.90183528662866  1.05696378807881
 6 -8.71628505020502 -0.83826186738674 -0.12586384738474
 6 -7.24075206480648 -0.64638648474848 -0.02593489318932
 6 -6.35211922682268 -1.82145083388339  0.28558079437944
 6 -6.71950761246125  0.61011184108411 -0.24486304150415
 6 -5.27976791839184  0.85940797749775 -0.43317764796480
 6  11.89741898879888  0.16149617911791  1.44749427752775
 6  11.84941223132313 -0.57677383258326 -1.20136401610161
 6  12.53818104620462 -1.30957518721872  1.64589932333233
 6  13.39380406710671 -1.80747528092809  0.48850281468147
 6  12.58653358805880 -1.92084659365937 -0.76895085758576
 6  11.05956284418442  0.12120686858686  0.02912009230923
 6  10.77147855275527  0.13908055005501  2.50073241344134
 6  12.86875999269927  1.23317653845385  1.51045409640964
 6  12.72262856905690  0.46280515381538 -1.91424537233723
 6 -4.82982947864786  2.11177368336834 -0.54406925582558
 6  9.81744293179318  0.51513231603160 -0.18782995969597
 6 -3.43460861926193  2.45653440714071 -0.49379964066407
 6  8.60113989999000  0.83358969276928 -0.26551089108911
 6 -3.10744242934293  3.91512297179718 -0.61749148124812
 6 -2.34240115521552  1.58265011371137 -0.46693922862286
 6  7.50045958845885  0.08078866686669 -0.05289447354735
 6  7.74992972947295 -1.30415736783678  0.10362028492849
 6  6.20825217321732  0.73123005330533 -0.19574351035104
 6 -0.92755688718872  1.86874599829983 -0.45584375947595
 6  4.91062266506651  0.11469058515852 -0.09463809500950
 6  0.08777525652565  0.82166547644764 -0.12439154195420
 6  3.80978038573857  0.84829517991799 -0.10553802280228
 6  1.43297523832383  1.22494422212221 -0.21995437633763
 6  2.50958885938594  0.29252855255526 -0.13725036713671
 6  2.40593045474547 -1.19356353665367 -0.08632003840384
 1 -13.15248704950495 -2.85240821862186 -0.95524074807481
 1 -13.97933315701570 -1.15731971617162 -1.41018747344735
 1 -13.40007780998100 -0.10439337053705  2.18348103080308
 1 -13.95846524012401  0.42477760486049  0.60737840344034
 1 -14.49396670077008 -1.61252996639664  0.76395800010001
 1 -10.58496711361136 -2.89652643544354 -2.04120941634163
 1 -11.68416862576258 -1.92627741914191 -3.12664095029503
 1 -10.32354453795380 -1.16161537013701 -2.62620423292329
 1 -9.28889754455446  1.23503563456346 -0.67391120122012
 1 -9.82453378097810  0.11489275337534  2.42558830163016
 1 -11.38900426132613  0.11110781238124  3.32143049314932
 1 -11.04989568326833 -1.17806468296830  2.51263205290529
 1 -12.21627416991699  2.31869799179918  0.20141335733573
 1 -12.35480171957196  2.29231480698070  1.96290000180018
 1 -10.68796907900790  2.37473806430643  1.16281057455746
 1 -11.96828990149015 -2.54830770437044  1.25729020792079
 1 -8.96313715561556 -1.71333969166917  0.14226332523252
 1 -5.92274172027203 -2.33622694779478 -0.59809785418542
 1 -5.56260867616762 -1.43404863746375  1.01545994219422
 1 -6.94964507510751 -2.54980725372537  0.96299245004500
 1 -7.23124443554355  1.52803113221322 -0.67516719321932
 1 -4.44881152585258  0.11503012141214 -0.17059083478348
 1  13.30753643074307 -1.07499918731873  2.31428636923692
 1  11.75727090409041 -2.10241962196220  2.07458345804580
 1  13.60838319521952 -2.81951361636164  0.65221214711471
 1  13.17294473297330 -2.22453893239324 -1.66210930563056
 1  11.88152816101610 -2.65262438633863 -0.66259160126013
 1  11.29053866206621  0.21718208490849  3.44647968666867
 1  10.25765274297430  0.99094465756576  2.34901242544254
 1  10.05442306350635 -0.73077139163916  2.51431767296730
 1  13.64397129902990  1.35472409660966  0.81511557635764
 1  12.37516012921292  2.23308274607461  1.17310201590159
 1  13.30544638173817  1.32472695179518  2.50683716531653
 1  12.95177599709971  0.08789217961796 -2.84237668956896
 1  12.05815288368837  1.28544063496350 -1.89047698259826
 1  13.56303713631363  0.71563761666167 -1.34541002640264
 1 -5.53796602050205  3.00245463226323 -0.44575598639864
 1  10.26047729832983 -0.19599825742574 -2.10652298809881
 1  15.20810365556556 -0.93126294069407  0.87491609090909
 1  8.42565441624163  1.78362068926893 -0.67892516971697
 1 -2.66249133333333  4.08368481818182  0.33700953065307
 1 -2.42985174947495  4.11720894569457 -1.38631174027403
 1 -4.06715310041004  4.47192537433743 -0.48421822332233
 1 -2.49419904000400  0.61643385538554 -0.33681663626363
 1  6.87148989888989 -2.00729029112911  0.02424490919092
 1  8.58656387088709 -1.63757848264826 -0.63310408450845
 1  8.11836175777578 -1.37770009840984  1.27052081298130
 1  6.23931907900790  1.81372517791779 -0.16382840254025
 1 -0.60567192419242  2.86537058055806 -0.80291020252025
 1  4.79738572497250 -0.92809930663066 -0.01320863976398
 1 -0.21009993319332 -0.19819163206321  0.22232484358436
 1  3.64553372127213  1.76442207840784 -0.35459768476848
 1  1.44893176837684  2.28174396629663 -0.24209690809081
 1  1.30798963376338 -1.30770737493749  0.00080907650765
 1  2.74166549134913 -1.64835113661366 -1.08906667666767
 1  2.87408410481048 -1.62553678267827  0.71996528312831
=======
>>>>>>> 6a1b998aacd80a23911c140f266e48a14f2d523d

