%nproc=3
%Mem=2GB
# td=(NStates=1) CAM-B3LYP/6-31G(d,p) 

TD

0 1
<<<<<<< HEAD
 8 -11.84736140374037  0.36538718711871 -1.36350351395140
 8 -13.06379721552155 -2.49682799079908  1.39020470547055
 8  10.65665118501850 -1.07178706660666 -2.18265199149915
 8  14.70296366306631 -0.89742846434643  0.03079859245925
 6 -11.10120828802880 -0.07561151585159 -0.13546297069707
 6 -11.66560284998500 -0.96341752165217 -1.15623446374637
 6 -11.77014905790579  0.28032471527153  1.12151180618062
 6 -13.01125632933293 -1.81658181608161 -0.95362699669967
 6 -13.34735319331933 -0.16944439203920  0.88766345424542
 6 -13.61932836633663 -1.59316085388539  0.40667943524352
 6 -10.86613220192019 -1.75195061256126 -2.30234255255526
 6 -9.65584502830283  0.20620775457546 -0.26321327942794
 6 -11.06268224562456 -0.36401199719972  2.34508957605761
 6 -11.74417479777978  1.83293839693969  1.32244033573357
 6 -8.68344176587659 -0.54961300250025  0.12695143414341
 6 -7.29667765736574 -0.39128097419742  0.11067876817682
 6 -6.41539555445545 -1.64397308610861  0.44568680498050
 6 -6.66303196489649  0.76507733763376 -0.12757131233123
 6 -5.23654359595960  0.97624966166617 -0.22501683188319
 6  11.92064131103110  0.11812184168417  1.45509503760376
 6  11.58959624972497 -0.59865602080208 -1.23285716541654
 6  12.78297552565257 -1.26011024072407  1.55802053545355
 6  13.54130881758176 -1.66596112951295  0.27602156655666
 6  12.60007494219422 -1.73833834283428 -0.92369633213321
 6  11.01841872977298  0.00741548944894  0.15304248454846
 6  11.05036644154415  0.19006564856486  2.63212555275528
 6  12.77545066176618  1.32438565936594  1.33125617661766
 6  12.48200450665066  0.47756662996300 -1.92095604340434
 6 -4.67227372307231  2.21672417841784 -0.58135298419842
 6  9.80393158065807  0.56969777257726  0.04037286058606
 6 -3.29582474087409  2.53144189788979 -0.65866612731273
 6  8.56075586158616  0.89206554035404 -0.18623296329633
 6 -2.93884556965697  3.95708716821682 -0.87875760786079
 6 -2.28687560266027  1.52740458915892 -0.38248078277828
 6  7.47289683218322 -0.00717012901290  0.00631144704470
 6  7.68269300580058 -1.45647259935994  0.36284620752075
 6  6.22472382038204  0.57344427472747 -0.17362129812981
 6 -0.99208333983398  1.84075319901990 -0.47823599869987
 6  4.92523412621262  0.03307242334233 -0.09797842904290
 6  0.07125360436044  0.91289459935994 -0.19347845064506
 6  3.78449785748575  0.62699304970497 -0.30804827382738
 6  1.44384632543254  1.06519824752475 -0.40224260516052
 6  2.45421332183218  0.09918921862186 -0.11038768086809
 6  2.26397625932593 -1.22379655995600  0.36827542114211
 1 -12.86863866466647 -2.79031200900090 -1.19551477547755
 1 -13.71913713741374 -1.35262924712471 -1.79464591929193
 1 -13.89193699589959 -0.19854278547855  2.02655533823382
 1 -13.77677707130713  0.75471059815982  0.31856952255226
 1 -14.71429873397340 -1.98891760516052  0.17035864016402
 1 -10.50631924882488 -2.68256503930393 -1.96556185158516
 1 -11.33515372427243 -1.56724151555156 -3.30219850605061
 1 -9.75082726622662 -1.29428863746375 -2.38285989848985
 1 -9.56905556035604  1.26648877987799 -0.74194800490049
 1 -10.00897222482248  0.05428669276928  2.19659540234023
 1 -11.66488184908491 -0.00423372177218  3.21113946404640
 1 -11.25529622332233 -1.32488936543654  2.30039082878288
 1 -12.01701424392439  2.24740086208621  0.52039525552555
 1 -12.50374661406141  1.94336991249125  1.97941165296530
 1 -10.71780206230623  2.20549113961396  1.46316060956096
 1 -11.93583665616561 -2.57915078867887  1.18267274617462
 1 -9.02535337723772 -1.57633599129913  0.42976207510751
 1 -5.61790123622362 -1.72871619671967 -0.34530257465747
 1 -5.88865128042804 -1.55086031863186  1.51256965316532
 1 -6.88991910251025 -2.52234450745075  0.41053720452045
 1 -7.26871818291829  1.62695102420242 -0.40596027252725
 1 -4.46592323702370  0.12111072947295 -0.13336711241124
 1  13.68358403550355 -1.06540822822282  2.23790873147315
 1  12.15413059005901 -2.11635101510151  1.90070607030703
 1  14.02915527242724 -2.55876754175418  0.37985491139114
 1  13.26164360286029 -2.13168964746475 -1.77865095979598
 1  11.91632164036404 -2.51205032893289 -0.59350469256926
 1  11.55462507070707  0.30268063476348  3.52023706240624
 1  10.30369734743474  1.10931649474948  2.60346787098710
 1  10.38589621082108 -0.72698101260126  2.66539278047805
 1  13.48691559345935  1.20802942714271  0.54783884868487
 1  11.96486910011001  2.11779121692169  1.19889459515952
 1  13.32793863096310  1.34089856895690  2.28933541514151
 1  12.81065188468847  0.22675606600660 -2.96699915181518
 1  12.15005207360736  1.47123921482148 -1.94702263716372
 1  13.47865869846985  0.48625467836784 -1.21406689208921
 1 -5.30735295919592  3.05677006380638 -0.72076348714871
 1  9.74997624822482 -0.44671332893289 -2.02156449224923
 1  15.32026487168717 -0.84046386078608  0.76147474677468
 1  8.16852870367037  1.83339566676668 -0.26841411861186
 1 -2.56619170337034  4.59639608930893  0.01224705440544
 1 -2.40588935323532  4.20245747054705 -1.90136324542454
 1 -4.03732011711171  4.28482666446645 -1.02384218571857
 1 -2.42699231933193  0.44880709270927 -0.22649560416042
 1  6.89125187508751 -2.25049461156116  0.55632811751175
 1  8.39448466296630 -1.87297202200220 -0.52508328242824
 1  8.27053697529753 -1.55824815321532  1.33576733763376
 1  6.32270741784178  1.68745255065507 -0.49070108980898
 1 -0.67617897489749  2.86130017351735 -0.49711962346235
 1  4.84177016341634 -0.98923542024202 -0.06151347024702
 1 -0.41239016221622 -0.09684149704970  0.35050766186619
 1  3.89010817871787  1.78245388158816 -0.46456868186819
 1  1.83180005520552  2.10024581648165 -0.72818551695170
 1  1.17468630343034 -1.44475107930793  0.71617061266126
 1  2.62075340014001 -1.92769907140714 -0.44013178317832
 1  2.68125482188219 -1.54634886388639  1.24995828242824
=======
>>>>>>> 6a1b998aacd80a23911c140f266e48a14f2d523d

