%nproc=3
%Mem=2GB
# td=(NStates=1) CAM-B3LYP/6-31G(d,p) 

TD

0 1
<<<<<<< HEAD
 8 -11.81803847144714  0.18602925132513 -1.47911507510751
 8 -12.83939477527753 -2.59368767676768  1.37991367636764
 8  10.54174969486949 -1.09765965386539 -1.94368809510951
 8  14.36640000670067 -1.23933265476548 -0.04260874827483
 6 -11.06933510071007 -0.15296925162516 -0.23193261766177
 6 -11.55622191189119 -1.15173635353535 -1.16256509680968
 6 -11.84276631963196  0.25658234103410  1.01454110911091
 6 -12.86664186788679 -1.89846000390039 -1.01313294729473
 6 -13.34355281328133 -0.14934238183818  0.88280296819682
 6 -13.42013844734474 -1.57665920372037  0.45276404370437
 6 -10.68861445014502 -1.93182860036004 -2.04084640294029
 6 -9.56286573037304  0.21189832363236 -0.30909786788679
 6 -11.23217919531953 -0.19260485648565  2.32294736183618
 6 -11.87824820512051  1.80918602170217  1.01424951665167
 6 -8.65122854455445 -0.66077411861186  0.14697343634363
 6 -7.24095208480848 -0.47090893699370  0.13014071437144
 6 -6.36215022992299 -1.70026871567157  0.40037227352735
 6 -6.67057271897190  0.73528435833583 -0.07856641184118
 6 -5.31398133973397  0.89284132083208 -0.08662299249925
 6  12.03811305820582  0.00909093859386  1.40900042814281
 6  11.66013330343034 -0.64924107930793 -1.14621850155016
 6  12.63361058915892 -1.32288651835184  1.60083481688169
 6  13.28375306200620 -1.91477601100110  0.31325528992899
 6  12.34923985868587 -1.99006351535154 -0.88713267576758
 6  11.09757664556456  0.02462721062106  0.11122830313031
 6  11.03528493339334  0.17241388338834  2.61837417761776
 6  12.96157927462746  1.13755697649765  1.40312336333633
 6  12.50806711291129  0.29383825712571 -1.97208115591559
 6 -4.80876737243724  2.15577808380838 -0.43654850375037
 6  9.98264945244525  0.59822062486249 -0.05089626632663
 6 -3.41576673507351  2.57050580428043 -0.47461772247225
 6  8.66493627962796  1.10534686848685 -0.13788812881288
 6 -3.08716040114011  4.07005846534654 -0.57334706680668
 6 -2.30714762986299  1.71382323102310 -0.36472900760076
 6  7.53472301480148  0.18637922592259 -0.06502568666867
 6  7.75976071257126 -1.22901985408541  0.20132005490549
 6  6.32144349234923  0.76423335363536 -0.25611954795480
 6 -0.97991212271227  2.01718084178418 -0.43256143124312
 6  4.98963056585659  0.26633574967497 -0.10130876207621
 6  0.01936841584158  1.06070938083808 -0.28244734753475
 6  3.76880628832883  0.97019737013701 -0.22302977197720
 6  1.40681262206221  1.25842757045705 -0.40426280718072
 6  2.51391929242924  0.35055435513551 -0.09588623072307
 6  2.24441430313031 -1.15386956725673  0.06399499309931
 1 -12.66267806860686 -2.93736671447145 -1.24350957495750
 1 -13.58528375207521 -1.36693067726773 -1.72786924162416
 1 -13.78555635783578  0.12985005380538  1.74145682838284
 1 -13.55590498409841  0.71240636773677  0.11358902450245
 1 -14.51619892399240 -2.01548026142614  0.49867147144714
 1 -10.09232784968497 -2.82984976777678 -1.44447974337434
 1 -11.28426863576358 -2.19569436083608 -3.02952123832383
 1 -9.94940712421242 -1.31873108170817 -2.61861347384738
 1 -9.17479613441344  1.20391252225223 -0.62770658075808
 1 -10.05851717931793  0.07753901800180  2.35061080388039
 1 -11.71835719661966  0.02932963456346  3.27649599969997
 1 -11.21506219991999 -1.21249812631263  2.41596238593859
 1 -12.29753229572957  2.17517363936394  0.23819703570357
 1 -12.53574981438144  2.17225280078008  1.86922063386339
 1 -10.98474875697570  2.28230882138214  1.37250154365437
 1 -11.78912198469847 -2.33380625422542  1.56492097099710
 1 -8.98209905180518 -1.67049540724072  0.65331443034303
 1 -5.83446289238924 -2.16041936703670 -0.38880692509251
 1 -5.86893930923092 -1.43263849644965  1.47511590779078
 1 -7.12918302890289 -2.57257953095310  0.63690984178418
 1 -7.27545885698570  1.46569489858986 -0.13067274377438
 1 -4.72989963466347  0.09896851525153 -0.16968074377438
 1  13.58125380248025 -1.24736642404240  2.32992793339334
 1  12.05885106210621 -2.07087646764676  1.91103710341034
 1  13.63538589548955 -2.95302696769677  0.57239416531653
 1  12.85744318281828 -2.17282376087609 -1.78528162286229
 1  11.34863487168717 -2.54427355125513 -0.72378772087209
 1  11.87330693889389  0.32407277397740  3.33478851755175
 1  10.45567254495449  1.08541410451045  2.52976050025002
 1  10.47757537873787 -0.64173248774877  2.66815305650565
 1  13.87044394629463  0.87997662186219  0.70982504730473
 1  12.55843845704571  2.07243668146815  1.06395110081008
 1  13.35138097519752  1.29751423052305  2.37779426102610
 1  12.70539135863586 -0.05715232483248 -3.09711216311631
 1  12.03959102750275  1.29927201810181 -2.02210014491449
 1  13.38779961256126  0.40261631453145 -1.46768225362536
 1 -5.43230545444544  3.00617500430043 -0.56071748254826
 1  10.19631088168817 -0.11985064266427 -2.30619295509551
 1  15.02057490269027 -1.13056287068707  0.69856845614561
 1  8.52399425022502  2.12458478567857 -0.38842611981198
 1 -2.45347043124312  4.53365981568157  0.26714254395440
 1 -2.73952271657166  4.17845507030703 -1.74853796289629
 1 -4.03983036813681  4.78135631743174 -0.39167896939694
 1 -2.57105672577258  0.68466067806781 -0.11453440804080
 1  6.94560731063106 -1.80536009810981 -0.13416093139314
 1  8.76055126962696 -1.74749947474747 -0.30957173127313
 1  7.90652057365737 -1.33870619901990  1.29949371027103
 1  6.23883903100310  1.80666447184718 -0.25916793649365
 1 -0.70037139413941  2.89972401590159 -0.83900381188119
 1  4.89512549894989 -0.75372186888689  0.28808148924892
 1 -0.29443836703670  0.16038422552255 -0.14556194509451
 1  3.66083525142514  1.97304294049405 -0.38068029302930
 1  1.62523939913991  2.30740653255326 -0.70352305070507
 1  1.12725155995600 -1.51816842104210  0.17871686728673
 1  2.64348567336734 -1.65399170067007 -0.78825659565957
 1  2.61819851625163 -1.37997222622262  0.95846913351335
=======
>>>>>>> 6a1b998aacd80a23911c140f266e48a14f2d523d

