%nproc=3
%Mem=2GB
# td=(NStates=1) CAM-B3LYP/6-31G(d,p) 

TD

0 1
<<<<<<< HEAD
 8 -11.63116978457846  0.07462811121112 -1.66150331393139
 8 -12.96734757055706 -2.41111941994199  1.34261994699470
 8  10.59472499239924 -1.09895978387839 -2.17959168546855
 8  14.46724009070907 -1.16040476197620 -0.20304479187919
 6 -11.02898106530653 -0.22558651335134 -0.41849127352735
 6 -11.59084537423742 -1.31256243614361 -1.31238007830783
 6 -11.81195323832383  0.36894357715772  0.79804945994599
 6 -13.02235743944394 -1.82450260816082 -1.01182281628163
 6 -13.30719917791779 -0.08381582918292  0.60134482238224
 6 -13.60408684218422 -1.55199673747375  0.30533930123012
 6 -10.68465405410541 -2.06754217171717 -2.18692101040104
 6 -9.55349479327933 -0.03550641684168 -0.55647260536054
 6 -11.24738071547155  0.00707511151115  2.23846891399140
 6 -11.77881826212621  1.88912401550155  0.55335342704270
 6 -8.60023344504450 -0.76716475767577  0.19022776177618
 6 -7.17066505610561 -0.56135798189819  0.29442714301430
 6 -6.33530754565457 -1.77075576437644  0.73605584188419
 6 -6.60949661136114  0.71589241914191  0.06230767556756
 6 -5.21011095269527  1.02589462616262  0.16445211501150
 6  11.97851709860986  0.11806183568357  1.23935346344634
 6  11.62628991909191 -0.66028218341834 -1.34710859055906
 6  12.78066529462946 -1.27287151685169  1.42730746414641
 6  13.33331801850185 -1.84614914831483  0.21097506190619
 6  12.34088902360236 -1.99185369436944 -0.90845480798080
 6  11.01919880778078 -0.00833608570857 -0.08101092079208
 6  11.05023642854285  0.33515015701570  2.44738707890789
 6  12.86650976767677  1.29423264406441  1.13641669266927
 6  12.55987229342934  0.18577745104510 -2.20707465526553
 6 -4.60474697039704  2.23591609760976 -0.09571442034203
 6  9.78899008650865  0.42061286408641  0.04839366266627
 6 -3.30692585098510  2.63752250595060 -0.07642790349035
 6  8.62078186418642  0.95422175597560 -0.19830417041704
 6 -2.89732141724172  4.12161362086209 -0.34751448354835
 6 -2.32298921402140  1.67022887158716 -0.01480401510151
 6  7.43122266476648  0.21181176917692  0.03622443834383
 6  7.67529226572657 -1.27176412851285  0.36823674657466
 6  6.14257560556056  0.75354228452845 -0.10764470047005
 6 -0.96834096559656  1.95202432613261 -0.04127230233023
 6  4.95430703350335  0.17441655775578  0.05452682148215
 6 -0.03761728272827  1.04812812271227  0.02772366956696
 6  3.76764617231723  0.84727507790779 -0.22973044204420
 6  1.35931787258726  1.24388611631163 -0.12784516541654
 6  2.41473937443744  0.41230052975298 -0.02831947404740
 6  2.32900276197620 -1.03015719601960  0.33152174577458
 1 -12.99671147194720 -2.91209418721872 -1.23945916991699
 1 -13.76259148284828 -1.68771275547555 -1.91372782748275
 1 -13.90075787798780  0.26745381418142  1.62740542324232
 1 -13.80173956755675  0.66659178627863 -0.03468580298030
 1 -14.79848715281528 -1.80231894529453  0.21723332763276
 1 -10.61840045694569 -3.17208399119912 -1.74356965236524
 1 -11.27893810271027 -2.25630042144214 -3.14298258445845
 1 -9.60887307080708 -1.57358656725673 -2.19722133463346
 1 -9.13207186198620  0.73601573257326 -1.18020183028303
 1 -10.33205453305331  0.46143740784078  2.52621836463646
 1 -12.06917227812781  0.64656135773577  2.82083043314331
 1 -11.09817051075107 -1.07565444194419  2.44827561726173
 1 -11.97563010551055  2.17323344534454 -0.53111989598960
 1 -12.53618985838584  2.52429800530053  1.18332204400440
 1 -10.73678396049605  2.01739232973297  0.91170546404640
 1 -12.06605967846785 -2.29442231583158  1.30596507540754
 1 -9.05911675357536 -1.56096445414541  0.71417051595160
 1 -5.33712315841584 -1.83615694079408  0.00408236383638
 1 -5.81525394069407 -1.46948218081808  1.71095949214921
 1 -6.95183529412941 -2.63891616461646  0.67533368416842
 1 -7.20944225532553  1.62810113921392  0.02341266476648
 1 -4.43720036473647  0.22904152255225  0.36075229952995
 1  13.47061273837384 -0.86862855025503  2.40427536813681
 1  11.95478065506551 -1.83323270327033  2.14960095979598
 1  13.58061041794179 -2.86998866386639  0.48130505640564
 1  12.78283572207221 -2.52853933243324 -1.82861595629563
 1  11.57340734893489 -2.68742786668667 -0.78325366746675
 1  11.54932454065407  0.37921828852885  3.30205524422442
 1  10.28457543524352  1.11783734683468  2.36307383158316
 1  10.49426704790479 -0.53705201970197  2.58286452765277
 1  13.54726162806281  1.04512313651365  0.39609367416742
 1  12.11372398559856  2.12915235303530  1.07099180488049
 1  13.44419025612561  1.39297377647765  2.04921140274027
 1  12.91598241774178 -0.34225083468347 -3.12783523542354
 1  12.08154522292229  1.17089918081808 -2.54609254415442
 1  13.40054088668867  0.47426347924792 -1.57103258865887
 1 -5.39766199009901  3.05495988278828 -0.25817722852285
 1  10.05179643024302 -0.26808546614661 -2.45145748154816
 1  15.14079692489249 -0.94763457785779  0.53626222552255
 1  8.68241009180918  2.02117444464446 -0.63556083328333
 1 -2.33081816601660  4.72484893459346  0.34426025572557
 1 -2.25213397769777  4.13967119191919 -1.36541965106511
 1 -3.90146653175317  4.63017119891989 -0.63391319281928
 1 -2.64070369046905  0.60487269926993  0.09253629902990
 1  6.72618536843684 -1.94011357345735  0.42175466016602
 1  8.28189340384038 -1.68398312311231 -0.30100087418742
 1  7.81706162776278 -1.51270359875988  1.47780154105410
 1  6.11661680878088  1.81675548094809 -0.47552957265727
 1 -0.60694205120512  2.97638168166817 -0.19084899639964
 1  4.84802078847885 -0.87212370907091  0.36715939703970
 1 -0.22829175237524 -0.01884369726973  0.29947255835584
 1  3.86806597449745  2.01976761296130 -0.24777700270027
 1  1.58220509570957  2.26608240014001 -0.51861455985599
 1  1.24283311811181 -1.55951255545555  0.35134413001300
 1  2.78301962676268 -1.66848314981498 -0.35102287228723
 1  2.64993168956896 -1.11878610761076  1.33766705330533
=======
>>>>>>> 6a1b998aacd80a23911c140f266e48a14f2d523d

