%nproc=3
%Mem=2GB
# td=(NStates=1) CAM-B3LYP/6-31G(d,p) 

TD

0 1
<<<<<<< HEAD
 8 -11.57248391599160  0.16666731513151 -1.51917908150815
 8 -13.06551738753875 -2.51618992699270  1.40698638363836
 8  10.40220574047405 -1.03869375727573 -2.05245897219722
 8  14.40631399809981 -1.35825454695470 -0.21292577997800
 6 -11.00889905710571 -0.13138709340934 -0.33103252765277
 6 -11.46319260896090 -1.24038521842184 -1.22971181148115
 6 -11.78327037003700  0.31570825362536  0.94834448944894
 6 -12.88128333203320 -1.90610076797680 -0.96914854885489
 6 -13.31184964296430 -0.20382783038304  0.74073876177618
 6 -13.49242567606761 -1.64113565136514  0.34479324662466
 6 -10.69253484218422 -1.88863428092809 -2.24917723602360
 6 -9.54251369516952  0.14244137793779 -0.29595655375538
 6 -11.18734471187119 -0.17408300430043  2.19679474657466
 6 -11.87449783008301  1.84385948904890  0.99945803750375
 6 -8.57447086878688 -0.75639368056806  0.21221996099610
 6 -7.19129711931193 -0.63005485158516  0.23905160546055
 6 -6.29570358525853 -1.83325201400140  0.56538877517752
 6 -6.69661532323232  0.63854468436844 -0.03025158035804
 6 -5.29830977257726  0.88305034173417 -0.25491982218222
 6  11.95959520642064  0.04175420492049  1.26126565466547
 6  11.55030232033203 -0.69880603580358 -1.24181806150615
 6  12.53667089518952 -1.36397062676268  1.43628836223622
 6  13.16633131983198 -2.00840537393739  0.18619258365837
 6  12.16845177987799 -2.02678718771877 -0.93086704920492
 6  11.09330621852185  0.11512626052605  0.02217939823982
 6  11.00810221512151  0.30927756975698  2.50475281548155
 6  13.09520263696370  1.02143536433643  1.30744379537954
 6  12.50703700990099  0.23603247654765 -1.89000294809481
 6 -4.68132462816282  2.19307181318132 -0.37421227012701
 6  9.90398158565857  0.64400520332033 -0.01887306400640
 6 -3.33947910631063  2.53327208090809 -0.45030529122912
 6  8.68815860186018  1.05341167496750 -0.12237657765777
 6 -2.99407109220922  4.03097455695570 -0.60923065516552
 6 -2.22429934503450  1.74050589928993 -0.28893142784278
 6  7.46535607810781  0.25171575957596 -0.00763994809481
 6  7.52232696919692 -1.15821277337734  0.27763768666867
 6  6.23161450945094  0.90244717501750 -0.12766670267027
 6 -0.84049818131813  1.97857698139814 -0.45862403750375
 6  4.98061966476648  0.29574869096910  0.10847221602160
 6  0.02044852385239  1.07443075297530 -0.14275337813781
 6  3.80350975867587  1.01841219161916 -0.09821729072907
 6  1.38432037283728  1.36960868856886 -0.18539091999200
 6  2.46447434793479  0.48001730143014 -0.01153779587959
 6  2.36099596129613 -0.90073425372537  0.53243183678368
 1 -12.79379117991799 -2.87879085688569 -1.13857908190819
 1 -13.60946617031703 -1.43361734593459 -1.59550600530053
 1 -13.98519632183218  0.04782185098510  1.70678336103610
 1 -13.59599899349935  0.43016814391439 -0.16498883328333
 1 -14.51194849894990 -1.55685439883988  0.45319692399240
 1 -9.97598621552155 -2.86499328212821 -1.83797909330933
 1 -11.40807101600160 -2.16054084548455 -3.09114740094009
 1 -9.79953213671367 -1.30789999859986 -2.64846645914591
 1 -8.98240689548955  1.10686281728173 -0.61170498059806
 1 -10.06951827942794  0.09551081518152  2.26440218301830
 1 -11.76888224912491  0.14711141274127  2.99848819891989
 1 -11.18915960966097 -1.36138301480148  2.31861265096510
 1 -12.26060860336034  2.19190531253125  0.13675689168917
 1 -12.60068630803080  2.18861443694369  1.77973168496850
 1 -10.96752703480348  2.24837542804280  1.21282557605761
 1 -12.15739881238124 -2.37846071967197  1.23326780568057
 1 -8.78017885978598 -1.80025838353835  0.64223332223222
 1 -6.14364381048105 -2.40043336843684 -0.39462750715071
 1 -5.42162457775778 -1.49315454805481  1.25580397659766
 1 -6.98542865346535 -2.56761903490349  1.23126927772777
 1 -7.40909222032203  1.57597592669267  0.12342266576658
 1 -4.47283392809281  0.13696231463146 -0.29146292199220
 1  13.25268094519452 -1.34152583998400  2.28314325492549
 1  11.79253443044304 -2.10933031303130  1.71722772247225
 1  13.44265662256226 -3.06712837783778  0.37173409930993
 1  12.67259469796980 -2.54425090359036 -1.83330642534253
 1  11.39720972917292 -2.49040816471647 -0.48882422452245
 1  11.56341594979498  0.52633300000000  3.46127116581658
 1  10.61019799749975  1.38554411751175  2.47304482868287
 1  10.32994061526153 -0.54426274077408  2.63955019621962
 1  13.75994289618962  0.71739036323632  0.47435149994999
 1  12.77064967816782  2.14014345214521  1.12347705340534
 1  13.49883572067207  0.94399887898790  2.38390487208721
 1  12.85673649314931 -0.08674528412841 -2.75738819071907
 1  12.08237530593059  1.12145423632363 -2.18525646054605
 1  13.37818865146515  0.32660871377138 -1.22276776217622
 1 -5.52526475037504  3.00633502030203 -0.57422883368337
 1  9.94535578617862 -0.21243990159016 -2.32675501130113
 1  14.98977182238224 -1.35884569896990  0.55108370767077
 1  8.46106795759576  2.04013634083408 -0.50479775697570
 1 -2.30051513571357  4.29312576227623  0.00899672937294
 1 -2.49978874317432  4.29594681948195 -1.40429353845384
 1 -3.99118550365037  4.56646482828283 -0.53428322982298
 1 -2.51446106620662  0.61592380438044  0.17861490689069
 1  6.67696044594459 -1.79499906200620 -0.06351386668667
 1  8.40104531903190 -1.50726545134513 -0.40958173227323
 1  7.82168208980898 -1.43008533693369  1.30177393829383
 1  6.41004615171517  1.96470027542754 -0.32040406010601
 1 -0.50483184018402  3.04281832533253 -0.80953086458646
 1  4.88623460986099 -0.66532302900290  0.26607928902890
 1 -0.08869779297930  0.03788197529753  0.17011962306231
 1  4.01027019491949  2.25939157535754 -0.34358658365837
 1  1.84109098429843  2.45494128602860 -0.34270696909691
 1  1.42251108590859 -1.12654925912591  1.05059405500550
 1  2.54411573637364 -1.75960226172617 -0.23761153115311
 1  3.05124182058206 -1.01692592159216  1.35946923352335
=======
>>>>>>> 6a1b998aacd80a23911c140f266e48a14f2d523d

