%nproc=3
%Mem=2GB
# td=(NStates=1) CAM-B3LYP/6-31G(d,p) 

TD

0 1
<<<<<<< HEAD
 8 -11.76570323792379  0.35906655505551 -1.60801796539654
 8 -12.99248008380838 -2.41121942994299  1.34913059805981
 8  10.66332185208521 -1.26109599749975 -2.08048177447745
 8  14.63354672137214 -0.86616533803380 -0.20292477987799
 6 -11.10644881208121 -0.09886384108411 -0.40443986838684
 6 -11.67474376407641 -1.06331751165117 -1.29278811911191
 6 -11.83897594059406  0.34484116691669  0.81100075507551
 6 -12.98938414211421 -1.70233039093909 -0.93890552455246
 6 -13.34233269126913  0.00470302270227  0.94679936783678
 6 -13.56785321882188 -1.47876941474147  0.41186995429543
 6 -10.98853444214422 -1.86293171067107 -2.24085640394039
 6 -9.57085652945294  0.22491962576258 -0.41690864896490
 6 -11.18107408480848 -0.05905150115011  2.14136920402040
 6 -11.90854123442344  1.95554065716572  0.85395348704870
 6 -8.75721914361436 -0.71704974617462  0.00416915591559
 6 -7.25595358495850 -0.63059490559056  0.24120182048205
 6 -6.47050106500650 -1.84643333213321  0.43405564186419
 6 -6.60564622632263  0.60555138503850  0.15080652545255
 6 -5.29464940654065  0.86114815151515  0.04032970277028
 6  11.97877712461246  0.15064509400940  1.23245277337734
 6  11.77316460656066 -0.64873102830283 -1.36047992769277
 6  12.84771199929993 -1.10928515821582  1.42970770417042
 6  13.52997768446845 -1.68058259165917  0.23159712411241
 6  12.64991992669267 -1.87896240524052 -0.94133809630963
 6  11.12474936283628 -0.02400765286529  0.02021920222022
 6  11.05356676157616  0.39335597759776  2.53952629282928
 6  12.91801491819182  1.35711893269327  1.20527357835784
 6  12.47045335153515  0.39373824712471 -2.03760770857086
 6 -4.68785528122812  2.10794330033003 -0.06987183608361
 6  9.91283247074707  0.36573737653765 -0.01865304200420
 6 -3.38541369976998  2.41389014271427 -0.34137439813981
 6  8.66801658765877  0.90998733253325 -0.31423576357636
 6 -2.95845753085309  3.81508296779678 -0.55688542064206
 6 -2.41830874597460  1.47094894359436 -0.24590712541254
 6  7.46642618511851  0.09446003400340  0.05584640054005
 6  7.67184192069207 -1.36191314341434  0.55899582248225
 6  6.20272162016202  0.63729065936594 -0.01262519851985
 6 -1.00374450595060  1.79524864856486 -0.24433260836084
 6  4.90201180398040  0.08829794589459  0.18863023182318
 6  0.03468994799480  0.81846515641564 -0.20937003980398
 6  3.77759716741674  0.83776412681268 -0.07794526352635
 6  1.39199113991399  1.18840056775678 -0.18938131903190
 6  2.46388428892889  0.29267856755676 -0.08770541264126
 6  2.37782764446445 -1.09525370567057  0.25960455405541
 1 -13.03229503030303 -2.74351732953295 -1.15993121712171
 1 -13.74438966266627 -1.39069305350535 -1.74373082778278
 1 -13.79383718591859  0.22857992679268  2.05589827252725
 1 -14.01090048364837  0.57193232033203  0.37380504610461
 1 -14.65936324042404 -1.47794650805080  0.25404700900090
 1 -10.65433405030503 -2.79116589938994 -1.70619591499150
 1 -11.60589079797980 -2.38138292969297 -3.01105939213921
 1 -9.99416159965997 -1.47669687828783 -2.63752536503650
 1 -9.46782543734373  1.17769990099010 -0.85173898399840
 1 -10.07312864046405  0.34584584868487  2.16460220302030
 1 -11.72648800970097  0.33674037563756  3.06691504160416
 1 -11.49429012271227 -1.17093396989699  2.11760254995500
 1 -12.16219876237624  2.31504762676268 -0.13361014501450
 1 -12.78089432883288  2.24777035253525  1.21963567536754
 1 -11.00037031913191  2.34838542904290  1.42358665216522
 1 -12.14388746124612 -2.45474834843484  1.17723220212021
 1 -9.05886672857286 -1.64304266196620  0.30723982288229
 1 -6.00068951505150 -2.29310263536354 -0.58729677407741
 1 -5.44188660396040 -1.91700693329333  1.07720611681168
 1 -7.03944405500550 -2.64447672067207  0.93528967976798
 1 -7.15811712281228  1.51017934703470  0.18166849034904
 1 -4.67943458815882  0.06657527592759 -0.08805258095810
 1  13.73509918701870 -0.74729641704170  2.02394733533353
 1  12.23762893989399 -1.96151553155316  1.89149514921492
 1  13.75599795669567 -2.74652631763176  0.51908883478348
 1  13.24690212871287 -2.16190266876688 -1.80938403310331
 1  11.75321532973297 -2.60199932383238 -0.53917926002600
 1  11.59171878007801  0.34563493019302  3.43599863856386
 1  10.52561953965396  1.34292985608561  2.59057658185819
 1  10.39891751295130 -0.46911522602260  2.64982122332233
 1  13.61060796269627  1.44311293549355  0.32190625542554
 1  12.31241385458546  2.29446888468847  1.22356706240624
 1  13.59720555765577  1.07526200530053  1.99358584018402
 1  12.77315813531353 -0.06108271787179 -2.98012046394639
 1  11.89050611901190  1.30359245014501 -2.14702263716372
 1  13.56052688528853  0.57163321622162 -1.65812129752975
 1 -5.48810103400340  2.95891027782778 -0.00454186498650
 1  10.09357060766077 -0.58429708730873 -2.13056539233923
 1  15.13048589378938 -0.75855566996700  0.52484108340834
 1  8.57045889668967  1.95958828602860 -0.61280855805581
 1 -2.37216230043004  4.12851930163016  0.29410524022402
 1 -2.40326909120912  3.99512673747375 -1.46573968306831
 1 -3.88170455555556  4.47563574537454 -0.62465226672667
 1 -2.68431805190519  0.39703191519152 -0.04987794239424
 1  6.75846859675968 -1.89470903300330  0.69593207790779
 1  8.34195941044104 -1.94420914571457 -0.14913568766877
 1  8.30386030763076 -1.50645297369737  1.34684844574457
 1  6.18080322742274  1.62706651205121 -0.22231425112511
 1 -0.77262861986199  2.73944798829883 -0.34244415591559
 1  4.72504849124913 -1.01760825752575  0.52788546964696
 1 -0.24097302050205 -0.26886869976998 -0.21125851475147
 1  3.83183235113511  1.80372600880088 -0.36835906090609
 1  1.52238911411141  2.21143693559356 -0.17469016741674
 1  1.30176901170117 -1.49386599079908  0.24670366596660
 1  2.93510483528353 -1.64966126762676 -0.30327809780978
 1  2.80704740114011 -1.16833106210621  1.22347563416342
=======
>>>>>>> 6a1b998aacd80a23911c140f266e48a14f2d523d

