%nproc=3
%Mem=2GB
# td=(NStates=1) CAM-B3LYP/6-31G(d,p) 

TD

0 1
 8 -11.73231989958996  0.18696934533453 -1.54437160076008
 8 -12.93425426122612 -2.41061936993699  1.40809649464946
 8  10.57188270817082 -1.13568345624562 -2.07565129142914
 8  14.50285365206521 -1.01265998749875 -0.08662314971497
 6 -11.02708087528753 -0.18574252895290 -0.34447387178718
 6 -11.65765205490549 -1.21023220312031 -1.27233607390739
 6 -11.70435247824782  0.31878856165617  0.98724837983798
 6 -13.00467567126713 -1.79492965086509 -0.91712334633463
 6 -13.20409886788679 -0.09721716931693  0.84855954385439
 6 -13.49170560406041 -1.47829936773677  0.48440720802080
 6 -10.80639622832283 -2.00650606810681 -2.21140345864586
 6 -9.59504894869487  0.01707884168417 -0.46263322142214
 6 -11.08821479887989 -0.00439603560356  2.26150121722172
 6 -11.69250963126313  1.88003310641064  0.82445053675368
 6 -8.65595901760176 -0.78691673287329  0.11406014501450
 6 -7.25068305790579 -0.64581642774277  0.02446014631463
 6 -6.26479049394939 -1.74610329912991  0.20878311461146
 6 -6.61119678137814  0.64436526642664  0.11064250905091
 6 -5.20678061966197  0.94938697539754  0.01513718351835
 6  11.91078032493249  0.04483451295130  1.28356788488849
 6  11.68126541664166 -0.61634778997900 -1.26931081078108
 6  12.52870009810981 -1.31158538823882  1.45111984538454
 6  13.30559524622462 -1.79408394179418  0.22513647804780
 6  12.44745968066807 -1.81766627562756 -0.98163212571257
 6  11.02626951485149  0.06173092099210 -0.01293411311131
 6  11.04379578447845  0.38412505450545  2.53110545074507
 6  12.98540165686569  1.10762398319832  1.37298034903490
 6  12.39897620382038  0.44130300360036 -2.15107905570557
 6 -4.67754425012501  2.22254476047605 -0.15990083898390
 6  9.89637082458246  0.55434623742374  0.02351117441744
 6 -3.36936209460946  2.54610336403640 -0.32157241794179
 6  8.65220500650065  0.88624495829583 -0.16925126512651
 6 -3.04216590169017  3.98335979547955 -0.79140887298730
 6 -2.30167708280828  1.64009585828583 -0.21738427312731
 6  7.41229077157716  0.04983557155716  0.03870468636864
 6  7.61364610111011 -1.48296524862486  0.30608053095310
 6  6.27268861686169  0.65709263956396 -0.05272920892089
 6 -1.05213934543454  1.91908103180318 -0.38759693479348
 6  4.98715031783178  0.13456257235724  0.11797316611661
 6  0.04402088108811  1.08104141404140 -0.04508361116112
 6  3.79335874357436  0.82225257565757 -0.09747721672167
 6  1.41665360616062  1.26890861856186 -0.16853923482348
 6  2.47600550105010  0.42123142284228  0.08604196209621
 6  2.18174803650365 -1.04879906020602  0.36309490309031
 1 -13.01799360016001 -2.93874685248525 -0.86231145514551
 1 -13.76559178287829 -1.44771875607561 -1.64817127182718
 1 -13.58346614881488  0.29336640544054  1.70969365206521
 1 -13.73828322192219  0.64599972707271  0.10153781938194
 1 -14.65304260836084 -1.74164287768777  0.80735233953395
 1 -10.25904452135213 -2.84896167896790 -1.88645394079408
 1 -11.67519772867287 -2.23300809220922 -2.98033631983198
 1 -10.10771295479548 -1.07234644324432 -2.67287890039004
 1 -9.33204185898590  0.87097922892289 -1.00338414851485
 1 -10.12267359495950  0.51666293039304  2.38689443224322
 1 -11.79742510341034  0.33880058165817  3.04517286738674
 1 -10.99905059875987 -1.00909778627863  2.26853764346435
 1 -12.16059860236024  2.20440656265627 -0.02080886488649
 1 -12.22035827522752  2.36350192569257  1.67952166396640
 1 -10.70261054315432  2.20667125762576  0.85731002450245
 1 -11.97315038753875 -2.24012688628863  1.51489596849685
 1 -9.23457429932993 -1.51083944164416  0.49525862476248
 1 -5.61671111721172 -2.10377370247025 -0.85555359975998
 1 -5.61089350465046 -1.47750298289829  0.84641303750375
 1 -6.71619172977298 -2.83699597259726  0.47557370817082
 1 -7.37164847594759  1.53305163426343  0.13367369086909
 1 -4.44159080378038  0.05709432783278 -0.19604338003800
 1  13.34267994509451 -1.20411209860986  2.36533147374737
 1  11.68561373837384 -2.08518789878988  1.54762076177618
 1  13.60128248514851 -2.91014267926793  0.45207213311331
 1  12.98477591609161 -2.22452893139314 -1.84894798949895
 1  11.90103011121112 -2.65293441734173 -0.81364670677068
 1  11.64961456965697  0.24894526122612  3.40667570627063
 1  10.51437841554155  1.35138070117012  2.13577110131013
 1  10.13666128732873 -0.43061137563756  2.33775001620162
 1  13.60412731463146  1.16038466266627  0.60627469226923
 1  12.50614322752275  2.20524996279628  1.46269097479748
 1  13.64211004810481  1.06415089418942  2.36812329392939
 1  12.74915573507351  0.01659504990499 -3.12413486538654
 1  11.72006907530753  1.27977006790679 -2.29731766666667
 1  13.40384121672167  0.62323837673767 -1.62660814621462
 1 -5.46144836873687  2.99239362616262  0.03547213641364
 1  10.15664691529153 -0.24300295789579 -2.35617795359536
 1  15.08146099129913 -1.11105091949195  0.72660125942594
 1  8.57703955475548  1.95212753995399 -0.29477675487549
 1 -2.28448353255326  4.62128857855786 -0.02586675697570
 1 -2.35538430273027  3.95189241404140 -1.80763387248725
 1 -3.94485087018702  4.44406258805881 -0.89630943244324
 1 -2.66503612371237  0.82548476047605  0.09108615401540
 1  6.68919166906691 -1.98539810191019  0.09329181388139
 1  8.35821103560356 -1.81362608740874 -0.32193296739674
 1  7.86088601020102 -1.74389671807181  1.34411817271727
 1  6.11694684178418  1.73585739113911 -0.43821584128413
 1 -0.63646500350035  2.98484252775278 -0.52771268276828
 1  4.78518450485049 -0.87081357805781  0.53704638573857
 1 -0.31034995819582  0.13080126722672  0.46430904200420
 1  3.88432760066007  1.77633326952695 -0.70931315631563
 1  1.87202407760776  2.24674046594659 -0.31782448084808
 1  0.96022485728573 -1.27679428362836 -0.07503850825082
 1  2.86225755055506 -1.49497579907991 -0.23505127512751
 1  2.24016071247125 -1.28529275827583  1.50787407400740

