%nproc=3
%Mem=2GB
# td=(NStates=1) CAM-B3LYP/6-31G(d,p) 

TD

0 1
<<<<<<< HEAD
 8 -11.80107677527753  0.25940658905891 -1.47417458105811
 8 -13.30105094089409 -2.50858916691669  1.47961364636464
 8  10.66757227712771 -1.15021490939094 -2.02781650795079
 8  14.55360872757276 -1.03425214671467 -0.04108859625963
 6 -11.02533070027003 -0.25449940464046 -0.28022744714471
 6 -11.73637992769277 -1.14377555745575 -1.26323516381638
 6 -11.75902794579458  0.30504718751875  1.09390904590459
 6 -13.15755095879588 -1.70708086598660 -0.88976061006101
 6 -13.24237269526953  0.00439299169917  0.94659934783478
 6 -13.61711814531453 -1.45096663446345  0.60539930723072
 6 -10.97568315701570 -1.98868428592859 -2.19991230953095
 6 -9.57644708850885  0.03247038083808 -0.38594555265527
 6 -11.09453543094309 -0.42071766776678  2.31451651875188
 6 -11.59966034633463  1.84968007110711  1.16660475217522
 6 -8.59962338403840 -0.86437447864786  0.10198893789379
 6 -7.24489247884789 -0.60122196829683  0.01858955925593
 6 -6.24932894779478 -1.68745743454345  0.20847308360836
 6 -6.63528919061906  0.70427125702570 -0.12511106630663
 6 -5.24847478907891  0.95739777647765 -0.29642397259726
 6  11.88316756365637  0.01450147964796  1.45572510061006
 6  11.70635792589259 -0.69777593279328 -1.12630651035104
 6  12.74945217331733 -1.30338456815682  1.66873160656066
 6  13.44969965666567 -1.91752628602860  0.37643160756076
 6  12.43471840654065 -1.98072258125813 -0.75481944444444
 6  11.12885977387739  0.01712646054605  0.05090227052705
 6  11.02111351625162  0.31063770577058  2.64197653785379
 6  12.87501061776178  1.28653187398740  1.38863191419142
 6  12.67527383358336  0.15624449774978 -1.94488843664366
 6 -4.71372786848685  2.21503400940094 -0.23012786168617
 6  9.96079726722672  0.51073187598760 -0.08791996869687
 6 -3.31708686708671  2.61158991269127 -0.45368562926293
 6  8.72775256125612  1.00156649044905 -0.15723006300630
 6 -3.00993267836784  3.98269972947295 -0.41967169926993
 6 -2.35221213631363  1.67185903460346 -0.34065660036004
 6  7.51709125162516  0.24656524452445 -0.13149233333333
 6  7.68978371487149 -1.18355530763076  0.22922284518452
 6  6.26578792679268  0.91190812111211 -0.24776871287129
 6 -0.98519265076508  1.92824194789479 -0.38359653475348
 6  4.92707431023102  0.25562467856786 -0.19937856905691
 6  0.02900937993799  0.97222053195320 -0.33544264706471
 6  3.69835924362436  0.93289363976398 -0.35972344134413
 6  1.35109705050505  1.11151287898790 -0.39984236513651
 6  2.45301320182018  0.28715801550155 -0.24685132723272
 6  2.33854371607161 -1.15868004830483  0.14626321992199
 1 -13.15779758055806 -2.81967494529453 -1.30626585058506
 1 -14.08678390209021 -1.03858784298430 -1.38639509420942
 1 -13.88384618681868  0.25844291309131  1.99057173987399
 1 -13.76565595919592  0.75974110121012  0.14468213381338
 1 -14.71855916001600 -1.37497621102110  0.39099070337034
 1 -10.51591020792079 -2.86623340614061 -1.44145944134414
 1 -11.53872408130813 -2.51032582398240 -3.02269055525553
 1 -10.16731891539154 -1.49049825842584 -2.57253886638664
 1 -9.45290394519452  1.02271440244024 -0.75490930103010
 1 -10.04697602520252 -0.08840757665767  2.42372811561156
 1 -11.79614497539754  0.06278297989799  3.19617796789679
 1 -11.21499219291929 -1.45734261076108  2.24905569526953
 1 -12.27238978147815  2.51847796979698  0.41504472047205
 1 -11.89102534193419  2.07919349484949  2.21686539833983
 1 -10.46512679477948  2.13497408790879  1.22725701920192
 1 -12.40459353185319 -2.54824769836984  1.72671715061506
 1 -8.90207104900490 -1.89266762446245  0.24691379027903
 1 -5.71643108920892 -1.80702402750275 -0.72631067546755
 1 -5.57052946824682 -1.57028226082608  1.10701909810981
 1 -6.88661877247725 -2.69678195119512  0.17241339213921
 1 -7.29357066816682  1.61342967206721 -0.10290996749675
 1 -4.59083572827283  0.06115473387339 -0.38642241794179
 1  13.51745742284228 -1.00462214961496  2.46547148774878
 1  12.07582275927593 -2.17637701770177  2.04533053275327
 1  13.79886224312431 -3.03297496249625  0.45770269616962
 1  13.18388582708271 -2.11931841034103 -1.54192728742874
 1  11.80872088028803 -2.78054717861786 -0.53801914401440
 1  11.62537214541454  0.40348071477148  3.42760779947995
 1  10.27348432613261  1.35530109320932  2.62384990919092
 1  10.31827944914491 -0.45172348684868  2.74871111231123
 1  13.60443734563456  1.34303292749275  0.73243730853085
 1  12.46858947214722  2.22333177097710  1.36786149184918
 1  13.39483532063206  1.21409588868887  2.39517599919992
 1  13.25366618611861 -0.28211482108211 -2.87607005890589
 1  12.22259932833283  1.23923601450145 -2.31895983088309
 1  13.45858669126913  0.51755780868087 -1.31180666606661
 1 -5.31601382528253  3.15864025082508 -0.22405381618162
 1  10.21378262886289 -0.24874353195320 -2.22452478827883
 1  15.17835068026803 -0.69330914531453  0.58066666596660
 1  8.56895874667467  2.11801412861286 -0.51986926412641
 1 -2.31201628582858  4.16167261696170  0.49694552425242
 1 -2.57579634393439  4.42296952175217 -1.36445955505551
 1 -3.97069345444544  4.81688987078708 -0.14030383188319
 1 -2.76101572167217  0.74565677767777 -0.01362431703170
 1  6.68409115901590 -1.70944050615061  0.48108059275928
 1  8.27170238473847 -1.69144386918692 -0.64433520762076
 1  8.43781370297030 -1.14569689808981  1.11658541944194
 1  6.25809095619562  1.78341214661466 -0.52630465016502
 1 -0.67103846084609  2.95422946644665 -0.67336724822482
 1  4.97893387978798 -0.81195769246925  0.12605528662866
 1 -0.40556948014801 -0.07874968786879 -0.21810919981998
 1  3.66626579447945  1.88421405760576 -0.96316854185418
 1  1.70158703390339  2.30197598949895 -0.63274597299730
 1  1.19504833963396 -1.40533713791379  0.01658065366537
 1  2.86498782358236 -1.70896719821982 -0.72915068506851
 1  2.74716141254125 -1.34383861286129  0.97975126172617
=======
>>>>>>> 6a1b998aacd80a23911c140f266e48a14f2d523d

