%nproc=3
%Mem=2GB
# td=(NStates=1) CAM-B3LYP/6-31G(d,p) 

TD

0 1
 8 -11.74503117071707  0.28013866226623 -1.45308247184718
 8 -13.09526036183618 -2.44036234423442  1.34105979097910
 8  10.69031455135514 -1.03859374727473 -2.17418114441444
 8  14.55855922262226 -1.07452617411741 -0.05402989038904
 6 -11.07134530173017 -0.17578153285329 -0.27325675007501
 6 -11.82092838253825 -1.13287446734673 -1.19228806910691
 6 -11.84525656865686  0.31988867166717  1.04590424542454
 6 -13.10782598629863 -1.75882604050405 -0.89679131313131
 6 -13.30291874987499 -0.01826927452745  0.83312800070007
 6 -13.65516194969497 -1.45333687148715  0.42616138343834
 6 -10.87094268296830 -1.95491090859086 -2.23346566486649
 6 -9.63539298309831  0.01481861566157 -0.35572253035304
 6 -11.09099507690769 -0.17192278827883  2.32593766086609
 6 -11.73042342264226  1.81645674877488  0.95482357405741
 6 -8.70898432013201 -0.78523656485649  0.11855059405941
 6 -7.26884487408741 -0.65921776787679  0.14683238353835
 6 -6.40933494839484 -1.87330601940194  0.35331756805681
 6 -6.74432009370937  0.65172600250025  0.00331177597760
 6 -5.32030197179718  0.86680871757176 -0.12772710291029
 6  11.93903315021502  0.00563059255926  1.34884441254125
 6  11.69567685778578 -0.62874903010301 -1.22391627132713
 6  12.69339656775677 -1.32572680238024  1.53891862526253
 6  13.40161484818482 -1.83783831723172  0.30741470587059
 6  12.35321025572557 -1.91299580858086 -0.90493445594559
 6  11.11003789168917  0.01712646054605  0.06452363266327
 6  11.03936534143414  0.29650629262926  2.66128846904691
 6  12.90055317201720  1.21955517631763  1.31215426642664
 6  12.65949225542554  0.29518839213921 -2.00879482728273
 6 -4.83291978767877  2.15563806980698 -0.33986883578358
 6  9.94489567706771  0.57799860266027  0.03145196849685
 6 -3.37756291469147  2.48630738443844 -0.35992625332533
 6  8.76037582358236  0.94995132893289 -0.14448878887889
 6 -3.07479916501650  3.92401386088609 -0.70647037913791
 6 -2.38040495559556  1.61615346404640 -0.21224375907591
 6  7.55234477697770  0.14258484648465 -0.10281946604660
 6  7.72535727222722 -1.33344029612961  0.39883980688069
 6  6.37311865986599  0.81633856415642 -0.21604554055406
 6 -1.06277040854085  1.85523464716472 -0.30811898699870
 6  4.98793039583958  0.21088020412041 -0.11023965516552
 6  0.13640011901190  0.97870118001800 -0.17173627642764
 6  3.84818422612261  0.98076842724272 -0.24073154215422
 6  1.49467140794079  1.35229695739574 -0.17230961186119
 6  2.51038893939394  0.45443474317432 -0.15969261136114
 6  2.40289015071507 -1.04604878517852  0.19378797239724
 1 -13.33716551735174 -2.84194717251725 -0.78081330533053
 1 -13.66595181888189 -1.54777876207621 -1.87189364406441
 1 -13.99346714891489  0.28093516231623  1.74541722442244
 1 -13.71938133173317  0.70503563066307  0.08977664326433
 1 -14.57120442454245 -1.53437215061506  0.38402000630063
 1 -10.72880149704971 -2.77479426222622 -1.81287658305831
 1 -11.48878908780878 -1.96517130853085 -3.16777506370637
 1 -9.77381956545655 -1.50401961056106 -2.51543315581558
 1 -9.24844349914992  0.81831396239624 -1.01367517761776
 1 -10.12759408700870  0.09495075917592  2.24690043284328
 1 -11.54258961986199  0.41029773137314  3.08254660476048
 1 -11.31161185488549 -1.32185906240624  2.62240303000300
 1 -12.08035057755776  2.16131225322532  0.18067128312831
 1 -12.20758699809981  2.29618519401940  1.87358106990699
 1 -10.62204248634863  2.12092268276828  0.95540983448345
 1 -12.10931400390039 -2.41154402800280  1.18197267616762
 1 -9.03575441734173 -1.61470982868287  0.55251435033503
 1 -6.01795124122412 -2.31882520762076 -0.62893093749375
 1 -5.72330474577458 -1.47590282288229  0.98750714691469
 1 -6.90696080668067 -2.55332760576058  0.96435258605861
 1 -7.37178848994899  1.47159548864887  0.08765908940894
 1 -4.49217586228623 -0.04039542114211 -0.01196497219722
 1  13.35295097219722 -1.12230391779178  2.42003694429443
 1  11.97830300730073 -2.34515389538954  1.69835583528353
 1  13.75460781768177 -2.80692235723572  0.54340126602660
 1  12.80283772227223 -2.47973445194519 -1.81978507320732
 1  11.54320432863286 -2.69455857975798 -0.61998734083408
 1  11.55324493269327  0.32311267796780  3.59797483618362
 1  10.51979895759576  1.21853741684168  2.23893141734173
 1  10.38451607280728 -0.68375669016902  2.95813205440544
 1  13.86704360626063  1.14598322252225  0.58014207900790
 1  12.30022263546355  2.08574801260126  1.24661936763676
 1  13.43484932203220  1.17395187428743  2.30593707530753
 1  12.98550937043704 -0.07883449304931 -2.94770722262226
 1  12.13675074347435  1.07177926882688 -2.41923985888589
 1  13.35241607420742  0.76035208810881 -1.29137462286229
 1 -5.51977420132013  3.17240162696270 -0.23216462726273
 1  9.86505775637564 -0.27684634223422 -2.09368170397040
 1  15.13901674687469 -0.91876169056906  0.73083168246825
 1  8.60075192599260  2.03812613981398 -0.60017729492949
 1 -2.59898498269827  4.65549199889989  0.04307013671367
 1 -2.42879164346435  4.08186541134114 -1.52470557965797
 1 -3.93156954205421  4.55104328612861 -0.93502330383038
 1 -2.52640226032603  0.68403061506151 -0.05410836543654
 1  6.75217796769677 -1.80071963406341  0.16048853355336
 1  8.68850406490649 -1.90197492229223 -0.02259303340334
 1  8.01353127472747 -1.58562089048905  1.40528428932893
 1  6.40792593969397  1.91969577497750 -0.48966098579858
 1 -0.74755611261126  2.96234027752775 -0.40116002750275
 1  5.05399138553855 -0.92236873357336 -0.15135245414541
 1 -0.24919384258426  0.09505769286929 -0.08189557845785
 1  3.95682485038504  1.97484312051205 -0.38587081208121
 1  1.80201707690769  2.27660345224522 -0.31666436483648
 1  1.46991582638264 -1.41618822302230  0.34385338093809
 1  2.96434775957596 -1.63813011451145 -0.44274204420442
 1  2.94232092849285 -1.16987121612161  1.02625591219122

