%nproc=3
%Mem=2GB
# td=(NStates=1) CAM-B3LYP/6-31G(d,p) 

TD

0 1
 8 -11.66300296789679  0.19795044344434 -1.59391655525553
 8 -12.96141697749775 -2.30179848784879  1.40012569756976
 8  10.56501202110211 -1.08971885978598 -2.05358908520852
 8  14.49044241094109 -0.95186390789079 -0.31607609500950
 6 -11.06321448864886 -0.20401435613561 -0.32794221862186
 6 -11.72071836153615 -1.24472565246525 -1.20272911321132
 6 -11.78687073007301  0.35533221602160  0.92922257725773
 6 -13.13473867756776 -1.88082824072407 -1.00027166116612
 6 -13.25193365136514 -0.03612105970597  0.86073076097610
 6 -13.63445987948795 -1.46479801760176  0.40466923422342
 6 -10.85325091379138 -2.03812923042304 -2.17658997729773
 6 -9.57400684448445  0.03388052185219 -0.35533249134914
 6 -11.14757073447345 -0.09535513151315  2.11472653975398
 6 -11.66211659195920  1.85624072717272  0.92595068676868
 6 -8.65853927562756 -0.67528556975698  0.18677741674167
 6 -7.18472646224622 -0.50222206830683  0.29283698399840
 6 -6.27009102400240 -1.69328801760176  0.51255349164916
 6 -6.63182884458446  0.75558638853885  0.04526597139714
 6 -5.25199514111411  1.07834987168717 -0.16464079427943
 6  12.00491973887389  0.04412444194419  1.20190971907191
 6  11.65823311341134 -0.59905606080608 -1.23697757745775
 6  12.76318354645464 -1.24618884858486  1.42164689808981
 6  13.45086977367737 -1.76311084448445  0.16572053645365
 6  12.46030096479648 -1.86848135713571 -0.92632659515952
 6  11.08421530943094 -0.04799005110511  0.02262944324432
 6  11.09940134503450  0.08191483348335  2.52943528372837
 6  12.91766488318832  1.25764898569857  1.22003505450545
 6  12.47760406660666  0.47306617991799 -2.04922887068707
 6 -4.69163565926593  2.21947445344534 -0.32182703160316
 6  9.88240942844284  0.49659046184618 -0.02081325802580
 6 -3.37711286968697  2.55090384408441 -0.54370463116312
 6  8.64318410441044  0.96582291609161  0.13505916591659
 6 -3.07677936303630  3.97102856235624 -0.83070280238024
 6 -2.33032994809481  1.62633448214821 -0.22153468816882
 6  7.47767731023102  0.08346893489349  0.13877469336934
 6  7.71397613411341 -1.43672062416242  0.30497041994199
 6  6.24177552555255  0.75423235353535  0.15618168216822
 6 -0.96955108660866  1.84292341604160 -0.31244942004200
 6  4.91648325112511  0.07644676077608  0.19491085988599
 6  0.00396687568757  0.80350366026603 -0.15112421522152
 6  3.71751115881588  0.83712406280628 -0.00786825582558
 6  1.44559650045005  1.26743847154715 -0.14114649554955
 6  2.49673757425743  0.33487278697870  0.00024338223822
 6  2.21162102380238 -1.13310749104910  0.20402899649965
 1 -13.08965076587659 -2.88819179697970 -1.04063928792879
 1 -13.86276149984998 -1.48624260846085 -1.80578703340334
 1 -13.77563536573657  0.14459152795280  1.85304798749875
 1 -13.52729212281228  0.48385351245124 -0.05538787318732
 1 -14.67514481858186 -1.71960067346735  0.46076768106811
 1 -10.82765138203820 -3.10336711951195 -1.78070336573657
 1 -11.26010621952195 -2.19863465486549 -3.29513779998000
 1 -9.76385856935694 -1.63904311291129 -2.14068568106811
 1 -9.28508716351635  0.82885501650165 -1.02388619871987
 1 -10.25896722432243  0.39425068916892  2.27917366016602
 1 -11.94540990189019  0.03356005760576  2.95627397749775
 1 -10.98982967666767 -1.14834171067107  1.98546933663366
 1 -11.95035757825783  2.34943106510651 -0.02868965296530
 1 -12.25068130753075  2.28241381688169  1.82733644544454
 1 -10.62218250035004  1.98029862036204  0.94201849534954
 1 -12.05487856035604 -2.45247812141214  1.14870934983498
 1 -8.93929477137714 -1.70458881658166  0.55286438533853
 1 -5.93400284638464 -1.98915224032403 -0.44880292469247
 1 -5.47065948124813 -1.34911014361436  1.18328672487249
 1 -6.98423853445345 -2.48803107610761  0.99878602940294
 1 -7.37203851495150  1.49067739683968 -0.17345702220222
 1 -4.59941658635864  0.10000861926193 -0.18727250295029
 1  13.53093877097710 -1.24264595199520  2.23385832643264
 1  12.13400857785779 -2.00948032803280  1.70886688638864
 1  13.76214857175718 -2.86771843684368  0.44761168706871
 1  12.84024146264627 -2.07509398789879 -1.81069416411641
 1  11.68748875707571 -2.79028815271527 -0.67786312841284
 1  11.65152476067607  0.02811317801780  3.50181522022202
 1  10.50416739443944  0.97488305140514  2.77867539173917
 1  10.32720034123412 -0.72062037653765  2.49011525272527
 1  13.50877777967797  1.24651327552755  0.24587865266527
 1  12.33883649684969  2.38882832063206  1.04263896959696
 1  13.44380021712171  1.39432391149115  2.12160864246425
 1  12.76576739623962  0.05388877927793 -3.08867131903190
 1  12.06039310771077  1.50276236713671 -2.22855078997900
 1  13.45139597219722  0.73697975087509 -1.50168565396540
 1 -5.45525774967497  2.99911429822982 -0.29301071187119
 1  9.88567981858186 -0.34776343394339 -2.15231756755676
 1  15.12282512771277 -0.83411322572257  0.38938753805381
 1  8.59638148894889  1.98971129832983 -0.23304058125813
 1 -2.50291537573757  4.40797724742474  0.24257008670867
 1 -2.68330709500950  4.27372459725973 -1.89699280838084
 1 -3.89929631473147  4.58805698749875 -0.72442224372437
 1 -2.61219083918392  0.74212642464246  0.08731577697770
 1  6.81549429932993 -2.02434199629963  0.03476596129613
 1  8.65930114461446 -1.86203092789279 -0.32137291139114
 1  8.16566648824882 -1.63689601800180  1.29954371527153
 1  6.30246539363936  1.77049085448545 -0.04997701740174
 1 -0.73291464846485  2.76920096359636 -0.71564147564756
 1  4.84159014541454 -1.01704820152015  0.34982766386639
 1 -0.40473939713971 -0.23514532743274  0.06286889798980
 1  3.82116128402840  2.09602523872387 -0.16068829382938
 1  1.49345622082208  2.30174596649665 -0.24833753215322
 1  0.97417625242524 -1.35747235143514 -0.13601460586059
 1  2.93159448424842 -1.60302660416042 -0.51513928392839
 1  2.30481717811781 -1.42998722772277  1.34848813541354

