%nproc=3
%Mem=2GB
# td=(NStates=1) CAM-B3LYP/6-31G(d,p) 

TD

0 1
 8 -11.69997666526653  0.30796144454445 -1.49618678227823
 8 -12.97058789458946 -2.46640494849485  1.37630331533153
 8  10.50604612451245 -1.02863275117512 -2.02264599089909
 8  14.48010137683768 -1.02945166666667 -0.27044153155316
 6 -11.09298746594659 -0.03287724242424 -0.23261268566857
 6 -11.52328861856186 -1.09352053195320 -1.24519335963596
 6 -11.85647769076908  0.32105878867887  0.97484713971397
 6 -12.98391359505951 -1.80067022492249 -0.92336397039704
 6 -13.37476593459346 -0.10700814841484  0.89586427432743
 6 -13.58319475297530 -1.55389692749275  0.43364213151315
 6 -10.66294188288829 -1.91087650515051 -2.04769708800880
 6 -9.57111655545554  0.09533666746675 -0.26909386748675
 6 -11.21196717411741 -0.14722031803180  2.34085915301530
 6 -11.81890227052705  1.91396649974998  1.00018811051105
 6 -8.64078750045005 -0.64296233743374  0.34823356235624
 6 -7.23881187078708 -0.49485133123312  0.29331703200320
 6 -6.32831684658466 -1.71598028682868  0.49990222652265
 6 -6.68737439913991  0.68214904480448 -0.12141069626963
 6 -5.33307324892489  0.87732976967697 -0.16969129932993
 6  11.93249249614962  0.00429045854585  1.48999852795280
 6  11.59437672777278 -0.63936009120912 -1.17153103280328
 6  12.75489271737174 -1.33756798649865  1.63924865826583
 6  13.36332101880188 -1.72072660606061  0.24614857925793
 6  12.31712664736474 -1.85116962596260 -0.87867182968297
 6  11.04973186108611  0.05138988688869  0.13280046034603
 6  10.94974637953795 -0.00954431243124  2.67506984718472
 6  12.91733485018502  1.15672889368937  1.58467151815181
 6  12.55030133633363  0.39255812911291 -1.96007995579558
 6 -4.72567906360636  2.08097060306031 -0.44265911481148
 6  9.93016420392039  0.58161896469647  0.15104392769277
 6 -3.36583174157416  2.50071882558256 -0.46036629732973
 6  8.69673945994599  1.07230356415642 -0.12732707270727
 6 -3.05050673577358  3.88348980848085 -0.89732946504650
 6 -2.31209812491249  1.50386223492349 -0.18266080078008
 6  7.49195873837384  0.25668625662566 -0.03445262936294
 6  7.72254699119912 -1.25902285438544  0.30433035593559
 6  6.28047939593959  0.79271620192019 -0.19842377837784
 6 -1.00661479297930  1.78994811851185 -0.29442761786179
 6  4.98145974877488  0.12664178027803 -0.19721835303530
 6  0.05855233423342  0.93159646954695 -0.27895699849985
 6  3.84036344404440  0.82419276967697 -0.34988245724572
 6  1.40745268606861  1.22423415111511 -0.31843422432243
 6  2.56766466696670  0.35479477917792 -0.36267290939094
 6  2.39721958365837 -1.15980016031603 -0.11807321372137
 1 -12.89357115791579 -2.95385836363636 -1.17785300930093
 1 -13.69697492119212 -1.47759174337434 -1.55320177487749
 1 -13.79802760496050  0.04597166596660  1.85405808850885
 1 -13.87942733633363  0.51523665076508  0.19044671027103
 1 -14.66786409050905 -1.74722343574357  0.33445504980498
 1 -10.33824244114411 -2.85755253805381 -1.61754705010501
 1 -11.13351356025603 -2.27109190059006 -2.96274456065607
 1 -9.68908109160916 -1.47885709430943 -2.38835044754475
 1 -9.31664031883188  0.95722785378538 -0.75555936603660
 1 -10.28579990759076  0.21629289338934  2.47852359515952
 1 -11.68737409830983  0.17560426202620  3.22287063716372
 1 -10.94429512321232 -1.24720159665967  2.42652344204420
 1 -12.39521206370637  2.27414353635364  0.24389760576058
 1 -12.12377861726173  2.37433300880088  1.96188990079008
 1 -10.81574185628563  2.13520411091109  0.83326762026203
 1 -11.99098217071707 -2.53796667026703  1.24214869376938
 1 -9.01063190509051 -1.58852721042104  0.68411751065106
 1 -5.55722516861686 -1.86013933903390 -0.32783082748275
 1 -5.66754917021702 -1.62213744634463  1.50092848904890
 1 -7.07422753335334 -2.63559583258326  0.79436558735874
 1 -7.30521183228323  1.43880220932093 -0.56180585708571
 1 -4.77216386108611 -0.03141452305231  0.34103032733273
 1  13.47649332643264 -1.19160084748475  2.51529647024702
 1  11.92920809780978 -2.12865224522452  1.86806280598060
 1  13.69349170607061 -2.79920158515852  0.21206813271327
 1  12.81994943344334 -2.18290476897690 -1.83671676637664
 1  11.55162517071707 -2.51087021092109 -0.75289063116312
 1  11.46746635483548 -0.02208184148415  3.59599463816382
 1  10.11490846854685  0.90649621272127  2.84988251245124
 1  10.33640126132613 -1.07108542304230  2.62323856505651
 1  13.54231113301330  1.14242286648665  0.58282234703470
 1  12.40761337453745  2.00402984078408  1.54980968666867
 1  13.50883672077208  1.13843832293229  2.57354383598360
 1  12.82307312681268  0.04627801820182 -2.93712616451645
 1  12.03407047544754  1.48259034993499 -2.16002393729373
 1  13.50561139373937  0.56475252815281 -1.16871235663566
 1 -5.51767399129913  2.90209459625963 -0.94632604340434
 1  10.10404165476548 -0.22794145174517 -2.55327766356636
 1  15.09963280848085 -0.99730954535454  0.42049064836484
 1  8.61811366216622  2.07786011321132 -0.34348162536254
 1 -2.68090317451745  4.49166561626163  0.01944777447745
 1 -2.46538530283028  3.91514873967397 -1.74489759885989
 1 -3.81630801590159  4.52043022482248 -1.40663046454645
 1 -2.59753937403740  0.54727693969397 -0.14099705430543
 1  6.70698344824483 -1.65788535063506  0.17131961666167
 1  8.25309052355236 -1.85784050885088 -0.22866364046405
 1  7.87216713831383 -1.27451978037804  1.31071483238324
 1  6.19821496859686  1.87301110651065 -0.30651267096710
 1 -0.78472982998300  2.86944098759876 -0.42501241274127
 1  5.09893587998800 -0.97700419711971  0.09196187728773
 1 -0.27015593879388 -0.13468528142814  0.04916752785279
 1  4.07676684458446  1.91039667586759 -0.34456668166817
 1  1.52235911111111  2.41599739163916 -0.09862256065606
 1  1.25926476127613 -1.56350295449545 -0.24450545494550
 1  2.82423374817482 -1.50819712121212 -1.08687645764576
 1  2.90076677307731 -1.47712194119412  0.93715700230023

