%nproc=3
%Mem=2GB
# td=(NStates=1) CAM-B3LYP/6-31G(d,p) 

TD

0 1
<<<<<<< HEAD
 8 -11.64287095469547  0.34692534093409 -1.49679684328433
 8 -13.15778661446145 -2.55284359235924  1.30383606860686
 8  10.56536205610561 -1.12292218011801 -1.95941966826683
 8  14.52448581528153 -1.16495521702170 -0.22561704910491
 6 -11.03712187938794 -0.07121107580758 -0.33231265566557
 6 -11.52208849854985 -1.11274245414541 -1.20203904420442
 6 -11.80465250825083  0.34060074287429  0.93435309030903
 6 -12.95129033273327 -1.71551170907091 -1.05837747174718
 6 -13.38581703970397 -0.12541998959896  0.81729641754175
 6 -13.60299673317332 -1.55039657745775  0.28901766906691
 6 -10.63967955665567 -1.71268668616862 -2.29165148344834
 6 -9.53688313211321  0.20442757655766 -0.28335529362936
 6 -11.15706168356836 -0.17184278027803  2.24256932403240
 6 -11.87772815311531  1.96171127422742  0.99580767246725
 6 -8.63387680938094 -0.89208724992499  0.08871761076108
 6 -7.17253524312431 -0.68396024212421  0.16979467976798
 6 -6.38294230913091 -1.94603329212921  0.40509274557456
 6 -6.54753041474147  0.52678350825083  0.05746719151915
 6 -5.22244218581858  0.80640267696770 -0.07300163036304
 6  11.94161340824082  0.20406043554355  1.28489801790179
 6  11.69681697179718 -0.65112126732673 -1.26730060976098
 6  12.64650187828783 -1.19080331003100  1.43661839523952
 6  13.39387407410741 -1.83744827822782  0.23346731113111
 6  12.43261819651965 -1.96073058205821 -0.85442940544054
 6  11.16236312421242  0.10122487038704 -0.01542436213621
 6  11.04385579047905  0.42052869486949  2.48021036123612
 6  12.97085020172017  1.27210043084308  1.14527757875788
 6  12.55076138233823  0.26423529682968 -2.25398934673467
 6 -4.75343183888389  2.16220872687269 -0.24951980088009
 6  9.88712990049005  0.47246804960496 -0.13779495619562
 6 -3.43655881428143  2.54662341604160 -0.42306256695670
 6  8.68428821482148  0.94632096589659 -0.18517285728573
 6 -3.02514419951995  3.94337579707971 -0.85457518961896
 6 -2.31827874297430  1.65415726442644 -0.11667420212021
 6  7.38222776527653  0.22586317431743  0.05531634753475
 6  7.59880461696170 -1.28986593869387  0.34154407730773
 6  6.21435278327833  0.74220115041504 -0.01331526752675
 6 -0.95629976147615  1.88140726442644 -0.29865804090409
 6  4.89040064286429  0.09875899199920  0.08245961476148
 6  0.06171265026503  0.99481279117912  0.02792368956896
 6  3.80671007870787  0.85521587198720 -0.04728219721972
 6  1.46688862966297  1.24567629532953 -0.25048742964296
 6  2.49055695619562  0.39504880458046  0.22120547844784
 6  2.28158802050205 -1.00047422772277  0.61401999559956
 1 -12.98065986678668 -2.72821579937994 -1.40845606960696
 1 -13.57827305100510 -1.12239622382238 -1.66124257895790
 1 -14.04306210841084  0.09836690549055  1.61314399709971
 1 -13.90438983258326  0.66968209530953 -0.02367470187019
 1 -14.64998230233023 -1.91134984838484  0.27203880818082
 1 -10.36260487738774 -2.71783856665667 -2.02877817321732
 1 -11.12539274817482 -1.99369416081608 -3.12857114331433
 1 -9.73835601910191 -1.09714892349235 -2.46137775027503
 1 -9.13759241404141  1.27157928892889 -0.33569737983798
 1 -10.14965629322932  0.16473773787379  2.40206594939494
 1 -11.87474283518352 -0.07840113851385  3.07491584168417
 1 -11.01636232993299 -1.25945282178218  2.19202999269927
 1 -12.24190673317332  2.41408753075308  0.00604382038204
 1 -12.56820305970597  2.23297887338734  1.73885759755976
 1 -10.84842512461246  2.43104369486949  1.14775906940694
 1 -12.09079215171517 -2.39272214581458  1.38265274417442
 1 -8.94266510841084 -1.94253261096110  0.39857895679568
 1 -5.88970841694169 -2.41524484958496 -0.43271131553155
 1 -5.62458487378738 -1.93418865146515  1.14056245244524
 1 -7.22732284288429 -2.74037631063106  0.68918506930693
 1 -7.47755906700670  1.17713604270427 -0.17088676517652
 1 -4.63500014471447  0.09621824022402  0.08248447274727
 1  13.24272995009501 -1.17848953635364  2.24286922752275
 1  11.81727690469047 -2.08068744874487  1.52839883958396
 1  13.60058241514152 -2.87101876687669  0.63044997089709
 1  12.80289772827283 -2.40195667416742 -1.71358445314531
 1  11.81369137733773 -2.64422354625463 -0.49016435853585
 1  11.55575518371837 -0.11606123942394  3.32628766746675
 1  10.71052803050305  1.52783834693469  2.74839236343634
 1  10.05740336153615 -0.18331664616462  2.29207544874487
 1  13.76666356825683  1.12260088428843  0.37067113191319
 1  12.55121773497350  2.31790122792279  0.99270397609761
 1  13.53025886298630  1.25664014311431  2.17297377897790
 1  12.84464528402840 -0.30766737633763 -3.13147559945995
 1  12.24069113751375  1.16798888978898 -2.68564649954995
 1  13.25991682428243  0.39287534043404 -1.54512999839984
 1 -5.68159038293829  2.88765315211521 -0.29525093589359
 1  10.02480373097310 -0.36746540414041 -2.18711104690469
 1  15.19743258845885 -1.01810162456246  0.50407900720072
 1  8.66710856165617  2.01769409660966 -0.57501477867787
 1 -2.42365744994499  4.38450490019002  0.01853768346835
 1 -2.41076984128413  3.86375360016002 -1.76323943304330
 1 -3.84246063116312  4.45244342614261 -1.29795959745975
 1 -2.80842046214621  0.64229644164416  0.22530957635764
 1  6.66588933883388 -1.74318388048805  0.09389187388739
 1  8.41246646114612 -1.67119184398440 -0.32201297539754
 1  7.88836875847585 -1.65710803920392  1.33235699659966
 1  6.27337248434843  1.75530933633363 -0.22728474817482
 1 -0.56698805580558  2.81720576407641 -0.51059097059706
 1  4.72030801720172 -0.90140663736374  0.52239492059206
 1 -0.25268419161916  0.07656584368437  0.75032764386439
 1  3.67359652755276  1.83367900410041 -0.30047227222722
 1  1.76645352055205  2.27119291119112 -0.78307100550055
 1  1.18811764656466 -1.27348395259526  0.52313130873087
 1  2.91686301110111 -1.63012931443144 -0.05640341034103
 1  2.74076077247725 -1.37030125912591  1.76500978757876
=======
>>>>>>> 6a1b998aacd80a23911c140f266e48a14f2d523d

