%nproc=3
%Mem=2GB
# td=(NStates=1) CAM-B3LYP/6-31G(d,p) 

TD

0 1
<<<<<<< HEAD
 8 -11.82967963556356  0.51767241564156 -1.25141230483048
 8 -12.99278011381138 -2.57936624462446  1.33158884388439
 8  10.57658317821782 -1.15057494539454 -1.92604633093309
 8  14.42051541824182 -0.87087580908091  0.06728224082408
 6 -11.06832499969997 -0.00350430513051 -0.16213563796380
 6 -11.71204749444944 -0.92495367526753 -1.21510035033503
 6 -11.64661670467047  0.24622130493049  1.32764241924192
 6 -13.09801500520052 -1.57851800970097 -1.00160179417942
 6 -13.12239069706971 -0.15035248284828  1.28972366026603
 6 -13.59614604810481 -1.45906744454445  0.59051781908191
 6 -10.90036562526253 -1.59417483498350 -2.20567288558856
 6 -9.62743218701870  0.17268440224022 -0.30764772287229
 6 -10.87111308870887 -0.48030362636264  2.52064713181318
 6 -11.59630001030103  1.75766086918692  1.57500559225923
 6 -8.68046146784678 -0.70613865506551  0.05370410941094
 6 -7.23500148974898 -0.63032487858786 -0.01566386608661
 6 -6.37395141004100 -1.81970065886589  0.14483671997200
 6 -6.60114577627763  0.57339816971697 -0.35346390159016
 6 -5.21158109970997  0.80416245294529 -0.29911424162416
 6  11.83618286518652  0.04023405290529  1.44088361646165
 6  11.72986027612761 -0.63062921812181 -1.06433031273127
 6  12.63675090319032 -1.34150838053805  1.75141987538754
 6  13.43673836053605 -1.83497803120312  0.49594355875588
 6  12.49242417711771 -1.86329083808381 -0.73667763026303
 6  11.06560344824482 -0.01381663376338  0.15863304360436
 6  10.90462186708671  0.14339098109811  2.64773711391139
 6  12.81700481718172  1.29071229202920  1.47873092409241
 6  12.42024833103310  0.43320219351935 -1.93753770157016
 6 -4.64988148384839  2.07600010601060 -0.55447029592959
 6  9.89029021652165  0.60570137293729  0.04698352165217
 6 -3.33159831823182  2.43083183688369 -0.73708396909691
 6  8.61008079407941  1.01597793159316 -0.21759609960996
 6 -3.02945463056306  3.88068952845285 -1.07019675177518
 6 -2.26926384148415  1.55966781548155 -0.52185472017202
 6  7.42800234273427  0.20639122712271 -0.05092427652765
 6  7.59413414991499 -1.28858581068107  0.08495841874187
 6  6.18354970297030  0.79681661196120 -0.20838477447745
 6 -0.96230036153615  1.77332645634563 -0.70625880098010
 6  4.95196679947995  0.18137725382538 -0.06786541774177
 6  0.06678315731573  0.74842815271527 -0.43407251005100
 6  3.79303871157116  0.89425977637764 -0.25485295429543
 6  1.36904884568457  1.18690041774177 -0.48535091599160
 6  2.50766866736674  0.34877417711771 -0.11689833193319
 6  2.38051791349135 -1.18985316561656  0.11163975757576
 1 -13.05193699449945 -2.59328230603060 -1.23308853285329
 1 -13.83018824252425 -0.94999898409841 -1.70332678737874
 1 -13.47453525572557  0.15248231703170  2.22629531223122
 1 -13.46586598019802  0.73733886098610  0.80062772837284
 1 -14.71711901600160 -1.51757047044704  0.71771337563756
 1 -10.47164578147815 -2.56086286908691 -2.02555785118512
 1 -11.53330353925393 -1.82770756215622 -3.13686197239724
 1 -10.05905808930893 -0.98280748934894 -2.56208782128213
 1 -9.26467512231223  1.05746787778778 -0.98686249634963
 1 -9.85380670827083 -0.34226296219622  2.54063980678068
 1 -11.54096945784578 -0.36554985338534  3.45948429852985
 1 -11.04373506720672 -1.62245912241224  2.30534132383238
 1 -12.11376391889189  2.36169229122912  0.73008622462246
 1 -12.18920515991599  2.04342991849185  2.49699341114111
 1 -10.64986526862686  2.01456204670467  1.95787008050805
 1 -12.07270034253425 -2.61663453705371  1.18582306120612
 1 -9.01578242014201 -1.79919827752775  0.30293939283928
 1 -5.74799424552455 -2.17086041114111 -0.69475752015202
 1 -5.65585800110011 -1.52276750935093  0.97902629882988
 1 -6.99455956655666 -2.73242551555156  0.39355550635063
 1 -7.32781409250925  1.36898522762276 -0.71239091559156
 1 -4.60613725842584  0.03036165456546 -0.07059083478348
 1  13.33098877597760 -1.08306999439944  2.69823476407641
 1  12.12384756175618 -2.09360874087409  2.32416841654165
 1  13.85900825772577 -2.87442910791079  0.57498442434243
 1  13.23601103960396 -2.08287476597660 -1.67144023872387
 1  11.90992100030003 -2.58760788468847 -0.65453079517952
 1  11.44072368056806  0.01439180588059  3.53519855855586
 1  10.31129810751075  1.12325788888889  2.61498902310231
 1  10.14822244344434 -0.81442975747575  2.64636087728773
 1  13.40685758765876  1.30806943114311  0.45064912971297
 1  12.37017963116312  2.10999043684368  1.36597130283028
 1  13.61378721582158  1.25965044414441  2.28348483008301
 1  12.85974679417942 -0.08128473807381 -2.92813526542654
 1  11.63959102750275  1.33059515041504 -2.21216915181518
 1  13.28900973357336  0.95696174907491 -1.25000048544854
 1 -5.21609383328333  2.98778316511651 -0.62908431923192
 1  9.98032928352835 -0.54695335293529 -2.10179251505150
 1  14.91129397459746 -0.75392520692069  0.65988458775878
 1  8.48910076087609  1.96633896109611 -0.47217449464946
 1 -2.37094217841784  4.00655710541054 -0.04902907320732
 1 -2.39183794809481  3.92684990979098 -1.86989009810981
 1 -3.96836322142214  4.49894807660766 -1.09146894839484
 1 -2.47002662276228  0.63670588258826  0.17634467986799
 1  6.56948969886989 -1.83233279537954 -0.23382089738974
 1  8.56325153965397 -1.49770449524952 -0.60775154925493
 1  7.99856977857786 -1.34473680208021  1.07395115601560
 1  6.10076522362236  1.98779258465847 -0.30789280898090
 1 -0.60611196819682  2.66931097459746 -1.18315822732273
 1  4.84109009540954 -0.78554505120512 -0.05838315721572
 1 -0.17369629282928 -0.21666347924792 -0.14588197709771
 1  3.81868103600360  2.08613424962496 -0.63497572257226
 1  1.61816869206921  2.12531832373237 -0.91153385178518
 1  1.36566540134013 -1.40351695589559  0.45049404500450
 1  2.69168049284928 -1.65489179067907 -0.96133390339034
 1  2.92377907430743 -1.58951318031803  0.82253554015402
=======
>>>>>>> 6a1b998aacd80a23911c140f266e48a14f2d523d

