%nproc=3
%Mem=2GB
# td=(NStates=1) CAM-B3LYP/6-31G(d,p) 

TD

0 1
 8 -11.71969863746375  0.46450709910991 -1.49535669926993
 8 -13.02070290609061 -2.46631493949395  1.37379306430643
 8  10.66580210011001 -1.19452934083408 -1.95959968626863
 8  14.60256362306231 -0.82260098159816  0.02952846544654
 6 -11.05069323652365 -0.08281223592359 -0.28014743914391
 6 -11.82328861856186 -0.94466564646465 -1.23371221152115
 6 -11.70757280028003  0.35761244404440  1.10501015601560
 6 -13.15113031673167 -1.49650980888089 -0.85106674067407
 6 -13.25542400040004  0.01157370977098  1.08311299919992
 6 -13.54182061556156 -1.38876041384138  0.56036480378038
 6 -11.22062765146515 -1.77051246874687 -2.29732205050505
 6 -9.58969841364136 -0.02241510771077 -0.34606156425643
 6 -11.00464644204420 -0.22206780278028  2.29215428252825
 6 -11.55566594689469  1.97248235133513  1.14044213591359
 6 -8.68541196289629 -0.87189523072307  0.10393913291329
 6 -7.31008899849985 -0.67192903900390  0.12594029432943
 6 -6.44833884878488 -1.97052574137414  0.22343457975798
 6 -6.72067772947295  0.58288911881188 -0.14927348254825
 6 -5.34916485808581  0.77943998069807 -0.20718504870487
 6  11.99050829772977  0.06057608710871  1.40522005010501
 6  11.71935922602260 -0.66466262146215 -1.16987086678668
 6  12.78682591069107 -1.22031626132613  1.63102783618362
 6  13.60803549024903 -1.79256378977898  0.30021398579858
 6  12.60723565826583 -1.84977948694869 -0.84837880038004
 6  11.16334322222222 -0.01941719381938  0.14841202150215
 6  11.01567297219722  0.19470611261126  2.52439477967797
 6  12.84474759145915  1.35753897469747  1.40036308730873
 6  12.45480178637864  0.48823769706971 -2.03072702050205
 6 -4.73297979367937  2.05598810481048 -0.31424627352735
 6  9.88829001650165  0.40275107790779 -0.01500267696770
 6 -3.38468362676268  2.42060081378138 -0.52032229292929
 6  8.68799858585859  0.90690702450245 -0.19508384838484
 6 -3.10101178627863  3.77921938143814 -0.81888162026203
 6 -2.33806072117212  1.43301515021502 -0.38822135683568
 6  7.45859540204020  0.17702829082908 -0.06021520562056
 6  7.55138987548755 -1.27883483558356  0.07009693259326
 6  6.26624797279728  0.82055898619862 -0.17111104710471
 6 -0.97128125962596  1.71657078077808 -0.49136731183118
 6  4.91829343214321  0.20530964706471 -0.02647127832783
 6  0.07328380738074  0.91304461436144 -0.07506660946095
 6  3.74223363106311  0.92738308870887 -0.16684415341534
 6  1.36755869666967  1.19676140384038 -0.17196957785779
 6  2.52787068756876  0.32544184388439 -0.01348799089909
 6  2.30956081778178 -1.18571275157516  0.06921551515151
 1 -13.22011381218122 -2.61197417521752 -1.23270849484948
 1 -13.85330055375537 -0.93987797199720 -1.58914536923692
 1 -13.71916971917192  0.17352442124212  1.98817149984998
 1 -13.66120551415141  0.60870599769977  0.33603126872687
 1 -14.61706901100110 -1.56321503490349  0.67789939423942
 1 -10.82151076797680 -2.59451623442344 -1.99908520392039
 1 -11.61616182508251 -1.94229902130213 -3.28108639483948
 1 -10.26696888038804 -1.41183039163916 -2.66047766026603
 1 -9.35356401120112  0.85152728372837 -0.99909371947195
 1 -9.89876120372037 -0.05206394229423  2.22585832863286
 1 -11.42671803270327  0.08357505910591  3.29508785888589
 1 -11.07211790549055 -1.11978885538554  2.41838262796280
 1 -11.97030957345735  2.40496661866187  0.28052126812681
 1 -12.02083832323232  2.45668124362436  2.04363807560756
 1 -10.31895217731773  2.03364395489549  1.15164945844584
 1 -12.17098017051705 -2.44042691629163  1.28285276417642
 1 -9.14301514341434 -1.76922528022802  0.67175627452745
 1 -6.43708315441544 -2.59141246634664 -0.79473751815182
 1 -5.14421683698370 -1.93317855045505  0.76555495169517
 1 -6.91296140674067 -2.82639491249125  1.02993914471447
 1 -7.44865617671767  1.46527485658566 -0.27092676917692
 1 -4.58441508620862 -0.12648403000300 -0.35804958065807
 1  13.55788146524653 -1.33844553195320  2.42093703430343
 1  12.05286046304630 -2.05140452045205  1.76403240294029
 1  13.99277163406341 -2.65090675567557  0.68323524942494
 1  13.26397383588359 -2.02260873937394 -1.80544363906391
 1  12.04724473267327 -2.53077220112011 -0.64619996209621
 1  11.56294590279028  0.37245761246125  3.43270830953095
 1  10.48656563426342  1.12410797389739  2.40211773597360
 1  10.36457407860786 -0.75731404590459  2.67158339953995
 1  13.84332123402340  1.46295491969197  0.78391245604561
 1  12.19189180238024  2.30377981578158  1.11924663036304
 1  13.07945378247825  1.67480195929593  2.47034351595160
 1  12.50541136063606  0.08121151155116 -3.11732418431843
 1  11.81185825422542  1.34066615751575 -2.26659459435944
 1  13.53708454105410  0.91133718661866 -1.70627611301130
 1 -5.58650087398740  2.69082346914692 -0.41198260906091
 1  10.03498474907491 -0.51367002460246 -2.05797813361336
 1  15.06953979917992 -0.55258507290729  1.01735033433343
 1  8.54141599239924  1.91689401660166 -0.53040031723172
 1 -2.20347543174317  4.20005645534554 -0.30487465776578
 1 -2.72596136043604  3.97796502130213 -1.96103921302130
 1 -4.04114049914992  4.49073725552555 -0.81248104960496
 1 -2.58234785488549  0.41640385238524 -0.00457341194119
 1  6.75801855175518 -2.07964752685269  0.15921840654065
 1  8.46063127762776 -1.53894861966197 -0.59802057615762
 1  8.02674259585959 -1.74020634903490  1.16653041394139
 1  6.46522166926693  1.88669247464746 -0.23104512421242
 1 -0.55852720972097  2.69416345984598 -0.89751966346635
 1  5.02249823622362 -0.81909840654065  0.23191587268727
 1 -0.13493241644164 -0.29745155805581  0.22131474257426
 1  3.79546871477148  1.89726536273627 -0.54529675467547
 1  1.51712858805881  2.14996078797880 -0.66401910031003
 1  1.43205204000400 -1.56636324052405 -0.44722572697270
 1  3.34758608340834 -1.75118141964196 -0.52711048104811
 1  2.34523121952195 -1.35917014601460  1.21144443104310

