%nproc=3
%Mem=2GB
# td=(NStates=1) CAM-B3LYP/6-31G(d,p) 

TD

0 1
 8 -11.74395106270627  0.15435608400840 -1.58083524712471
 8 -13.12961379717972 -2.48070637863786  1.45961164616462
 8  10.67407292719272 -1.27701758965897 -2.03806753305331
 8  14.49842320902090 -1.08979770127013 -0.18856334373437
 6 -11.13074124132413 -0.18486244094409 -0.37971739613961
 6 -11.66165245494549 -1.23237441734173 -1.29302814311431
 6 -11.87720976397640  0.35700238303830  0.83686334133413
 6 -13.02353755745574 -1.81531168906891 -0.95750738473847
 6 -13.38998745674568  0.01276382878288  0.92919760766077
 6 -13.64298073157316 -1.51642318011801  0.42003077037704
 6 -10.79874546324633 -2.11076649414942 -2.05896821512151
 6 -9.69698914271427  0.10804793859386 -0.42984994309431
 6 -11.26742271967197 -0.16955255125513  2.20879594669467
 6 -11.86255663596360  1.92614771787179  0.82658074977498
 6 -8.66395981768177 -0.68328636983698  0.05219395839584
 6 -7.29124711431143 -0.53724557065707  0.01624932523252
 6 -6.41844585948595 -1.68520720952095  0.34164640094009
 6 -6.61233689538954  0.71202203210321 -0.08676723192319
 6 -5.21048098969897  0.89441147784778 -0.08051238143814
 6  11.99367861476148  0.10911094059406  1.24938446654665
 6  11.74450174027403 -0.67804395959596 -1.32837671737174
 6  12.75013224132413 -1.21712594229423  1.56399113251325
 6  13.44873956065607 -1.75621015441544  0.35620958535854
 6  12.43401833653365 -1.97759226822682 -0.88840280278028
 6  11.23115000290029  0.03082783068307  0.00543772407241
 6  10.99353075797580  0.31714835683568  2.48062040224022
 6  12.96550966766677  1.23306652745275  1.31479453045305
 6  12.56603290949095  0.25080395369537 -2.16970091789179
 6 -4.66881337703770  2.14491699769977 -0.24938978787879
 6  9.96288747624762  0.51432223502350 -0.04805598229823
 6 -3.34419957835784  2.51598035173517 -0.22913317401740
 6  8.74477426342634  0.96090242404240 -0.19189352935294
 6 -3.03019470457046  3.98506996649665 -0.36964669676968
 6 -2.30540745584558  1.58523037173717 -0.25680821552155
 6  7.54037357985799  0.28333892189219  0.03563437933793
 6  7.69465420192019 -1.20008696079608  0.24454437733773
 6  6.26263761176118  0.73041997229723 -0.12555649164917
 6 -0.91879601110111  1.97235635933593 -0.11080925602560
 6  4.98408001080108  0.25108422452245 -0.01318995019502
 6  0.05290176917692  1.00730404030403 -0.07316641944194
 6  3.81040044774477  0.88722907330733 -0.05587305630563
 6  1.37708964976498  1.27463919161916 -0.03080546144614
 6  2.48900680118012  0.34637393709371  0.03552691059106
 6  2.33220308200820 -1.08158233853385  0.21087968156816
 1 -13.31986378717872 -3.01609458725873 -0.98409363336334
 1 -13.66071129482948 -1.44849883408341 -1.81768822352235
 1 -13.68639644184418  0.23463053185319  1.68220090279028
 1 -13.91819121272127  0.60861598869887  0.01237890349035
 1 -14.65030233433343 -1.81177989138914  0.50752235653565
 1 -10.22586120302030 -2.83892067486749 -1.42885818121812
 1 -11.53039324822482 -2.63669846124612 -2.81752003820382
 1 -10.10541272477248 -1.65893510211021 -2.73612522502250
 1 -9.37913656845685  1.20247237823782 -0.81046485658566
 1 -10.12687401500150  0.26156742084208  2.31352709550955
 1 -11.82802816371637  0.21779848144814  2.95059340944094
 1 -11.24362505620562 -1.33307018351835  2.26022681238124
 1 -12.22188473097310  2.38596471847185  0.05902911891189
 1 -12.44715095449545  2.35857143264326  1.63782749454945
 1 -11.03647392949295  2.28341893239324  0.72352664616462
 1 -12.10666373887389 -2.28933180678068  1.31889636853685
 1 -9.11695253715371 -1.65637399509951  0.22531163006301
 1 -6.02758220432043 -2.26440976607661 -0.60413845824582
 1 -5.68141055635564 -1.57008224082408  1.04930332653265
 1 -6.96991710231023 -2.45943821682168  0.70918706950695
 1 -7.29008031913191  1.46555488458846  0.00104042754275
 1 -4.53236988168817  0.05630424882488 -0.09880365606561
 1  13.54720039713971 -1.30380206760676  2.53492843344334
 1  11.96260143714371 -2.12474185418542  1.70422642234223
 1  13.85696805370537 -2.77802946794679  0.36761368726873
 1  12.97633507200720 -2.34001047954796 -1.79263235793579
 1  11.74115412361236 -2.70935005890589 -0.51297663976398
 1  11.43383299149915  0.22902326902690  3.57994303300330
 1  10.53350032773277  1.29891545464546  2.22026955115512
 1  10.17202482368237 -0.53868218271827  2.69149539073907
 1  13.53862076397640  0.86491511571157  0.42832689748975
 1  12.43671628482848  2.13754319211921  1.06963166886689
 1  13.45261109820982  1.60031451055106  2.34847132873287
 1  12.45789660916092 -0.43972058165817 -3.22164461636164
 1  12.07724479287929  1.10226231713171 -2.41371930683068
 1  13.75421625422542  0.29384543744374 -1.94707019241924
 1 -5.43144536843684  2.92807719451945 -0.19877128792879
 1  10.01297254785479 -0.51810046764677 -2.10262259805981
 1  15.11060390559056 -0.84995480988099  0.50013861316132
 1  8.52743459425943  2.09438176537654 -0.32307958515852
 1 -2.16843192739274  4.29944639433943  0.39148497819782
 1 -2.24923368766877  4.26286351115111 -1.22773588268827
 1 -3.99537592269227  4.49650783258326 -0.36915671717172
 1 -2.69253887398740  0.48696090809081 -0.33707666226623
 1  6.60145289518952 -1.60240980308031 -0.05422293759376
 1  8.47620283478348 -1.54888961376138 -0.37060783488349
 1  8.10374029562956 -1.49248157655766  1.32817657855786
 1  6.35721086818682  1.94012781818182 -0.48195021472147
 1 -0.44429578657866  3.11862590609061  0.00624071257126
 1  4.92416840324032 -0.77617411411141  0.27645032613261
 1 -0.25732465566557 -0.16333814671467 -0.12606999589959
 1  3.84008317621762  2.03344898109811 -0.10877310231023
 1  1.78322519771977  2.27228302020202 -0.36707940634063
 1  1.27231606640664 -1.26951355555556  0.54342333793379
 1  2.42734405920592 -1.71607790929093 -0.88469623962396
 1  3.07481417781778 -1.69298352735273  0.99768305490549

