%nproc=3
%Mem=2GB
# td=(NStates=1) CAM-B3LYP/6-31G(d,p) 

TD

0 1
<<<<<<< HEAD
 8 -11.75818248584858  0.27999864826483 -1.53246040964096
 8 -12.83142397819782 -2.49920822882288  1.37523320832083
 8  10.82271779167917 -1.23074296219622 -2.23025675197520
 8  14.63500686738674 -1.01510023152315  0.08580409300930
 6 -11.09822798999900 -0.13800775547555 -0.23187261166117
 6 -11.58399468916892 -1.09314049394940 -1.15297413771377
 6 -11.84390643364336  0.34084076687669  0.94749440444044
 6 -12.87868307200720 -1.82067222512251 -0.93414504850485
 6 -13.39355781378138 -0.21670911851185  0.92391707960796
 6 -13.46572300580058 -1.62785432323232  0.40647941524152
 6 -10.68620420912091 -1.85549096659666 -2.21775409370937
 6 -9.67946739053905  0.15468260206021 -0.32850980908091
 6 -11.26970294769477 -0.25526112211221  2.30935600270027
 6 -11.87081746204620  1.82484758785879  1.02217030873087
 6 -8.66683010471047 -0.69851789298930  0.27762650165017
 6 -7.26425441504150 -0.40598244434443  0.33259095939594
 6 -6.43477749264926 -1.71269995879588  0.52628486478648
 6 -6.63944960666067  0.78361919181918  0.11076252105211
 6 -5.29206914851485  1.00703273997400 -0.04348867906791
 6  11.79398864576458 -0.01872184268427  1.48359788788879
 6  11.70949823992399 -0.64850100530053 -1.35677955765577
 6  12.53329055715572 -1.26587081678168  1.59061379477948
 6  13.45046973367337 -1.79388392179218  0.38909287368737
 6  12.53100803550355 -1.83835834483448 -0.89625358785879
 6  11.13246013391339  0.02260700860086  0.02932011231123
 6  10.72914431933193  0.14641128312831  2.58845118531853
 6  12.92676579327933  1.23510673147315  1.49932298329833
 6  12.58303460966096  0.47330620392039 -2.05546949474948
 6 -4.71800829652965  2.25703820982098 -0.33082793169317
 6  9.89496068356836  0.43546434923492  0.00077890119012
 6 -3.40194535293529  2.60236899059906 -0.50575083578358
 6  8.74928471447145  0.95466179998000 -0.30382472247225
 6 -3.03426511161116  3.98943040254025 -0.83646337843784
 6 -2.25023193829383  1.67041889058906 -0.37964049874988
 6  7.50363990649065  0.17733832183218 -0.05386457055706
 6  7.62540727722772 -1.33177012911291  0.10112003490349
 6  6.22651399939994  0.83639056935694 -0.11654559055906
 6 -0.85369950145015  1.90576970067007 -0.33618179327933
 6  4.91740334313431  0.19841895799580 -0.03419205040504
 6  0.03180965996600  0.86046935683568 -0.29307841064106
 6  3.73889329702970  0.81573192359236 -0.20846831583158
 6  1.36866880768077  1.18868059575958 -0.25456783768377
 6  2.44481238173817  0.28063736343634 -0.11829847194719
 6  2.22211207290729 -1.12291647194719  0.13417201080108
 1 -12.67726952775278 -2.97867084488449 -0.96234145814582
 1 -13.61444666836684 -1.45539952415241 -1.63049950465046
 1 -13.86178398059806 -0.29573250445045  1.91434411711171
 1 -14.03191258485849  0.43234836193619  0.12976064166417
 1 -14.47455475957596 -1.95912462586259  0.40643224752475
 1 -10.18306692359236 -2.79782656545655 -1.89876517191719
 1 -11.13207341624162 -2.12110690209021 -3.37166545274528
 1 -9.93640582408241 -1.25822503110311 -2.45630724322432
 1 -9.58683733853385  1.11028315931593 -0.84785859595960
 1 -10.26715804340434 -0.02178091399140  2.32692843564356
 1 -11.69670503140314  0.36016271787179  3.12252060216022
 1 -11.51531222492249 -1.44034091059106  2.67356814651465
 1 -12.14823736623662  2.27531365336534  0.12042525852585
 1 -12.52388862826283  2.33487906340634  1.88608232003200
 1 -10.87401768386839  2.10103069356936  1.33887818131813
 1 -11.93403647614761 -2.42071494509451  1.19434391329133
 1 -8.95156599849985 -1.60524888258826  0.67746684558456
 1 -5.89381882798280 -1.87729105420542 -0.42854089848985
 1 -5.80670308560856 -1.86218145074507  1.28441683788379
 1 -7.09911002160216 -2.59979225222522  0.62199835063506
 1 -7.23209452055205  1.69957828692869 -0.30564024052405
 1 -4.69189583428343  0.19256787518752 -0.20023379907991
 1  13.05958163526353 -1.20960264766477  2.52267720832083
 1  11.72626780378038 -2.08903828382838  1.59049504920492
 1  13.59033139003900 -2.74625629062906  0.53513043894389
 1  13.31907934643464 -2.13569004750475 -1.61168426312631
 1  11.75418542674267 -2.76400552445245 -0.77019236133613
 1  11.17341694989499  0.12957332403240  3.62810784948495
 1  10.34282125982598  1.19342490559056  2.39373689788979
 1  10.04189181038104 -0.61762007650765  2.64648088928893
 1  13.53948084998500  1.02953157735774  0.44948901370137
 1  12.41589420262026  2.14957439523952  1.47560226592659
 1  13.55379121622162  1.07319179827983  2.55239172077208
 1  12.95216603610361 -0.09963657325733 -2.92433488538854
 1  11.94694176257626  1.40950304120412 -2.49482741764176
 1  13.58900973357336  0.68821487438744 -1.48586407180718
 1 -5.38332055595560  3.08276266306631 -0.38634004480448
 1  10.12084333493349 -0.59424808240824 -2.36252858865887
 1  15.19236208140814 -1.15943575797580  0.87930652995300
 1  8.56215806660666  1.90242256945695 -0.50267754495450
 1 -2.66013109730973  4.42442889258926  0.10109593929393
 1 -2.34561332563256  4.21543876867687 -1.70389349844984
 1 -3.96265265036504  4.51595977777778 -1.27497729922992
 1 -2.62551217131713  0.72989520152015 -0.19104205880588
 1  6.72075482538254 -1.90551011311131  0.14747723242324
 1  8.24165938043804 -1.78277300210021 -0.70664143824382
 1  7.93583350495050 -1.52384471287129  1.05881964286429
 1  6.19978512561256  1.85505931133113 -0.20792281198120
 1 -0.53069442644264  2.90060410391039 -0.60099001050105
 1  4.84589057545755 -0.81929842654265  0.29188186928693
 1 -0.21531045424542 -0.27380919381938 -0.32499988888889
 1  3.94570373827383  1.92089772597260 -0.49520174517452
 1  1.61542841804180  2.15132092399240 -0.34219691809181
 1  1.18642747754776 -1.31012761696170  0.47456645224522
 1  2.26535786058606 -1.81309761126113 -0.72183995399540
 1  3.21444814121412 -1.34492872187219  0.83753704030403
=======
>>>>>>> 6a1b998aacd80a23911c140f266e48a14f2d523d

