%nproc=3
%Mem=2GB
# td=(NStates=1) CAM-B3LYP/6-31G(d,p) 

TD

0 1
<<<<<<< HEAD
 8 -11.63147981558156  0.15796644504450 -1.69634679827983
 8 -12.78213904970497 -2.29112742074207  1.44397008200820
 8  10.49639515941594 -1.12056194409441 -2.12490621692169
 8  14.51774514121412 -0.92968168966897 -0.14960944834483
 6 -11.02111027822782 -0.15153910861086 -0.43968339273927
 6 -11.69496578627863 -1.26741792169217 -1.26307514781478
 6 -11.81190323332333  0.42147883068307  0.74260391539154
 6 -13.05371057475748 -1.76457661556156 -0.91258289228923
 6 -13.23333179117912  0.03725627802780  0.72963765166517
 6 -13.42676911041104 -1.48032957075708  0.39983875117512
 6 -10.73228881758176 -2.08049346684668 -2.10045236353635
 6 -9.57370681448145  0.07978511231123 -0.39336629472947
 6 -11.07691366876688  0.09554395839584  2.08303337043704
 6 -11.62090247054705  1.97922302540254  0.58104619631963
 6 -8.65109853155315 -0.79458749995000  0.17468620762076
 6 -7.23284127372737 -0.60729257535754  0.25765346564656
 6 -6.33550756565656 -1.80027871667167  0.27507974427443
 6 -6.58761442314231  0.58793962386239 -0.12022057725773
 6 -5.28451839343934  0.92758479517952 -0.09432376257626
 6  11.92751199809981  0.05404543404340  1.23846337443744
 6  11.54150144024402 -0.64238039323932 -1.35653953365337
 6  12.64637186528653 -1.22906713641364  1.49554428782878
 6  13.43444813151315 -1.70356488988899  0.23310727512751
 6  12.38304323902390 -1.88292280128013 -0.97054101660166
 6  11.17375426332633 -0.01050630273027 -0.10364318401840
 6  10.95765717061706  0.30009665166517  2.50533287348735
 6  12.79595271197120  1.31405462626263  1.18119117011701
 6  12.35918222442244  0.30214908820882 -2.23353730153015
 6 -4.74764125982598  2.23984649064906 -0.10456530543054
 6  9.90360154765477  0.46796759955996 -0.03258443514351
 6 -3.37952311071107  2.52380113381338 -0.05632589328933
 6  8.61983176917692  0.85979231303130 -0.25028936893689
 6 -2.96737842294229  4.00394185368537 -0.34298403050305
 6 -2.35910282538254  1.63690553925393  0.04075154045405
 6  7.40788033053305  0.07829841784178 -0.02774195829583
 6  7.71261599809981 -1.24034098619862  0.41295121802180
 6  6.17758910691069  0.66486341664166 -0.18082201820182
 6 -0.97104123562356  1.85925504920492 -0.04052222732273
 6  4.86480808360836  0.06967608370837  0.10034140294029
 6 -0.01043456445645  0.90704401430143 -0.02158126092609
 6  3.69734914261426  0.79919026942694 -0.04299176817682
 6  1.38805074587459  1.20620234793479  0.00766838593859
 6  2.41646954745475  0.33260255995600  0.13926728462846
 6  2.32618247994799 -1.15208938923892  0.35787438103810
 1 -12.78371017181718 -2.97303028082808 -1.06624184818482
 1 -13.61553677737774 -1.41027501170117 -1.72873932863286
 1 -13.60767857005701  0.38954602340234  1.83140582328233
 1 -13.78393778737874  0.45982110921092 -0.16954928932893
 1 -14.50244754885489 -1.62793150655065  0.64215581988199
 1 -10.24085270217022 -3.05591237403740 -1.73439873527353
 1 -11.23244345324533 -2.41537632903290 -3.17550583678368
 1 -9.50956313981398 -1.74262347094710 -2.33442505500550
 1 -9.26845550035004  0.85296742774277 -1.03652746284629
 1 -10.13166449404940  0.36223748784879  2.01885762856286
 1 -11.63032839373937  0.73934063566357  3.02419076917692
 1 -11.22916361006101 -1.07568444494449  2.31697248694869
 1 -11.62105464796480  2.44229035103510 -0.70778756275628
 1 -12.48394463386339  2.60496607210721  1.05517922972297
 1 -10.64837511961196  2.33054364486449  0.91544583808381
 1 -11.86459953245324 -2.56380925452545  1.20064454335434
 1 -9.03625446734674 -1.52499085678568  0.73981308020802
 1 -5.92643208930893 -2.37449077417742 -0.58801684608461
 1 -5.21178359365937 -1.93183841644164  0.97895629182918
 1 -6.84963507410741 -2.72380465346535  0.69189534033403
 1 -7.39786109720972  1.39692802190219 -0.14298397489749
 1 -4.50779742444244  0.10876949534953 -0.13949772547255
 1  13.37555323242324 -1.28878056545655  2.42922786338634
 1  11.74004918191819 -1.92024140414041  1.83634963466347
 1  13.55728808570857 -2.62569423442344  0.53300022592259
 1  12.84183162166217 -2.31592807130713 -1.93100619531953
 1  11.79437944614462 -2.74349347324732 -0.70710605270527
 1  11.31113072127213  0.51471183788379  3.57125216391639
 1  10.47960493819382  1.26949251235124  2.29836736093609
 1  10.24156177737774 -0.54273258775878  2.51123736493649
 1  13.38616551845185  1.09736836103610  0.11192525732573
 1  12.28293090629063  2.26752619041904  1.22170687638764
 1  13.59462529962996  1.24047852695270  1.93269975157516
 1  12.66835765526553 -0.27199380898090 -2.92102455435544
 1  11.73796086448645  1.19204129502950 -2.35066300120012
 1  13.29290012261226  0.69544559745975 -1.72985847124712
 1 -5.33786601050105  2.93953834063406 -0.41891330213021
 1  9.99103035363536 -0.30223888148815 -2.50499283508351
 1  15.03531637683768 -0.79294910931093  0.71045964526453
 1  8.62615446624662  1.96653898109811 -0.54731200840084
 1 -2.41618670287029  4.37741419111911  0.28499432913291
 1 -2.68920768506851  4.04874209900990 -1.34404751385139
 1 -3.96500288538854  4.60906908870887 -0.19776957845785
 1 -2.51493111321132  0.56595880788079  0.11630867626763
 1  6.80520327022702 -1.95610517261726  0.53828631333133
 1  8.43360857535754 -1.88830355515552 -0.30811158525853
 1  8.07076699829983 -1.06420874927493  1.33360712161216
 1  6.15871101820182  1.88595240064006 -0.34678669836984
 1 -0.54683604060406  2.82996704020402 -0.14867477897790
 1  5.02629861626163 -0.98022451915191  0.31919460056006
 1 -0.23940286348635 -0.23122493539354 -0.01337872677268
 1  3.69192836073607  1.81768740494049 -0.44972719771977
 1  1.54235111031103  2.26059185108511 -0.29972267066707
 1  1.46624545934593 -1.95128173237324  0.43449244484448
 1  3.11821314611461 -1.57159346084608 -0.35088285828583
 1  2.52822951935194 -1.39608383738374  1.45847913451345
=======
>>>>>>> 6a1b998aacd80a23911c140f266e48a14f2d523d

