%nproc=3
%Mem=2GB
# td=(NStates=1) CAM-B3LYP/6-31G(d,p) 

TD

0 1
 8 -11.78788545614561  0.22006265466547 -1.50222738633863
 8 -13.00195103090309 -2.48377668566857  1.44467015201520
 8  10.60608612851285 -1.07412730063006 -2.14346807310731
 8  14.35992935963596 -1.10408913041304 -0.16652113951395
 6 -11.02299046624662 -0.16860081478148 -0.32541196559656
 6 -11.60273656335633 -1.18598977887789 -1.12932177247725
 6 -11.77673971697170  0.30532721552155  1.03195285028503
 6 -12.94574977867787 -1.88306846474647 -0.82236387038704
 6 -13.22339079707971 -0.10179762736274  0.96807149504950
 6 -13.51642807630763 -1.52761429922992  0.54605337263726
 6 -10.89597518621862 -1.93946936443644 -2.27754007230723
 6 -9.52942238603860  0.17310444424442 -0.40133709180918
 6 -11.11269724712471 -0.24240983698370  2.17553262036204
 6 -11.77140752105210  1.80813591669167  1.01149924162416
 6 -8.57571099279928 -0.71283932513251  0.09478821782178
 6 -7.16938492809281 -0.51815366146615  0.05858355865587
 6 -6.20653466836684 -1.70202889168917  0.30403263956396
 6 -6.64294995669567  0.75546637653765 -0.29098765396540
 6 -5.19971991359136  1.02757479417942 -0.35138946914691
 6  11.89179842674267  0.10207023652365  1.32865239333933
 6  11.64375166526653 -0.65150130533053 -1.23789766946695
 6  12.61864909300930 -1.31865609530953  1.55691042444244
 6  13.28389307600760 -1.90506503990399  0.37286125052505
 6  12.33752868756876 -1.98288279727973 -0.92989695219522
 6  11.06305319321932 -0.01939719181918  0.02195937623762
 6  10.97573897879788  0.26886352835284  2.51145348554856
 6  12.73349646634663  1.23464668546855  1.27789084008401
 6  12.47644395059506  0.33132200550055 -1.97986193399340
 6 -4.72400889658966  2.34798730473047 -0.49033388228823
 6  9.83504469196920  0.61023182598260 -0.07023820052005
 6 -3.33141830023002  2.64527328102810 -0.57003726442644
 6  8.62471225722572  1.01536787058706 -0.10494483448345
 6 -2.93135482058206  4.06616807630763 -0.68302803490349
 6 -2.25874278937894  1.67618946764676 -0.26137867256726
 6  7.43242278477848  0.20993158115812 -0.07983716781678
 6  7.68147288378838 -1.31291824392439  0.05299522242224
 6  6.22310365836584  0.80806773707371  0.01822788678868
 6 -0.89605373687369  1.94354347804780 -0.27726590169017
 6  4.99065066786679  0.18699781588159  0.10662203100310
 6  0.05464194319432  0.81373468336834 -0.05130423322332
 6  3.83744315201520  0.91546189658966  0.00824335533553
 6  1.44363630443044  1.13628535623562 -0.04909729062906
 6  2.57625552605261  0.29312861256126  0.14469782768277
 6  2.32017187888789 -1.13349753005301  0.53708230183018
 1 -12.99080088088809 -2.97392036983698 -0.90567579157916
 1 -13.59289451315131 -1.67979196339634 -1.80550700540054
 1 -13.71418922112211  0.01510857965797  2.00693337603760
 1 -13.86531592519252  0.55057018411841  0.15572323792379
 1 -14.49395669976998 -1.73311202460246  0.55534713901390
 1 -10.77547616451645 -3.14015079787979 -2.09538483388339
 1 -11.59266947584759 -1.86980177157716 -3.21051933813381
 1 -9.75523770727073 -1.49537874647465 -2.64214582708271
 1 -9.43702235703570  1.13117524852485 -0.86525033513351
 1 -10.07893922152215 -0.07384612051205  2.14353009580958
 1 -11.48346370727073  0.27929463106311  3.18676702680268
 1 -11.01134182788279 -1.31934881138114  2.44562535223522
 1 -12.24186672917292  2.16754287628763 -0.09274605860586
 1 -12.35803204260426  2.11027660316032  1.75990970277028
 1 -10.67124740684068  2.21311190169017  1.13842813631363
 1 -12.17892096459646 -2.76942981658166  1.05194967386739
 1 -8.62832367426743 -1.75562392009201  0.29417851675167
 1 -5.73837328342834 -2.16931025612561 -0.64585262966297
 1 -5.58897131243124 -1.66150138273827  1.07109550575057
 1 -6.83461357195720 -2.54454672767277  0.56820297109711
 1 -7.40530184128413  1.49761809090909 -0.47667734423442
 1 -4.54244088878888  0.16036465486549 -0.23029680538054
 1  13.54406008310831 -1.19608129552955  2.27017195779578
 1  11.76566174317432 -2.12737211721172  1.89648564826483
 1  13.79297165406541 -2.88297996299630  0.38256518241824
 1  12.92223966246625 -2.25614209270927 -1.75358845354535
 1  11.51444145234523 -2.75001412531253 -0.79567490959096
 1  11.49733934213421  0.20558092479248  3.31717675637564
 1  10.33633061076108  1.06511207430743  2.46990451465146
 1  10.24627224842484 -0.42906122062206  2.31348758995900
 1  13.38509541144114  1.31180980518052  0.32817688248825
 1  12.28389100230023  2.05037447524753  1.18015272097210
 1  13.41590742784278  1.20557503660366  2.00334681628163
 1  12.56419723922392 -0.11443805340534 -3.05044749664967
 1  11.84313138153815  1.14047613851385 -2.13381131603160
 1  13.33695452805281  0.59560561346135 -1.43273875927593
 1 -5.40531275517552  3.15126951375137 -0.47355876667667
 1  10.10555180578058 -0.32204086168617 -2.34798713451345
 1  14.94554739993999 -0.89819963436344  0.59488808810881
 1  8.41140299109911  2.12821514871487 -0.16140341754175
 1 -2.39254433863386  4.48546499619962  0.32036786648665
 1 -2.33399216351635  4.34788201300130 -1.62046515561556
 1 -3.99795618071807  4.60212839463946 -0.99247904940494
 1 -2.72572219231923  0.69151136313631 -0.36806976157616
 1  6.54625737563756 -1.91311087318732  0.02172465716572
 1  8.41607682218222 -1.47301202600260 -0.80660143424342
 1  8.15395531713171 -1.27362969136914  1.02005576647665
 1  6.26650179727973  1.77457126252625 -0.36079809950995
 1 -0.45447680468047  2.85245928942894 -0.24489440094009
 1  5.10417640404040 -0.88543504020402  0.47771045214521
 1 -0.37802672587259 -0.09472128502850  0.19998260936094
 1  3.85945511341134  1.95966160236024 -0.01179340434043
 1  1.80425730093009  2.07188298019802 -0.18564126252625
 1  1.28909774457446 -1.46548315251525  0.67501649724972
 1  2.87320864566457 -1.82540884238424 -0.11533930393039
 1  2.78489518591859 -1.47599182818282  1.45377866446645

