%nproc=3
%Mem=2GB
# td=(NStates=1) CAM-B3LYP/6-31G(d,p) 

TD

0 1
<<<<<<< HEAD
 8 -11.79677634523452  0.46512716111611 -1.36082324592459
 8 -12.94628546434643 -2.58574688268827  1.45006069106911
 8  10.61550707060706 -1.16460634853485 -2.06421014731473
 8  14.47786115281528 -0.91016973847385  0.07314282688269
 6 -11.11391955915592 -0.21649560426043 -0.24469389378938
 6 -11.71019730943094 -1.00650183008301 -1.23834267456746
 6 -11.73994603760376  0.22979966276628  1.23182283728373
 6 -13.00965616931693 -1.67505766366637 -0.82405403940394
 6 -13.12325078307831 -0.09477692529253  1.20839552745275
 6 -13.43192962646265 -1.59170070787079  0.66811557885789
 6 -10.89906549524953 -1.68766418391839 -2.23570588888889
 6 -9.59147859165916  0.16871400520052 -0.37436439453945
 6 -10.95783176057606 -0.44449004500450  2.33600866796680
 6 -11.61423180348035  1.79976507960796  1.27533562526253
 6 -8.64723814551455 -0.74597263846385 -0.02736399739974
 6 -7.20613860346035 -0.55708755485549  0.02795049534953
 6 -6.38131214611461 -1.85153384218422  0.28139037533753
 6 -6.65638129982998  0.72788361826183 -0.14064261946195
 6 -5.29028897049705  1.01473351005101 -0.22685701590159
 6  11.86923617051705  0.02567259675968  1.49251877997800
 6  11.69447673777378 -0.65900205540554 -1.14071795149515
 6  12.65381260936094 -1.26026025572557  1.56705143854385
 6  13.31827651435144 -1.77936246964696  0.35867983238324
 6  12.41381631633163 -1.90895540454045 -0.83913787628763
 6  11.09040592849285 -0.03428868096810  0.19699687998800
 6  11.05154655955596  0.21941858385839  2.64350669086909
 6  12.84797791449145  1.25022824362436  1.42718576957696
 6  12.43467977417742  0.37328620192019 -1.92652660046005
 6 -4.83442993869387  2.23162566856686 -0.51810665956596
 6  9.85718690619062  0.48280908370837  0.04985380868087
 6 -3.37896305470547  2.62602135583558 -0.66012627332733
 6  8.61998178417842  0.98659499329933 -0.05816015601560
 6 -2.98872055715572  4.06013747324732 -0.72695242734273
 6 -2.43867078217822  1.61280312901290 -0.50636317101710
 6  7.43278282078208  0.14642523052305  0.05031584748475
 6  7.67710244674467 -1.27517446954695  0.45680560346035
 6  6.20614196219622  0.70402733303330 -0.16836077207721
 6 -0.95316944844484  1.81734085778578 -0.55121329642964
 6  4.97329893269327  0.06661577767777 -0.23777240844084
 6  0.02186866586659  0.92966627652765 -0.38873797659766
 6  3.81782118981898  0.85965631603160 -0.39949741874187
 6  1.44031597239724  1.20031175887589 -0.47442982388239
 6  2.48039594009401  0.28704800450045 -0.39913655575558
 6  2.33326318801880 -1.18530271057106 -0.03953535993599
 1 -12.85034683548355 -2.72801577937794 -1.22151737573757
 1 -13.87378260196020 -1.29331331553155 -1.45179163386339
 1 -13.69781758395840  0.11930899969997  2.13329601230123
 1 -13.68634802840284  0.68393352045205  0.61237890349035
 1 -14.54178148224822 -1.77709642304230  0.70522212651265
 1 -10.25391400830083 -2.41616839963996 -1.90129542494249
 1 -11.65813602250225 -2.20655544694469 -2.94575286148615
 1 -10.12599478297830 -1.04086329492949 -2.78122973547355
 1 -9.43488214301430  1.06163829482948 -0.67588139823982
 1 -9.87505883348335 -0.08020675657566  2.46141188398840
 1 -11.44987034793479 -0.19312261066107  3.27658600870087
 1 -10.88434912861286 -1.58924580108011  2.23109389908991
 1 -12.22010455295529  2.22717883988399  0.33088630463046
 1 -12.18199443884388  2.13560913641364  2.31476518831883
 1 -10.58748903100310  2.19523011351135  1.18503279677968
 1 -12.07716078857886 -2.83417629122912  1.04213869276928
 1 -8.90185102700270 -1.66918527622762  0.39187828672867
 1 -5.61790123622362 -1.90418374347435 -0.57657570197020
 1 -5.60861327662766 -1.61661689428943  1.13040143634363
 1 -6.91851196179618 -2.80937321032103  0.25036118691869
 1 -7.29086039713971  1.54871320042004 -0.30705038153815
 1 -4.66064270897090  0.08989760816082  0.03468969326933
 1  13.20927660476048 -0.94343603100310  2.38362330293029
 1  12.05604078107811 -2.11580096009601  2.17641364106411
 1  13.59680203710371 -2.74786645164516  0.59091601750175
 1  13.04408184668467 -2.11085756425643 -1.50070316501650
 1  11.59060906910691 -2.57148627252725 -0.41831717381738
 1  11.62939254745475  0.06142650935093  3.59489452815282
 1  10.45027200490049  1.06109167226723  2.62996052025203
 1  10.37088470967097 -0.63838215271527  2.64906114731473
 1  13.75767266916692  1.11557018121812  0.88627269206921
 1  12.54363697689769  2.37074651245125  1.39330403610361
 1  13.35329116621662  1.51642612171217  2.28833531513151
 1  12.49019983948395 -0.27067367696770 -2.71897434933493
 1  11.71943901230123  1.15791788268827 -2.28977691259126
 1  13.27510834343434  1.02448850175017 -1.54014950035003
 1 -5.49891211511151  2.96779116591659 -0.63436484728473
 1  10.02734398499850 -0.42254091169117 -2.09481181698170
 1  14.90355320052005 -0.70183999839984  0.95225382468247
 1  8.69799164996500  1.94447677487749 -0.38905618281828
 1 -2.36094117831783  4.20303675337534  0.18359418911891
 1 -2.20322908720872  4.01528875367537 -1.52354546364636
 1 -3.85848223332333  4.69829801160116 -0.91022082358236
 1 -2.56852647274728  0.49078129012901 -0.66727968256826
 1  6.84401715161516 -1.94027358945895  0.15360784548455
 1  8.46688190269027 -1.65507023182318 -0.22020279437944
 1  7.90922084368437 -1.50065239363936  1.61042480338034
 1  6.14997014411441  1.77755156055606 -0.16045806550655
 1 -0.59393075007501  2.73415745924593 -0.64850476197620
 1  4.82943893029303 -0.92703920062006  0.03143582468247
 1 -0.45938486168617 -0.11847366026603 -0.29348673757376
 1  3.97302647054705  1.92890852705271 -0.74047627262726
 1  1.73163003820382  2.25730152205221 -0.56889958835884
 1  1.22914174897490 -1.54086069026903 -0.55987699209921
 1  3.17272859765977 -1.76300260176018 -0.57221499149915
 1  2.30699739613961 -1.47459168816882  1.25551883848385
=======
>>>>>>> 6a1b998aacd80a23911c140f266e48a14f2d523d

