%nproc=3
%Mem=2GB
# td=(NStates=1) CAM-B3LYP/6-31G(d,p) 

TD

0 1
 8 -11.69772644024402  0.20026067446745 -1.56833399699970
 8 -12.93120395619562 -2.62424073207321  1.37675336033603
 8  10.65113063296330 -1.04772466036604 -2.16105983228323
 8  14.42350571727173 -1.11966068756876 -0.21601608900890
 6 -11.05775394259426 -0.16264021872187 -0.36489591399140
 6 -11.68981527122712 -1.18717989788979 -1.27319615991599
 6 -11.79839188218822  0.41658834163416  0.94550420542054
 6 -13.04514971867187 -1.75095525342534 -0.99149078307831
 6 -13.23306176417642 -0.13598104570457  0.87659234713471
 6 -13.44337077057706 -1.55879741754175  0.51090985828583
 6 -10.85095068376838 -2.05685110261026 -2.09489180748075
 6 -9.55891533533353  0.07209434323432 -0.54677163526353
 6 -11.09413539093909  0.00583498749875  2.26425149224923
 6 -11.82286266656666  1.90926602970297  0.86957504920492
 6 -8.60044346604660 -0.75815385658566 -0.01857311831183
 6 -7.18390638023802 -0.52179402550255  0.07261496179618
 6 -6.34602861776178 -1.79665835463546  0.40014225052505
 6 -6.68436409810981  0.63536436633663 -0.15929448464846
 6 -5.26897683928393  0.97137917461746 -0.10400473067307
 6  11.89747899479948  0.13043307280728  1.28631815991599
 6  11.74028131823182 -0.69243539873987 -1.25578945864586
 6  12.63296052415241 -1.26821105080508  1.48152288568857
 6  13.30925561226123 -1.90723525692569  0.23776774117412
 6  12.24800973567357 -2.02900740974097 -0.72665662816282
 6  11.01705859375937  0.05654040194019 -0.00635345504550
 6  10.92953435833583  0.37622426442644  2.44886722692269
 6  12.84439755645564  1.34669789058906  1.30721377237724
 6  12.66097240344034  0.21140001330133 -2.05688963676368
 6 -4.71723821952195  2.21167367336734 -0.30762561146115
 6  9.89144033153315  0.52336313911391 -0.19859103580358
 6 -3.32541770017002  2.52690144384438 -0.32037229792979
 6  8.66604639063906  0.95726206000600 -0.23066740674067
 6 -2.94628631373137  3.98143960346035 -0.36461619371937
 6 -2.33603051815182  1.65332718141814 -0.06042857755776
 6  7.54866440894089  0.18298888688869  0.00353116901690
 6  7.59787452395240 -1.25602255435544  0.49155907880788
 6  6.18064941294129  0.71516844714471 -0.15216915291529
 6 -0.93970810231023  1.99074819851985 -0.11695987108711
 6  4.98091969476948  0.12595171127113  0.00516188498850
 6  0.03473995299530  0.94546785668567 -0.02153125592559
 6  3.80741014871487  0.81077142754275 -0.09222669166917
 6  1.43276521732173  1.24770649834983 -0.22223460436044
 6  2.51893979447945  0.38796809650965 -0.05649229132913
 6  2.33957381908191 -1.06469064936494  0.39033762736274
 1 -13.17947974877488 -2.76631960976098 -1.32288751275128
 1 -13.81017624132413 -1.07483146734673 -1.54136059075908
 1 -13.66851465366537 -0.12540547174717  1.93999668236824
 1 -13.89247864146415  0.60724585168517  0.28287595319532
 1 -14.49955725982598 -1.75893460686069  0.58826043034303
 1 -10.74609322622262 -3.02465924872487 -1.78741403680368
 1 -11.29777998689869 -2.06591138253825 -3.18113639983998
 1 -9.74225640914091 -1.55580478907891 -2.49849146164616
 1 -9.45859451425143  1.16292842384238 -1.00556436653665
 1 -10.06439776737674  0.59563082718272  2.39702544534453
 1 -11.84087944884488  0.10979768136814  3.20687903800380
 1 -10.86690738443844 -0.95255213171317  2.23463425312531
 1 -12.20783332583258  2.42729885188519 -0.14340112411241
 1 -12.35957219661966  2.67906348184819  1.56298000980098
 1 -10.91973225532553  2.35739633013301  1.22583687718772
 1 -12.03958703120312 -3.22058493209321  1.08103258215822
 1 -8.98508935083508 -1.44559291699170  0.24552365126513
 1 -5.68303774987499 -1.91354467956796 -0.50091813621362
 1 -5.84968738403840 -1.62313754635464  1.41515991219122
 1 -6.87741785238524 -2.79908218121812  0.48670482128213
 1 -7.40581189228923  1.56430475957596 -0.20894057055706
 1 -4.61812845754575  0.27921654005401 -0.11053482918292
 1  13.57410308740874 -1.13784547194719  2.10478541914191
 1  11.84071924892489 -2.01759113911391  2.16980297999800
 1  13.52193455035504 -2.94431609660966  0.57015394129413
 1  12.54463190169017 -2.50737721622162 -1.76680977567757
 1  11.48829883808381 -2.53892301620162 -0.48415375747575
 1  11.37075668386839  0.23239360606061  3.52105714441444
 1  10.64439141684168  1.35913147624762  2.53475099929993
 1  10.26183380458046 -0.23535184968497  2.36040228142814
 1  13.82024892679268  1.00594921912191  0.83530759555956
 1  12.36518913211321  2.32230166796680  0.85797050275028
 1  13.17914375147515  1.52524700380038  2.40960744234423
 1  12.90092091159116 -0.40667727732773 -2.97598004990499
 1  12.10478754715472  1.02480457135714 -2.30370830573057
 1  13.55045587818782  0.53198925182518 -1.63643912931293
 1 -5.40302252615261  3.07608199499950 -0.44280569136914
 1  10.03225447604760 -0.29546820442044 -2.23234557035704
 1  15.11688453365336 -0.97266708110811  0.49948854815482
 1  8.72658450925092  1.96115844304430 -0.63185046224622
 1 -2.32939802400240  4.20535698539854  0.56901273097310
 1 -2.26325508980898  4.36039326412641 -1.32566567566757
 1 -3.89394577967797  4.45097327912791 -0.23856365786579
 1 -2.40259988008801  0.52255446744674 -0.20427338193819
 1  6.58323107300730 -1.73602316441644  0.72125461016102
 1  8.27487270177018 -1.73644836963696 -0.35775654975498
 1  8.41823174477448 -1.31374370277028  1.36108986988699
 1  6.29290443754375  1.78286209160916 -0.65337735743574
 1 -0.57430878787879  2.84260830433043 -0.29470938243824
 1  4.80490647704770 -0.85092158885889  0.23579626072607
 1 -0.30640956415642  0.03090127722772  0.17647025812581
 1  3.90971013891389  1.85849148534854 -0.60670289528953
 1  1.58299517471747  2.50662645454545 -0.22731542994299
 1  1.24729356415642 -1.37681428562856  0.55313430903090
 1  2.52855418021802 -1.65825212671267 -0.48385615561556
 1  2.84661135753575 -1.43412764176418  1.14189747634764

