%nproc=3
%Mem=2GB
# td=(NStates=1) CAM-B3LYP/6-31G(d,p) 

TD

0 1
 8 -11.74752141974197  0.33128377677768 -1.44666182978298
 8 -12.94465530133013 -2.49946825482548  1.45108079307931
 8  10.71221674157416 -0.92638252615262 -1.97397112341234
 8  14.51587495419542 -0.91223994549455  0.06615212781278
 6 -11.05702386958696 -0.07173112781278 -0.28987841224122
 6 -11.72666895659566 -1.07307848774877 -1.16306514681468
 6 -11.76536857985799  0.40368705150515  1.03092274727473
 6 -13.13290849454945 -1.59831998989899 -0.74753638763876
 6 -13.30578903690369  0.05485803820382  1.03470815871587
 6 -13.47164359785979 -1.38445998379838  0.65703447074707
 6 -10.88586417511751 -1.86997241474147 -2.25141746004600
 6 -9.54821426522652  0.07643477727773 -0.39857681578158
 6 -10.99658563596360  0.00625502950295  2.30890595769577
 6 -11.72196257655765  2.01576667976798  1.02693078477848
 6 -8.68812223392339 -0.78371641284128  0.09444818381838
 6 -7.19551754135414 -0.63844569066907  0.14793249354935
 6 -6.43094710961096 -1.93827251605161  0.30419265556556
 6 -6.67157281898190  0.59388021792179 -0.19405796099610
 6 -5.27114705630563  0.78077011371137 -0.10491482168217
 6  11.79685893279328  0.06910694019402  1.45451497959796
 6  11.75895318541854 -0.48453460866087 -1.23299717941794
 6  12.54117134523452 -1.29966419611961  1.66075080848085
 6  13.45909059575958 -1.76200073347335  0.36618058245825
 6  12.49507444214421 -1.80672518151815 -0.95215917841784
 6  11.09545643354335  0.04717946584658  0.04011119141914
 6  10.90147155205521  0.19295593759376  2.61128346854685
 6  12.78114123082308  1.24977819861986  1.60858390939094
 6  12.56634294049405  0.51567044034403 -1.93099704750475
 6 -4.73501999769977  2.07708021402140 -0.26969181808181
 6  9.88949013651365  0.62364316711671  0.05403422672267
 6 -3.30949610801080  2.36256501020102 -0.44950521122112
 6  8.61419120512051  0.93831016481648 -0.07230157015702
 6 -3.00359204430443  3.83467492699270 -0.79397913001300
 6 -2.27899481458146  1.45935778447845 -0.35497803250325
 6  7.44029357185719  0.07873846184618 -0.01349053315332
 6  7.55383011951195 -1.38538549064906  0.14535445834583
 6  6.23138448644864  0.68268519881988 -0.15436937293729
 6 -0.93901803330333  1.74106323002300 -0.39665784088409
 6  4.93507511031103  0.01595071117112 -0.37952658385839
 6  0.04059053805381  0.77129043894389 -0.18842794559456
 6  3.76738614631463  0.82112246264626 -0.46024349334933
 6  1.35703764456446  1.17626935463546 -0.29591197209721
 6  2.57420532103210  0.24285358505851 -0.33282992509251
 6  2.34833469516952 -1.24072825312531 -0.03107451385138
 1 -13.09706150695069 -2.61480445824582 -1.18969419341934
 1 -13.86215143884388 -1.28653263746375 -1.48328478317832
 1 -13.74423222542254  0.23406047484749  1.96359904260426
 1 -13.82704209780978  0.62145727282728  0.36213387898790
 1 -14.49360666476648 -1.68077679107911  0.89367097139714
 1 -10.43765238213821 -2.69178596139614 -1.93811910731073
 1 -11.47415762466247 -2.02202699409941 -3.14778306450645
 1 -9.90437262076208 -1.00939014761476 -2.46825843834383
 1 -9.46084473927393  0.81885401640164 -1.01860567066707
 1 -10.04886621422142  0.52754401850185  2.42476821962196
 1 -11.49841520242024  0.22131883348335  3.25981433153315
 1 -10.67122781648165 -1.05309218571857  2.21319210891089
 1 -12.14779732223222  2.31839796179618 -0.01328811281128
 1 -12.10750699009901  2.43742931843184  1.88596230803080
 1 -10.69830011211121  2.33364395489549  1.06896118961896
 1 -11.88553162566257 -2.41064393799380  1.27912239113911
 1 -9.13358420032003 -1.71571992969297  0.55297439633963
 1 -5.94790423652365 -2.16568989408941 -0.61464950935094
 1 -5.63597601290129 -1.94749998259826  1.26789518571857
 1 -7.02166227682768 -2.83932620562056  0.51919807060706
 1 -7.39051036213621  1.40647897699770 -0.34626430293029
 1 -4.78106475117512 -0.04401578317832  0.02611883618362
 1  13.29812548964897 -1.13762544994499  2.31935687628763
 1  11.87058223522352 -2.30131951195119  1.68473447314731
 1  13.86311866876687 -2.79594125912591  0.51860878677868
 1  13.21242868136814 -2.02139861836184 -1.85494858955896
 1  11.56692670087009 -2.51376049995000 -1.02427776987699
 1  11.51853146134614  0.24649501620162  3.54044908360836
 1  10.40451742944294  1.24149971307131  2.53741126532653
 1  10.16958457965797 -0.49179749424943  2.80552679387939
 1  13.81536843874387  1.15432405660566  0.93997806260626
 1  12.23924653785379  2.12177161496150  1.14519922562256
 1  13.17979381648165  1.29823430253025  2.64334081568157
 1  13.00356117561756  0.03082647304730 -2.83155560746075
 1  11.77192426082608  1.32154424532453 -2.28102603750375
 1  13.43497433003300  1.27819387228723 -1.28700418581858
 1 -5.43225544944494  2.94043843064306 -0.03626503730373
 1  10.09945119571957 -0.13759241684168 -2.17341967776778
 1  15.21352419761976 -0.81330114451445  0.83546214551455
 1  8.60694254505451  1.95003733093309 -0.31400867806781
 1 -2.30137522172217  4.14825127482748 -0.08619278957896
 1 -2.38547731203120  3.98815604040404 -1.66945005410541
 1 -3.92642902800280  4.60007818961896 -0.82167196869687
 1 -2.65850547064707  0.32008422042204 -0.08445139973997
 1  6.56613936383638 -2.04580414251425  0.27411989668967
 1  8.20484569906991 -2.09907463226323 -0.42957373147315
 1  8.06770669226923 -1.58894122252225  1.09990375127513
 1  6.32828797589759  1.80438424382438 -0.24687670737074
 1 -0.59553091009101  2.89021306480648 -0.52438234973497
 1  4.81886787318732 -1.13936043274327 -0.38533585248525
 1 -0.24952387558756 -0.14318613151315 -0.12435982488249
 1  3.84130329822982  1.89665530173017 -0.48320054505451
 1  1.64233110831083  2.35578137003700 -0.46012871127113
 1  1.45939477427743 -1.58704530873087 -0.11143214761476
 1  2.82568389318932 -1.68003430493049 -0.93858162816282
 1  2.75600229662966 -1.58578280728073  0.91656494309431

