%nproc=3
%Mem=2GB
# td=(NStates=1) CAM-B3LYP/6-31G(d,p) 

TD

0 1
 8 -11.64068073567357  0.16702735113511 -1.62134929852985
 8 -12.95242607840784 -2.46041434943494  1.29510519551955
 8  10.61075659555956 -1.03243313121312 -2.17181090739074
 8  14.53449681638164 -1.16844556605661 -0.31830631803180
 6 -11.07844601180118 -0.03385734043404 -0.36953637803780
 6 -11.62245853555356 -1.23330451035104 -1.23872271257126
 6 -11.95026706970697  0.36676335913591  0.80971062606261
 6 -13.04829003270327 -1.91107126502650 -1.05557719171917
 6 -13.33435189318932 -0.03582102970297  0.69093378127813
 6 -13.54149058255826 -1.65380691849185  0.43328209550955
 6 -10.75751133983398 -2.04663008050805 -2.22451476977698
 6 -9.62161160496050  0.20093722752275 -0.23645060316032
 6 -11.28236421382138  0.05800020402040  2.20049511661166
 6 -11.97439782008201  1.92316741984198  0.68948704040404
 6 -8.68758217991799 -0.73396143734373 -0.00176143714371
 6 -7.25651364096410 -0.51020286638664  0.13098079837984
 6 -6.43110712561256 -1.78049673847385  0.35030726702670
 6 -6.63118878057806  0.71783261316132 -0.04390294549455
 6 -5.23628356995700  0.94302633933393 -0.09200353055306
 6  12.05119436633663  0.07524755425543  1.16520604870487
 6  11.70221751185118 -0.69831598679868 -1.31802568226823
 6  12.73705093319332 -1.26612084178418  1.40026475987599
 6  13.35502018871887 -1.82267680108011  0.10777474187419
 6  12.34498943364336 -2.00219472847285 -1.02654661716172
 6  11.11063795169517  0.02751749964997  0.02187936823682
 6  11.13754515941594  0.52952959495950  2.53948628882888
 6  12.92699581628163  1.34064728552855  1.00592364336434
 6  12.58549485568557  0.28375724902490 -2.17077102490249
 6 -4.61757825352535  2.26459896589659 -0.21016586548655
 6  9.88182937043704  0.54076487928793 -0.11938311501150
 6 -3.30411556995700  2.54377313101310 -0.32093235393539
 6  8.61254104010401  0.98145447924792 -0.16675101510151
 6 -2.95160684578458  4.02088354785479 -0.58491822392239
 6 -2.37597451255126  1.65342719141914 -0.09392192689269
 6  7.51862140464046  0.18138872687269  0.06204702060206
 6  7.64966970347035 -1.24843179527953  0.54256417931793
 6  6.22000334833483  0.74504143444344  0.01128719271927
 6 -0.95099923142314  1.73648277197720 -0.09711788688869
 6  5.00660226302630  0.15211432753275  0.11524289308931
 6  0.02605908490849  0.80362367226723  0.15580647784778
 6  3.82911231893189  0.89823017341734  0.14834736573657
 6  1.37237917871787  1.06691841954195  0.13748136723672
 6  2.52037993849385  0.18991829152915  0.29507286518652
 6  2.30585044674467 -1.13769795009501  0.58977757135714
 1 -13.05488728952895 -2.87189016681668 -1.04459968396840
 1 -13.77748297199720 -1.41767575177518 -1.80871732643264
 1 -14.00977878007801  0.34733180198020  1.62517520022002
 1 -13.94788418201820  0.47896302340234 -0.06012834723472
 1 -14.52735003910391 -1.85303401680168  0.40102170647065
 1 -10.37721633853385 -3.01899868266827 -1.69792508790879
 1 -11.22057226612661 -2.10866565796580 -3.18274656085608
 1 -9.75141732523252 -1.54541374997500 -2.28978059055906
 1 -9.54229288408841  1.22087421842184 -0.50350416051605
 1 -10.29743107070707  0.34750601470147  2.05887162996300
 1 -11.87786314721472  0.46959366096610  2.89526787688769
 1 -11.21742243594359 -0.94462133863386  2.50945173487349
 1 -12.48375091759176  2.24228035003500 -0.33174995899590
 1 -12.41483772317232  2.44604017951795  1.48332204400440
 1 -10.95177545964597  2.42438302880288  0.49082337583758
 1 -12.03033610611061 -2.40101297489749  1.37555203410341
 1 -8.92078292019202 -1.90236859455946  0.13074217311731
 1 -6.02990243634363 -1.97519084418442 -0.61543958835884
 1 -5.67859027432743 -1.47738297089709  1.14274267046705
 1 -6.96545665626563 -2.60360263326333  0.65380153095310
 1 -7.30984229532953  1.60359868896890 -0.35251492799280
 1 -4.66380302500250 -0.00899228082808  0.20816704100410
 1  13.56895257235723 -0.94139582698270  2.08870381098110
 1  12.12075725272527 -1.99097847784779  1.73693969366937
 1  13.67645000190019 -2.86964862986299  0.19464639053905
 1  12.68086552505251 -2.58298477697770 -2.05903899859986
 1  11.52320232843284 -2.65284440834083 -0.66479182128213
 1  11.91455106330633  0.66079644634463  3.45894093279328
 1  10.56467344504450  1.44351991509151  2.31746927112711
 1  10.34030165136514 -0.39352766726673  2.71671791299130
 1  13.72989989188919  1.19290791499150  0.19053311811181
 1  12.34352696589659  2.29600903870387  0.86945165086509
 1  13.68586442354235  1.40419489858986  1.82038852045205
 1  12.64788560806081 -0.11354796439644 -3.00659311121112
 1  12.31497856625663  1.34883697459746 -2.16719465436544
 1  13.63229406200620  0.41241729462946 -1.65471095649565
 1 -5.39756198009801  2.89899428622862 -0.43536494729473
 1  9.74020527112711 -0.39785844344434 -1.81289362516252
 1  15.37987083228323 -1.47195701010101  0.31047964726473
 1  8.60095194599460  2.05656798399840 -0.36051332853285
 1 -2.31298638283828  4.54935138483848  0.02083791349135
 1 -2.51994075837584  4.02697992279228 -1.48498160726073
 1 -3.84130051515152  4.85196337813781 -0.46730653215322
 1 -2.88251787188719  0.64894710671067 -0.19943289788979
 1  6.62494524442444 -1.71861142324232  0.50380286498650
 1  8.27040225472547 -1.53068779357936 -0.37256803090309
 1  8.10809073067307 -1.26288861726173  1.51294505540554
 1  6.23645879297930  1.84990879627963 -0.25259727942794
 1 -0.66885824282428  2.65978002150215 -0.39225913741374
 1  4.79799578597860 -1.07286378307831  0.29562224332433
 1 -0.20994991819182 -0.19560137303730  0.27520013111311
 1  3.94250341824182  2.00897653385339 -0.11273349834983
 1  1.67225410061006  2.20222601450145  0.00886818841884
 1  1.28314714951495 -1.32546915111511  0.76515551115112
 1  2.74607593239324 -1.80809711121112  0.04261649164916
 1  2.91014771117112 -1.34545877487749  1.64066735333533

