%nproc=3
%Mem=2GB
# td=(NStates=1) CAM-B3LYP/6-31G(d,p) 

TD

0 1
 8 -11.63326999459946  0.20416106450645 -1.53809097269727
 8 -12.95923675947595 -2.57723603160316  1.19668535353535
 8  10.44109962986299 -1.10593048094809 -1.98514224052405
 8  14.44062742944294 -0.99067778927893 -0.19705419281928
 6 -11.04370253745375 -0.14683863856386 -0.23745316971697
 6 -11.61692798249825 -1.26602778267827 -1.28549739003900
 6 -11.75177722072207  0.24372105490549  1.00389004400440
 6 -12.95483068676868 -1.79164932283228 -1.09316095009501
 6 -13.17335579357936 -0.15676312391239  0.92162685058506
 6 -13.41945837933793 -1.59943148094809  0.34528329562956
 6 -10.71329691839184 -1.97739315681568 -2.09269158745875
 6 -9.57989743354335  0.09037617141714 -0.29762672077208
 6 -11.04605058245824 -0.19842543854385  2.28370343744374
 6 -11.70814119441944  1.79194429752975  1.17318541024102
 6 -8.61548497019702 -0.58446648784878  0.31229996899690
 6 -7.13493148274828 -0.45801764786479  0.28412611291129
 6 -6.25219923482348 -1.64050273907391  0.70737297359736
 6 -6.51264692639264  0.70387121702170 -0.09976853205321
 6 -5.17501744334433  1.03887592429243 -0.15038936913691
 6  11.92507175407541 -0.07535750625063  1.42466199429943
 6  11.53153044314431 -0.58747490269027 -1.24163804350435
 6  12.68867609570957 -1.40881511121112  1.44168890229023
 6  13.28691337803780 -1.86833136653665  0.14260822522252
 6  12.36306124082408 -1.88406291529153 -0.95012897539754
 6  11.04251113901390  0.06000074797480  0.16038321862186
 6  11.01456286118612  0.04815145714571  2.63302564276428
 6  12.87371048774877  1.16054927572757  1.36838988998900
 6  12.23011931813181  0.29225809910991 -2.22586653445345
 6 -4.68058455415542  2.30464297029703 -0.55888073697370
 6  9.85157634513451  0.51286208900890  0.05582440574057
 6 -3.32273743214321  2.66263501720172 -0.58448870957096
 6  8.62857264326433  1.05202153595360 -0.00691503150315
 6 -2.92097378247825  4.04739619911991 -0.99721945404540
 6 -2.31317823292329  1.68323017171717 -0.24400693539354
 6  7.34652419491949  0.17940852885289  0.04538535443544
 6  7.65401013751375 -1.26048300040004  0.31835175807581
 6  6.16252760076008  0.80169710001000 -0.07672160816082
 6 -0.97907203870387  2.03378250195019 -0.46623479857986
 6  4.97177878067807  0.10897001310131  0.07190855965597
 6 -0.00166368736874  1.01755506540654 -0.29445854865487
 6  3.78745815351535  0.84425477587759 -0.04821229022902
 6  1.38103004380438  1.25521724942494 -0.16573895479548
 6  2.45038293879388  0.40583988368837  0.02142550045004
 6  2.30365022672267 -1.18249242954295  0.28598719231923
 1 -12.83374517531753 -2.82996597439744 -1.16732195619562
 1 -13.78698392209221 -1.44592857705771 -1.66584303900390
 1 -13.65725352755276 -0.22069500070007  1.86265894859486
 1 -13.56668606220622  0.47281240834083  0.15218288388839
 1 -14.56094339843984 -1.77137585098510  0.20512211651165
 1 -10.63291190809081 -3.07358414121412 -1.65385068046805
 1 -11.27139734863486 -2.07480227162716 -3.11526981318132
 1 -9.72974515801580 -1.38271748034804 -2.22981459395940
 1 -9.44316297109711  1.10285241624162 -0.78656246634663
 1 -10.24704603220322  0.38166943104310  2.46417216001600
 1 -11.77656301720172 -0.21408470687069  3.01189954005401
 1 -11.00962165586559 -1.30217709420942  2.30277106680668
 1 -11.99696223872387  2.41548767076708  0.31363457945795
 1 -12.33003924332433  2.08568414391439  2.02968668046805
 1 -10.61180146224623  1.96122671317132  1.31890618411841
 1 -11.99610268276828 -2.59859273287329  1.14006848574858
 1 -8.86269711161116 -1.40196855455546  0.66813591249125
 1 -5.86470591669167 -2.03659698479848 -0.21686973137314
 1 -5.53812622792279 -1.73123835643564  1.47676607280728
 1 -6.87709782038204 -2.39978225122512  1.03430958175818
 1 -7.16817812891289  1.46771510061006 -0.24718439493949
 1 -4.60805745044504  0.22265088348835  0.10831705600560
 1  13.46982265936594 -1.37954964236424  2.12005694629463
 1  12.01750692769277 -2.19352873287329  1.91723772347235
 1  13.77372972987299 -2.87919958495850  0.38766569246925
 1  12.93858129662966 -2.30866734523452 -2.08910200490049
 1  11.52773278147815 -2.69972909680968 -0.82484782688269
 1  11.62792240044004 -0.16081571487149  3.43369840854085
 1  10.46060303800380  1.06592215531553  2.66321384558456
 1  10.11857947914791 -0.58846716121612  2.71422766396640
 1  13.24397129902990  1.33705232943294  0.42770683548355
 1  12.38315092829283  2.24396383418342  1.69960466616662
 1  13.81835767286729  1.01418589768977  2.04293077467747
 1  12.52359317881788 -0.15175178477848 -3.15324777667767
 1  11.64194126252625  1.02808489938994 -2.68492642754275
 1  13.14022485508551  0.72369842274227 -1.72973845924592
 1 -5.41928415231523  3.03954834163416 -0.75812722352235
 1  9.85103635423542 -0.47555621322132 -2.20172250805081
 1  14.87340018521852 -0.93975378977898  0.69576817611761
 1  8.41938378917892  2.07269959715972 -0.26882415961596
 1 -2.47822290649065  4.81852830253025 -0.15696986728673
 1 -2.26008477277728  4.17156438123812 -1.96679978907891
 1 -4.00959734483448  4.63518169997000 -1.31577137863786
 1 -2.72840246034603  0.75144735673567  0.12288933433343
 1  6.80345309520952 -1.80413997609761  0.09065154985499
 1  8.51199641414141 -1.72093681848185 -0.22013278737874
 1  8.03297321892189 -1.23645597399740  1.40762452335234
 1  6.40932607970797  1.81033483888389 -0.22520454015402
 1 -0.85261661866187  3.00873491699170 -0.84016392789279
 1  5.11063705010501 -0.85656215291529  0.20564324542454
 1 -0.31016994019402 -0.04606641954195 -0.04098148704870
 1  4.00413958185819  1.95290092629263 -0.23453567856786
 1  1.55748262346235  2.39832562446245 -0.30596329472947
 1  1.14944377917792 -1.29849645384538  0.29789878547855
 1  2.79466079087909 -1.90311661316132 -0.33896166616662
 1  2.50653735013501 -1.33583781278128  1.37823110971097

