%nproc=3
%Mem=2GB
# td=(NStates=1) CAM-B3LYP/6-31G(d,p) 

TD

0 1
 8 -11.66408307590759  0.39197984638464 -1.20458762236224
 8 -13.22997383318332 -2.50350865886589  1.35205089008901
 8  10.72765828572857 -1.02229211711171 -2.08565229152915
 8  14.52351571827183 -0.79906862836284 -0.03510799819982
 6 -11.03978214541454 -0.07050100480048 -0.12901232563256
 6 -11.65222151185118 -0.98900007990799 -1.18611745204520
 6 -11.73099514251425  0.24592127492749  1.21544119911991
 6 -13.03435863956396 -1.67198735663566 -0.94783641764176
 6 -13.22522098009801 -0.09537698529853  1.14651933983398
 6 -13.58332476597660 -1.48078961676168  0.50164893219322
 6 -10.91952754145415 -1.65178059555956 -2.33346566486649
 6 -9.58651809560956  0.09618675247525 -0.25160211831183
 6 -11.05392136953695 -0.38160375637564  2.48583365046505
 6 -11.62491287158716  1.81847695079508  1.42260035173517
 6 -8.59840326202620 -0.75086312751275  0.21079981898190
 6 -7.26243423302330 -0.53804565066507  0.12288998929893
 6 -6.30634464936494 -1.71630031883188  0.42729496579658
 6 -6.66645230693069  0.62574340424042 -0.27795635083508
 6 -5.32802274387439  0.91901393809381 -0.34079841004100
 6  11.87932717961796 -0.07905787628763  1.49858938703870
 6  11.75805309540954 -0.55406156135614 -1.10488436813681
 6  12.68066529462946 -1.26922115181518  1.62254698809881
 6  13.55511019771977 -1.73301783518352  0.34499846424642
 6  12.55949088378838 -1.79958446744674 -0.82948691119112
 6  11.12828971687169 -0.02976822892289  0.18346552685269
 6  10.89798120302030  0.03755039703970  2.70851319151915
 6  12.70858397509751  1.30859408020802  1.61025407640764
 6  12.64362066826683  0.53460233353335 -1.89264321212121
 6 -4.81590808650865  2.17086959295930 -0.55872072097210
 6  9.92289347684769  0.53309411221122  0.08684750805081
 6 -3.34732989138914  2.48918767246725 -0.60273053375338
 6  8.61958174417442  0.93557989178918 -0.11657599759976
 6 -2.97059874497450  3.89146060556056 -1.15677540964096
 6 -2.40687760286029  1.58364021272127 -0.43901643634363
 6  7.46387593009301  0.03974456245625 -0.03220240434043
 6  7.64843958045805 -1.45170212231223  0.26004592749275
 6  6.21714306230623  0.60551748204820 -0.23724766076608
 6 -1.01392552405241  1.82198132183218 -0.65099327442744
 6  4.97833943674367  0.03954307040704 -0.21469010021002
 6  0.01239771877188  0.95370868076808 -0.24969407220722
 6  3.81060046774677  0.82054240464046 -0.48724619361936
 6  1.39986192699270  1.16681840954095 -0.51680406130613
 6  2.39198709920992  0.28972827252725 -0.32569921202120
 6  2.17612747444744 -1.19219339963996  0.10693928752875
 1 -12.98152995379538 -2.75524850265026 -1.19814503850385
 1 -13.67758298199820 -1.08696268046805 -1.69464591929193
 1 -13.81704950715072 -0.11864479567957  2.10102278497850
 1 -13.57337673127313  0.77302242934293  0.50106777237724
 1 -14.64545184928493 -1.54093280668067  0.60955255955596
 1 -10.30309892679268 -2.56680346314631 -1.96023131853185
 1 -11.73601381028103 -1.86898168956896 -3.06797508370837
 1 -10.36352853635364 -0.72275148374838 -2.97185879837984
 1 -9.25234388918892  0.99561169216922 -0.83603741384138
 1 -10.03957528512851 -0.07245598149815  2.51598734153415
 1 -11.65405076597660 -0.15067836623662  3.46610496059606
 1 -11.03232392609261 -1.61989886638664  2.31000178987899
 1 -12.06606914941494  2.45730185218522  0.71738495449545
 1 -12.07342358175818  2.05532110761076  2.36577028882888
 1 -10.41446172827283  2.09761035153515  1.54873916741674
 1 -12.19920299279928 -2.80034290789079  1.31162564146415
 1 -9.02289313121312 -1.67539589728973  0.46777587648765
 1 -5.50471991809181 -1.96112943804380 -0.49917796219622
 1 -5.74485690099010 -1.59105433803380  1.46557495369537
 1 -6.89162927352735 -2.84665693869387  0.39406555735574
 1 -7.41477278837884  1.42963129222922 -0.74694437093709
 1 -4.61200784548455  0.20954957335734 -0.10893466916692
 1  13.52497817491749 -1.25918760616062  2.52928786938694
 1  12.09959513651365 -2.18602798279828  2.00582658235824
 1  14.15104746164617 -2.60725239023902  0.55861278717872
 1  13.10101754025403 -2.13893037153715 -1.69785287998800
 1  11.69866987518752 -2.59203832773277 -0.74401974407441
 1  11.34778438663866 -0.05153478677868  3.58060309900990
 1  10.56691366906691  1.02907847094709  2.71361888608861
 1  10.23621124232423 -0.93838215271527  2.66475271647165
 1  13.66183308520852  1.48227685188519  0.93173723852385
 1  12.15044765796580  2.41239067686769  1.45127983368337
 1  13.13192903000300  1.27322180128013  2.62582906450645
 1  12.84634545404541  0.08964235463546 -2.87369982188219
 1  11.94548161656166  1.42265435633563 -1.97315525042504
 1  13.51014184678468  0.66498255115512 -1.31406689208921
 1 -5.44984720862086  3.06449083588359 -0.55926733753375
 1  10.02790404100410 -0.35221387898790 -2.08833116891689
 1  15.11364420962096 -0.72256207060706  0.71862046134613
 1  8.74372622342234  2.01187351455146 -0.30923820102010
 1 -2.22475755995600  4.26637308700870 -0.37285145544554
 1 -2.55506427072707  3.77833505830583 -2.14122723182318
 1 -3.78322470757076  4.60707888968897 -1.01760156165617
 1 -2.65464508460846  0.61228344034403 -0.26468942354235
 1  6.74453720362036 -1.90871043314331  0.32674515921592
 1  8.20594580908091 -1.91854657945795 -0.28978975307531
 1  8.13239316091609 -1.32985531393139  1.26686044694469
 1  6.12502764986499  1.70973477887789 -0.45218723842384
 1 -0.73479483648365  2.90633467696770 -1.12547245874587
 1  4.90992697909791 -1.09524602130213  0.15204788588859
 1 -0.26504542774277  0.00521870897090  0.24387699879988
 1  4.00868003590359  1.83305894209421 -0.96009823482348
 1  1.66343321852185  2.17413320522052 -0.78869156755676
 1  1.17026586138614 -1.35683228742874  0.12525152075208
 1  2.48242956775678 -2.01198750025003 -0.49749751975198
 1  2.65253194959496 -1.39418364736474  1.04359764636464

