%nproc=3
%Mem=2GB
# td=(NStates=1) CAM-B3LYP/6-31G(d,p) 

TD

0 1
<<<<<<< HEAD
 8 -11.79581624922492  0.38594924332433 -1.40090725432543
 8 -12.77559839563956 -2.61421972997300  1.27695338033803
 8  10.64676019591959 -1.12937282518252 -2.08116184248425
 8  14.49917328402840 -0.97832655415542 -0.06888137553755
 6 -11.07771593879388 -0.07120107480748 -0.30726015041504
 6 -11.69381567126713 -1.08299947984798 -1.24748358865887
 6 -11.82736477947795  0.29935661846185  1.02848250325032
 6 -13.04820002370237 -1.72879303720372 -0.96290792479248
 6 -13.22898135613561 -0.21378882648265  1.04742943084308
 6 -13.42449888338834 -1.66118765656566  0.57553632093209
 6 -10.95518110681068 -1.80575599309931 -2.37428974727473
 6 -9.57189663346335  0.18300543434343 -0.39862682078208
 6 -11.01980795819582 -0.18823441944194  2.24938000510051
 6 -11.83267364766477  1.91328643174317  0.91944003570357
 6 -8.61453487518752 -0.69677771897190  0.07182592159216
 6 -7.16019400900090 -0.57128897499750  0.14318201850185
 6 -6.39464347924792 -1.82085077387739  0.55877811411141
 6 -6.63193885558556  0.63745457535754 -0.22059061426143
 6 -5.28278822042204  0.97167920462046 -0.04473880408041
 6  11.78981822872287 -0.03962393289329  1.29029855795580
 6  11.74000129022902 -0.64246040124012 -1.24385826552655
 6  12.67441466956696 -1.23688791849185  1.51645637903790
 6  13.43541822852285 -1.75559009240924  0.30556452085209
 6  12.50316525122512 -1.92721723072307 -0.88924288678868
 6  11.05984287218722 -0.08334358645865 -0.00557337703770
 6  10.95271667656766  0.09219586158616  2.59117145734573
 6  12.65923904060406  1.27741096189619  1.29875292629263
 6  12.39919622582258  0.45285415871587 -2.00817476527653
 6 -4.66959345504550  2.13763626962696 -0.37558240714071
 6  9.85389657715772  0.49491029382938 -0.12297347404740
 6 -3.34024918331833  2.52134088778878 -0.51325158585859
 6  8.66219600560056  0.93282961676168 -0.28630297029703
 6 -3.01475316041604  3.92360381988199 -0.87594732683268
 6 -2.33013992909291  1.65399724842484 -0.24947748244824
 6  7.40340988348835  0.10416100410041 -0.05558474257426
 6  7.69521425792579 -1.16043299539954  0.41927185008501
 6  6.24381572957296  0.74768169846985 -0.15726966296630
 6 -0.89260339183918  1.95759488318832 -0.32133030813081
 6  4.94375597839784  0.17307642374237  0.03566493529353
 6  0.09726620562056  0.90431374127413 -0.09693879667967
 6  3.79374878257826  0.85185553595360 -0.14405187418742
 6  1.39951189198920  1.24541626932693 -0.22103448434843
 6  2.51732963346335  0.38210751045105  0.05005836373637
 6  2.23965382708271 -1.14096827712771  0.35289388298830
 1 -13.16651845264526 -2.67901087888789 -1.49605482948295
 1 -13.86495171887189 -0.92562654685469 -1.35941239593959
 1 -13.47012481468147 -0.34217714891489  2.20841352405241
 1 -14.00723011661166  0.54286941404140  0.56967463306331
 1 -14.50515781988199 -1.96320503390339  0.54755635993599
 1 -10.81724034093409 -2.80395717851785 -2.10732602800280
 1 -11.60621082998300 -1.72576736813681 -3.30904919111911
 1 -10.01948413191319 -1.30601981058106 -2.70136174867487
 1 -9.12518117291729  1.12950508150815 -0.74300811091109
 1 -9.95014634223422  0.15879714381438  2.12134787758776
 1 -11.35865122602260  0.30053675527553  3.05887423752375
 1 -11.26193688738874 -1.07478435493549  2.50449123882388
 1 -12.46570911341134  2.26008213021302  0.25121833783378
 1 -12.16876311571157  2.29333490899090  1.70467417921792
 1 -10.68213849594959  2.55460605110511  0.71879617311731
 1 -11.77590066256626 -2.30175304890489  1.15354983388339
 1 -8.86266710861086 -1.72531088878888  0.70670976987699
 1 -5.41922136823682 -2.29513283838384  0.00232218781878
 1 -5.96167858315832 -1.59571480408041  1.57450584678468
 1 -7.18655876647665 -2.59053132613261  0.57059321012101
 1 -7.17815912701270  1.51762009110911 -0.44146382288229
 1 -4.68888553325333  0.16908552695269  0.27332355665567
 1  13.57405308240824 -1.12641432883288  2.39995493609361
 1  12.06677185418542 -1.97919729972997  1.94270026972697
 1  13.77944030093009 -2.79430109510951  0.58603552945295
 1  13.05524296279628 -2.22226870537054 -1.88592168686869
 1  11.90595060326033 -2.75175429932993 -0.42387772987299
 1  11.73517312551255  0.15912627932793  3.48255329402940
 1  10.42233921162116  1.02616817991799  2.38574609880988
 1  10.05069269046905 -0.69071738623862  2.68306454765477
 1  13.36267316921692  1.17879650385039  0.48748281308131
 1  12.18582119531953  2.13005244304430  1.20907561326133
 1  13.26553239033903  1.25577005610561  2.38248473007301
 1  13.04602542204220 -0.11710832043204 -2.98630108200820
 1  11.75607267566757  1.25869796069607 -2.31928986388639
 1  13.21043187578758  0.84465051795180 -1.39238472387239
 1 -5.23810603450345  3.05401978877888 -0.51602301310131
 1  9.84480573117312 -0.38092675027503 -1.84766710251025
 1  15.07232007720772 -0.98588840324032  0.67655625492549
 1  8.34388623942394  1.90339266646665 -0.47299457665767
 1 -2.16354143834383  4.24893134283428 -0.20037420772077
 1 -2.57284604890489  4.04828205300530 -1.91975508460846
 1 -3.90988737383738  4.32509069086909 -0.86702650415041
 1 -2.61331095119512  0.63042525452545  0.13808085348535
 1  6.87164991489149 -1.90061962406241  0.42069455415542
 1  8.50149536403640 -1.69442416721672 -0.22991376547655
 1  8.29301922352235 -1.18959128752875  1.23526728762876
 1  6.11478662576258  1.84615842124212 -0.46671869156916
 1 -0.61774313131313  2.92126617011701 -0.53420333183318
 1  4.66382236863686 -0.88720521722172  0.36773945504550
 1 -0.08872779597960 -0.19977179007901  0.17581019211921
 1  3.89032820072007  2.00756639283928 -0.36684890989099
 1  1.60298717391739  2.20988678057806 -0.69542224062406
 1  1.29254808960896 -1.50432703690369  0.29079807540754
 1  2.78539986478648 -1.88615491699170 -0.35995376537654
 1  2.53184988138814 -1.34550877987799  1.34159744634463
=======
>>>>>>> 6a1b998aacd80a23911c140f266e48a14f2d523d

