%nproc=3
%Mem=2GB
# td=(NStates=1) CAM-B3LYP/6-31G(d,p) 

TD

0 1
 8 -11.61920858845885  0.18022867126713 -1.54412157575758
 8 -13.06765760156016 -2.56388469646965  1.26236192119212
 8  10.53015853575357 -1.17600748864886 -2.11857558385839
 8  14.37353071977198 -1.30365908740874 -0.24571905930593
 6 -10.99813798099810 -0.12231618631863 -0.32436186058606
 6 -11.50323661336133 -1.15567674757476 -1.26536537683768
 6 -11.82539458245825  0.25221190399040  0.90130978597860
 6 -12.96843204690469 -1.78264842274227 -0.99753138713871
 6 -13.28544700270027 -0.13222066966697  0.83496818471847
 6 -13.57545397889789 -1.60019155695570  0.39651841914191
 6 -10.65957154585459 -1.99525494299430 -2.12468478677868
 6 -9.56354579837984  0.04751188498850 -0.33838079617962
 6 -11.14053003040304 -0.32937853385339  2.15457052415242
 6 -11.68697907820782  1.86803190629063  1.03919201090109
 6 -8.62004542624262 -0.76555459665967  0.10884962396240
 6 -7.23008099769977 -0.50415226132613  0.21013871417142
 6 -6.32287630253025 -1.65976466526653  0.56743898019802
 6 -6.61418708040804  0.72833366326633 -0.05596415161516
 6 -5.22871281288129  0.97663970067007 -0.04806913711371
 6  11.96999624652465  0.10542057155716  1.29919944804480
 6  11.59359664976498 -0.72238839403940 -1.28466234593459
 6  12.62600982908291 -1.25685991569157  1.54153888728873
 6  13.25678036473647 -2.02747728112811  0.28727269166917
 6  12.30880581528153 -2.11964647364737 -0.91860582308231
 6  11.11937882578258  0.00870561846185  0.01650883118312
 6  11.01899330423042  0.29792643464346  2.45413775397540
 6  12.95780889758976  1.27688090889089  1.24750780178018
 6  12.47366367256726  0.25911478477848 -2.12922687048705
 6 -4.78532502820282  2.23747625362536 -0.41485633453345
 6  9.92307349484949  0.61911271407141 -0.06319749644964
 6 -3.33053821222122  2.56584533823382 -0.50486074677468
 6  8.70277006300630  1.00773710751075 -0.20967530753075
 6 -2.95217690279028  4.03653511301130 -0.74590432253225
 6 -2.41430834593459  1.71339318801880 -0.22976551125113
 6  7.48661820432043  0.25397598559856  0.09379019491949
 6  7.62093683018302 -1.16541349344934  0.41777170007001
 6  6.22550389838984  0.84290122042204  0.02262832683268
 6 -0.97387151865187  2.00063918761876 -0.12774094919492
 6  4.93444504730473  0.33997311341134  0.14500586938694
 6  0.04651113011301  1.03467677757776 -0.08620772357236
 6  3.74168357605761  0.97590794119412 -0.02634010301030
 6  1.44605654645465  1.31789351705171 -0.09901228212821
 6  2.53439133963396  0.41864116381638  0.07929128702870
 6  2.37273713541354 -1.10500468076808  0.18054664826483
 1 -12.91653345414541 -2.82094507230723 -1.32537776177618
 1 -13.88951417511751 -1.18722270647065 -1.56763321802180
 1 -13.67016481868187 -0.03675660686069  1.71470415311531
 1 -13.87358675227523  0.49305443254325  0.01901956755676
 1 -14.59448675277528 -1.77921663506351  0.34693629792979
 1 -10.64089270617062 -2.91919870267027 -1.50882617801780
 1 -11.34037424632463 -2.31942673407341 -3.08020630683068
 1 -9.77659984348435 -1.49886909550955 -2.40514212671267
 1 -9.37142579737974  1.17544967596760 -0.83095690579058
 1 -10.20289161676168  0.09984124822482  2.33680942374237
 1 -11.75785114601460 -0.15231853025303  3.16716506660666
 1 -11.22443313701370 -1.45281215771577  2.10996178587859
 1 -12.01241378387839  2.20127624962496  0.15243845984598
 1 -12.04131037043704  2.09049462496250  1.99678339013901
 1 -10.56632691479148  2.01783237373737  1.11261555505551
 1 -12.27313038553855 -2.72449532313231  0.94662914181418
 1 -9.08743958585859 -1.73509186688669  0.63288238713871
 1 -5.46746619271927 -1.70614393949395 -0.16977502190219
 1 -5.90859327462746 -1.47643287588759  1.62951134733473
 1 -6.77330744134414 -2.72030430343034  0.36197234803480
 1 -7.39496080718072  1.61267959705971 -0.33152282878288
 1 -4.43808045274527  0.25785440384038  0.41007723202320
 1  13.33216889398940 -1.29794148154815  2.43204814541454
 1  11.50459563656366 -1.91388076807681  1.47981398109811
 1  13.72794515141514 -3.06468813381338  0.72290921682168
 1  12.94558199669967 -2.26918339683968 -1.85204829952995
 1  11.56207621582158 -2.84126325022502 -0.53453879597960
 1  11.56511611981198  0.46171653835384  3.49503454215422
 1  10.36578355605560  1.17675323842384  2.57949547374737
 1  10.41692931413141 -0.59691800630063  2.43492973417342
 1  13.76482338423842  1.17700632483248  0.43306737153715
 1  12.52175478867887  2.25175461326133  0.97836254195420
 1  13.37263310041004  1.40615509460946  2.26914339593959
 1  12.66359717921792 -0.22002861246125 -3.10750320222022
 1  11.98565563396340  1.17248933983398 -2.33341127602760
 1  13.60468130073007  0.40431648454845 -1.74628011341134
 1 -5.47612983688369  3.04919930673067 -0.61629304010401
 1  9.91786303690369 -0.37223588118812 -2.24772710851085
 1  15.10234307950795 -1.11014082848285  0.39579817911791
 1  8.58292014281428  2.01156348354835 -0.70121739893989
 1 -2.21206629082908  4.36335278497850  0.00889671937194
 1 -2.54066283058306  4.02053927872787 -1.78916202530253
 1 -3.95221160626063  4.58202638443844 -0.81182098359836
 1 -2.57386700680068  0.51560377237724 -0.01968492309231
 1  6.65246799669967 -1.72701226332633  0.35655814051405
 1  8.28045325982598 -1.70231495629563 -0.26994776887689
 1  8.17266718831883 -1.11758408680868  1.36606036693669
 1  6.24260940804080  1.97808161356136 -0.27151917161716
 1 -0.74400575757576  3.02273631713171 -0.46872678417842
 1  4.97952393879388 -0.62644914161416  0.42984566566657
 1 -0.32653157635764  0.06494468156816  0.07493010411041
 1  3.60391955985599  2.02397803400340 -0.06440866586659
 1  1.66448332353235  2.31725751765176 -0.26564926332633
 1  1.37009584438444 -1.49312591679168  0.06526552215222
 1  3.02330365516552 -1.68172447394739 -0.51167893789379
 1  2.55376207260726 -1.19243347234724  1.25398868546855

