%nproc=3
%Mem=2GB
# td=(NStates=1) CAM-B3LYP/6-31G(d,p) 

TD

0 1
<<<<<<< HEAD
 8 -11.87595426302630  0.28536918531853 -1.49790695429543
 8 -13.04293512931293 -2.55640394839484  1.41775746074607
 8  10.55038055795580 -0.93889377727773 -1.97516124242424
 8  14.49457282398240 -1.01563028452845 -0.25257974537454
 6 -11.11450961816182 -0.09460341504150 -0.15253467786779
 6 -11.71317760746074 -1.07164834473447 -1.19780862116212
 6 -11.85235727872787  0.36130281308131  1.03498315331533
 6 -12.99578478217822 -1.79209936783678 -0.83007464146415
 6 -13.25401385938594 -0.11852930053005  1.05694038193819
 6 -13.53189962346235 -1.58993053085309  0.60371913921392
 6 -10.84408999769977 -1.76528194569457 -2.21493381168117
 6 -9.61829127292729  0.21713884768477 -0.26751370947095
 6 -11.11507748514851 -0.16894249024903  2.36263133023302
 6 -11.71957233753375  1.92450755385539  1.00591868356836
 6 -8.64828825052505 -0.75126316751675 -0.08756001700170
 6 -7.21745973557356 -0.48725057115712 -0.08483078277828
 6 -6.33950796569657 -1.67461615041504  0.20539277557756
 6 -6.57659332103210  0.73229405930593 -0.28302685788579
 6 -5.23855379697970  1.02253429012901 -0.26666099629963
 6  12.04451369826983  0.07724775427543  1.33508303640364
 6  11.70215750585059 -0.52634879007901 -1.22559643934393
 6  12.72209943804380 -1.23802803250325  1.55877061046105
 6  13.37512219891989 -1.74331886528653  0.18838280268027
 6  12.41188612331233 -1.88001251025103 -0.95778974147415
 6  11.10552744064406  0.09700444834483  0.19666684698470
 6  11.15473687858786  0.24212085408541  2.62292463266327
 6  12.90661377807781  1.30741396219622  1.32656570757076
 6  12.46936324252425  0.39992886618662 -2.04365831363136
 6 -4.67749424512451  2.28923142914291 -0.52130697959796
 6  9.86519770727073  0.56021682448245  0.15590441374137
 6 -3.21224638303830  2.51391014471447 -0.48902916361636
 6  8.62209199519952  0.97646398019802 -0.19022336233623
 6 -2.86472815791579  3.90053151265127 -1.01220095219522
 6 -2.29752666776678  1.49811165986599 -0.31786432113211
 6  7.41794133663366  0.13783437143714  0.10625144104410
 6  7.53549828632863 -1.38697564966497  0.18922884578458
 6  6.28160950895090  0.76724365466547 -0.05018895489549
 6 -0.93318745024502  1.72596171987199 -0.26350452555256
 6  4.87278888168817  0.09119823592359  0.11873324212421
 6  0.05374185318532  0.78145145504550 -0.01756085888589
 6  3.77023643134313  0.77961831223122 -0.02171964096410
 6  1.36428836963696  0.98045977367737 -0.23068544944494
 6  2.42657055755576  0.17111641134113  0.09695305320532
 6  2.29292915461546 -1.28347252755275  0.35106369997000
 1 -13.01931373217322 -2.83075605340534 -0.83269849384938
 1 -13.62297752145214 -1.47243122732273 -1.64638109280928
 1 -13.63427122932293  0.15591266006601  2.02167485018502
 1 -13.94480387398740  0.72066719381938  0.50791845744574
 1 -14.67657496159616 -1.68830754415442  0.49992159645965
 1 -10.56453507040704 -2.85496227902790 -1.77874316971697
 1 -11.50550075897590 -1.92898769016902 -3.10851913811381
 1 -10.07521970547055 -1.10765997459746 -2.66443805630563
 1 -9.43344199899990  1.15625775677568 -0.61064487458746
 1 -10.20423175077508  0.22402366646665  2.40348609140914
 1 -11.71563692459246  0.30461716331633  3.11898024812481
 1 -10.96431712541254 -1.22212908940894  2.32524331403140
 1 -12.10404294679468  2.24065018701870  0.03199641564156
 1 -12.39716595599560  2.22259783528353  1.73954766656666
 1 -10.58996927902790  2.12998358885889  1.33659795329533
 1 -12.22536560906090 -2.61623449704970  0.90648512741274
 1 -8.73490433233323 -1.83963232093209  0.02493159205921
 1 -5.71460090619062 -1.91420474557456 -0.66972501690169
 1 -5.52609502480248 -1.73402863546355  1.11786018221822
 1 -7.07996810741074 -2.33736600960096  0.36217236803680
 1 -7.37259857095710  1.66960528962896 -0.33964364086409
 1 -4.52921956665667  0.32576119451945 -0.15470924662466
 1  13.49075475257526 -1.34876656405641  2.41740668126813
 1  11.99090426742674 -1.78886826682668  2.00405640534053
 1  13.70351270817082 -2.65516718171817  0.43616054195420
 1  12.96689412791279 -2.01291777027703 -1.86754984968497
 1  11.59851986018602 -2.84133325722572 -0.75019036113611
 1  11.81193080128013  0.05400576727673  3.61904694339434
 1  10.55746272397240  1.18502406550655  2.55187271147115
 1  10.39238685988599 -0.51208952345235  2.75930217141714
 1  13.89255615751575  1.28064668886889  0.74327839263926
 1  12.41413402660266  2.17519695749575  1.24738944464446
 1  13.26709254635463  1.45289976907691  2.48756523812381
 1  12.79999081858186 -0.13685029462946 -2.97048950085009
 1  12.16030309870987  1.34693678457846 -2.32075000990099
 1  13.47338817141714  0.69384543744374 -1.56386187158716
 1 -5.42007423132313  3.26496088288829 -0.67828923972397
 1  10.17143839443944 -0.21957061466147 -2.39191152695269
 1  15.11645449064907 -1.03631344574457  0.25618421772177
 1  8.47470932173217  2.06953928112811 -0.42703998119812
 1 -2.34844992919292  4.49307575727573 -0.33096726702670
 1 -2.48305707000700  3.82471969676968 -2.00191330043004
 1 -3.89817620272027  4.39849803160316 -0.88564836633663
 1 -2.56284590469047  0.41165337733773 -0.05341829642964
 1  6.65163791369137 -1.95445500760076 -0.17427494279428
 1  8.32796801130113 -1.73395812061206 -0.60598137223722
 1  8.03366328792879 -1.63905623402340  1.02409617051705
 1  6.11731687878788  1.81145495089509 -0.30196221592159
 1 -0.60613197019702  2.70939498299830 -0.69254916641664
 1  4.87642362876288 -0.84480097679768  0.52139482058206
 1 -0.31866078927893 -0.26876868976898  0.30787339843984
 1  3.78177734563456  1.83595923212321 -0.22359458445845
 1  1.70521739693969  1.97036282818282 -0.54123682208221
 1  1.16857569236924 -1.62490909510951  0.62219121472147
 1  2.64269559435944 -1.72092839433943 -0.67546531653165
 1  2.84309100550055 -1.47022125112511  1.21245453205321
=======
>>>>>>> 6a1b998aacd80a23911c140f266e48a14f2d523d

