%nproc=3
%Mem=2GB
# td=(NStates=1) CAM-B3LYP/6-31G(d,p) 

TD

0 1
 8 -11.71030769836984  0.35298594699470 -1.43587075067507
 8 -12.99228006380638 -2.44868317631763  1.36113179817982
 8  10.54640015991599 -1.13370325822582 -1.86130985728573
 8  14.53849721642164 -0.95545426692669 -0.28495298269827
 6 -11.01771993919392 -0.13393734843484 -0.22625204960496
 6 -11.70863715341534 -1.07451863176318 -1.22766160646065
 6 -11.64364640764076  0.37069375217522  1.08675833083308
 6 -13.11891709540954 -1.61402156005601 -0.91638327232723
 6 -13.18666712471247 -0.00331777937794  1.03555824372437
 6 -13.49534596809681 -1.36388792659266  0.61458022532253
 6 -10.96456204490449 -1.90819623712371 -2.18687100540054
 6 -9.55369481328133  0.03804093789379 -0.35919287738774
 6 -11.02465844324432 -0.22264786078608  2.33515858295830
 6 -11.59519990029003  1.84754985808581  1.04451254295430
 6 -8.56951037273727 -0.80875891709171 -0.01029229022902
 6 -7.20215820542054 -0.75890773687369 -0.03339563926393
 6 -6.36749076397640 -2.02107079587959  0.13808604490449
 6 -6.61649731143114  0.45893672357236 -0.26545510071007
 6 -5.20855079667967  0.78678071477148 -0.29153348354835
 6  11.92849209610961  0.06689671917192  1.43531305940594
 6  11.62533982408241 -0.63223937913791 -1.15147902760276
 6  12.71110833893389 -1.21978620832083  1.56929166256626
 6  13.38507319401940 -1.82137667106711  0.27756172057206
 6  12.43952888758876 -1.92996750575058 -0.87667162966297
 6  11.14756164406440  0.05683043094309 -0.00166298599860
 6  11.23696510141014  0.25164180618062  2.63868620882088
 6  12.95164828152815  1.21413463426343  1.19412246324632
 6  12.44971127732773  0.24265313861386 -2.08895284308431
 6 -4.80580707640764  2.05718822482248 -0.51466631553155
 6  9.86264745224523  0.46170697349735  0.02241106440644
 6 -3.41002616101610  2.49944869856986 -0.53721398209821
 6  8.61268105410541  0.91231756555656 -0.12339667966797
 6 -3.13355504060406  3.99060051955196 -0.58346807890789
 6 -2.36303321842184  1.60317216591659 -0.33917645234523
 6  7.44059360186019  0.23731431943194  0.06659747564756
 6  7.54205894239424 -1.35979293139314  0.28887881078108
 6  6.24663601160116  0.78150508080808  0.11938800280028
 6 -1.03428756025603  1.94241336503650 -0.38546672177218
 6  5.00805240804080  0.20493961006101  0.08655002380238
 6 -0.01654517551755  1.01144445434543 -0.22277137993799
 6  3.78902831053105  0.89660001040104 -0.10295776477648
 6  1.33868580938094  1.37103883158316 -0.18158053895390
 6  2.47371527202720  0.50600990069007 -0.04780142224222
 6  2.26915677737774 -0.97383156345635  0.28341693529353
 1 -13.11756355715571 -2.76632961076108 -1.07799302330233
 1 -13.72976820052005 -1.14732871707171 -1.85955240994099
 1 -13.86515431763176  0.25765283408341  1.96912959565957
 1 -13.54611400500050  0.73447857495750  0.26675434103410
 1 -14.64089139323932 -1.56947566096610  0.50498210251025
 1 -10.66434505140514 -2.90991777457746 -1.66383167856786
 1 -11.48368857775778 -2.20573536493649 -3.17620590679068
 1 -10.12023420692069 -1.30001921052105 -2.64992660516052
 1 -9.31262991779178  1.01792392339234 -0.98047185728573
 1 -10.02056338393839 -0.04593332923292  2.40347609040904
 1 -11.65680104100410 -0.02355565396540  3.34680303040304
 1 -10.87761845554556 -1.35931280778078  2.12847363706371
 1 -11.98431097359736  2.31864798679868  0.04569778577858
 1 -12.34935117451745  2.08862443794379  1.70895460726073
 1 -10.64987526962696  2.20233082358236  1.13700799429943
 1 -12.15645871837184 -2.75800867446745  1.23291777067707
 1 -9.11532237413741 -1.69771812951295  0.34641374027403
 1 -5.56287573367337 -2.23814713981398 -0.71107915231523
 1 -5.87774018931893 -1.86561179377938  1.02943133933393
 1 -7.04844495509551 -2.83480575357536  0.25718186898690
 1 -7.25835714681468  1.33402173127313 -0.16786646314631
 1 -4.46608325302530  0.09491811021102  0.16131235553555
 1  13.48299397649765 -1.11747343474347  2.31773671427143
 1  12.08839401640164 -2.08985836583658  1.99469546924692
 1  13.68982133903390 -2.84449611461146  0.48041496739674
 1  12.91394883338334 -2.35276175467547 -1.82726582128213
 1  11.47559756795680 -2.69603872777278 -0.39410475257526
 1  12.04284389258926  0.40976134283428  3.37473251195120
 1  10.36462344004400  0.96263182628263  2.56394391859186
 1  10.40738836003600 -0.55723403790379  2.91598783998400
 1  13.35043194509451  1.06199482368237  0.40575464026403
 1  12.38208082128213  2.09075851365137  0.97640234593459
 1  13.65817165426543  1.25546002510251  2.11069755135513
 1  12.57464828432843 -0.30211682128213 -2.93761621352135
 1  11.91540860926093  1.24504659555956 -2.16735467036704
 1  13.52913374597460  0.40101615451545 -1.82526801220122
 1 -5.52520474437444  2.82754714151415 -0.45456686748675
 1  10.14669592019202 -0.29866852445245 -2.38900123592359
 1  15.05009785498550 -0.81216103050305  0.49094769406941
 1  8.64824667546755  1.73375570277028 -0.47567484468447
 1 -2.22411749594959  4.21261771147115  0.02082791249125
 1 -2.62989175347535  4.16591381618162 -1.53660676977698
 1 -3.87062344744474  4.59601778357836 -0.54632443394339
 1 -2.67931755185519  0.61632384438444 -0.38117107170717
 1  6.56018876877688 -1.83209277137714  0.30395287998800
 1  8.21252646714671 -1.78035276007601 -0.18437921202120
 1  7.85441536313631 -1.39807213561356  1.52244600550055
 1  6.23405855295530  1.85219902530253 -0.19210122982298
 1 -0.59924128112811  2.79688373187319 -0.59019893139314
 1  4.74238022442244 -0.83046954365436  0.26292897399740
 1 -0.16541546474648 -0.09966177907791  0.05737834893489
 1  4.23656282418242  1.96584222042204 -0.50066229122912
 1  1.47534440964096  2.40021581348135  0.12277957955796
 1  1.17165600040004 -1.06515311951195  0.57526652225223
 1  2.38388971377138 -1.59441574307431 -0.74279204920492
 1  2.90208690509051 -1.15509973897390  0.99897318391839

