%nproc=3
%Mem=2GB
# td=(NStates=1) CAM-B3LYP/6-31G(d,p) 

TD

0 1
 8 -11.66406307390739  0.18127877627763 -1.53395055865587
 8 -12.94523535933593 -2.55828413641364  1.41373705870587
 8  10.62922844274427 -1.20257014491449 -2.10722444874487
 8  14.43417678437844 -0.92693141464146  0.02571808440844
 6 -11.02162032923292 -0.24922887758776 -0.34316374077408
 6 -11.49489577927793 -1.27599877977798 -1.29761860216022
 6 -11.68106014901490  0.25413209600960  1.00184983998400
 6 -12.83785898959896 -1.87391754965497 -0.87823945794579
 6 -13.11277973597360 -0.14840228782878  0.94624931283128
 6 -13.39129556305631 -1.62041357915792  0.49449821712171
 6 -10.69233482218222 -2.04246966446645 -2.27466978527853
 6 -9.47655709950995  0.06822395619562 -0.40107706580658
 6 -10.94313029042904 -0.32204780078008  2.29527459455946
 6 -11.51469184948495  1.84267937103710  0.97342543424342
 6 -8.60175359705971 -0.75713375457546  0.19597833683368
 6 -7.24707269686969 -0.47555940204020  0.17944564486449
 6 -6.24712872777278 -1.61145983478348  0.38523075937594
 6 -6.68568423012301  0.75891672157216 -0.01473002820282
 6 -5.26739668126813  1.18222025872587 -0.15274960516052
 6  11.76828607550755 -0.05407537803780  1.42212174027403
 6  11.61901919201920 -0.75069122432243 -1.28281216091609
 6  12.60727795589559 -1.44397862756276  1.48521325472547
 6  13.39005369206921 -1.80780531393139  0.35457942234223
 6  12.40412534723472 -1.89576408540854 -0.78313227572757
 6  10.97759464736474 -0.02568782088209  0.03719089938994
 6  10.88684008890889  0.04934157615762  2.52839517971797
 6  12.71047416411641  1.21218443924392  1.44111716271627
 6  12.40003630983098  0.26715558885889 -2.11430537833783
 6 -4.78778527422742  2.41147365336534 -0.42945779467947
 6  9.82721390889089  0.41773257605761 -0.09549072577258
 6 -3.36463162156216  2.71145989968997 -0.49217947864786
 6  8.59870965696570  0.84734106790679 -0.18383272327233
 6 -3.05336702180218  4.18445990549055 -0.79124885698570
 6 -2.34174108920892  1.86895874457446 -0.20380291499150
 6  7.34358390089009  0.12479306730673 -0.09350853495350
 6  7.47294203070307 -1.34357130923092  0.19139906280628
 6  6.15267661566157  0.81636856715672 -0.27716165216522
 6 -0.97287141864186  2.13951307500750 -0.18589676477648
 6  4.96012761556156  0.18607772387239 -0.10382901410141
 6  0.02309878887889  1.19998330823082 -0.00115921872187
 6  3.75031443914391  0.87172752315232 -0.19674714371437
 6  1.36231817261726  1.39640136783678 -0.16498887978798
 6  2.44086198669867  0.46806610631063 -0.02066870897090
 6  2.28293815551555 -1.00855503580358  0.22492108570857
 1 -12.84622642344234 -3.18563154095410 -0.78284350835083
 1 -13.59791501520152 -1.57697168136814 -1.61896835153515
 1 -13.55890369256926 -0.05390832203220  1.85854853755376
 1 -13.82379177277728  0.49732485958596  0.35164282988299
 1 -14.47404470857086 -1.85016372977298  0.50201180548055
 1 -10.55477409430943 -3.09276605940594 -2.02243753915392
 1 -11.19595980488049 -2.46416120752075 -3.18243652985299
 1 -9.72954513801380 -1.70398960756076 -2.41955356785678
 1 -9.40180883568357  1.07775990699070 -0.79322313241324
 1 -9.76546787438744 -0.31110984688469  2.33081882468247
 1 -11.33307866876688  0.00217691929193  3.13798214831483
 1 -11.14182487618762 -1.45670254675468  2.51177196689669
 1 -11.86304884738474  2.33793991599160 -0.03005978997900
 1 -12.34117035643564  2.12981855735574  1.81990570237024
 1 -10.59793007510751  2.10050064056406  1.32471676517652
 1 -12.10040311281128 -2.67306017961796  1.29992447134713
 1 -8.98441928382838 -1.73348170587059  0.53620271917192
 1 -5.63138258435844 -2.06550987608761 -0.35163320772077
 1 -5.66593900920092 -1.42036726932693  1.22125052125213
 1 -6.62235234583458 -2.42812508550855  0.70446659745975
 1 -7.37909922102210  1.51800012911291 -0.19095877237724
 1 -4.73935057975797  0.25588420682068  0.04544076837684
 1  13.12833851095109 -1.53011469886989  2.48694363496350
 1  11.87945312231223 -2.28125750575057  1.51198719841984
 1  13.70059241614161 -2.77669933493349  0.50854778067807
 1  12.85043248174817 -2.33272975147515 -1.65511860656066
 1  11.78973898209821 -2.73702282618262 -0.43699904200420
 1  11.40048965716572  0.43567393409341  3.34055909460946
 1  10.04500147784779  0.86695225832583  2.33445096929693
 1  10.15899352055206 -0.89937825232523  2.69218545974598
 1  13.51043794569457  1.07207583178318  0.82361642644264
 1  12.30401301450145  2.11904134193419  1.30919562526253
 1  13.40973681078108  1.12781726082608  2.47240372197220
 1  12.72073289278928 -0.39268587818782 -3.06392884478448
 1  11.70639770817082  0.99182127302730 -2.63168110301030
 1  13.08074890749075  0.75405145804580 -1.51045653105310
 1 -5.53352557645765  3.14949933673367 -0.51608301910191
 1  9.96647789838984 -0.55820447804780 -2.21396373217322
 1  15.15997884308431 -0.81245105950595  0.79150775007501
 1  8.40252210301030  1.90985331253125 -0.21630890809081
 1 -2.24693977817782  4.59551600130013 -0.14778894919492
 1 -2.40891965626563  4.01475870067007 -1.70732384148415
 1 -3.87130351545155  4.76794497629763 -0.95437523902390
 1 -2.47444706480648  0.76866907890789 -0.21619457405741
 1  6.59567231713171 -1.90508007010701 -0.15091260656066
 1  8.26049126362636 -1.78891361616162 -0.32617339143914
 1  7.63659358095810 -1.67444977337734  1.14665842674267
 1  6.17439258635864  1.89205301070107 -0.54805682538254
 1 -0.38456981398140  3.18575261876188 -0.42967287878788
 1  4.82587857425743 -0.89624612131213  0.29314199529953
 1 -0.03014193739374  0.20950913801380  0.25021763286329
 1  4.13983315121512  1.95027066326633 -0.51866409140914
 1  1.53245012021202  2.43389918181818 -0.36519921832183
 1  1.28485732053205 -1.26368297249725  0.21061005660566
 1  2.75658698349835 -1.60889719121912 -0.58826659665967
 1  2.76080277667767 -1.20667489648965  1.08161144774477

