%nproc=3
%Mem=2GB
# td=(NStates=1) CAM-B3LYP/6-31G(d,p) 

TD

0 1
<<<<<<< HEAD
 8 -11.94994166176618  0.33551419981998 -1.38519568316832
 8 -13.09532036783678 -2.54411271927193  1.44026971197120
 8  10.64896041594159 -1.00002989088909 -1.98886261256126
 8  14.39674304100410 -1.18235695719572  0.00874638723872
 6 -11.01301946914691 -0.09210316501650 -0.32296172057206
 6 -11.71073736343634 -1.05814699459946 -1.22251109140914
 6 -11.71585362836284  0.32889957275728  1.09230888588859
 6 -12.92763796749675 -1.84498465636564 -0.79331096509651
 6 -13.24791324932493 -0.09487693529353  0.98689337723772
 6 -13.50403683718372 -1.55116665446545  0.55920468776878
 6 -10.82497808650865 -1.78560397789779 -2.29821213951395
 6 -9.59353879767977  0.31872900670067 -0.50222718081808
 6 -10.94262023942394 -0.28697429342934  2.24030909800980
 6 -11.61493187348735  1.82675777887789  1.16081417311731
 6 -8.75194861656166 -0.63112115331533  0.00503924292429
 6 -7.26273426302630 -0.59148099419942 -0.03263556325633
 6 -6.51237525242524 -1.83741243004300  0.24725696199620
 6 -6.70688635033503  0.66232706260626 -0.14136269146915
 6 -5.33030297189719  0.84839687638764 -0.14868919911991
 6  11.90292953985399  0.17553758325833  1.40458998709871
 6  11.66724401450145 -0.57323347854785 -1.21546542624262
 6  12.54399162726273 -1.23944817451745  1.66883161656166
 6  13.28388307500750 -1.88728326172617  0.44351831623162
 6  12.23242817751775 -1.98702321132113 -0.70803476597660
 6  11.14337122502250  0.10609535743574  0.04511169146915
 6  10.93524492939294  0.52917955995600  2.56863920412041
 6  13.01556467316732  1.28705192599260  1.23299635063506
 6  12.69637594379438  0.21854072737274 -2.06653060086009
 6 -4.69865636133613  2.16104861086109 -0.25529037793779
 6  9.97999918741874  0.59979078187819 -0.09087026372637
 6 -3.32531769016902  2.49038779247925 -0.39437969866987
 6  8.68345813181318  1.03633996779678 -0.26292063206321
 6 -2.94186587168717  3.94091555105511 -0.39140887298730
 6 -2.35594250935093  1.56497834653465 -0.29126166086609
 6  7.41916145864587  0.23479406740674  0.02319313521352
 6  7.65733046954696 -1.13265021712171  0.34393431633163
 6  6.24714606260626  0.78428535883588 -0.11957589358936
 6 -0.96741087258726  1.75384450815082 -0.37032520762076
 6  5.03164476727673  0.10416953305331 -0.14549318051805
 6  0.04248072707271  0.75271858175818 -0.31035013781378
 6  3.85848525622562  0.81647199759976 -0.19299676867687
 6  1.46573851465147  1.02619434713471 -0.47721010191019
 6  2.51539944044404  0.18968826852685 -0.35101174327433
 6  2.31313117481748 -1.19095327562756  0.02658125172517
 1 -13.06650845164516 -2.96698967676768 -0.99382460646065
 1 -13.61231645534553 -1.27242122632263 -1.61527798249825
 1 -13.76024382658266  0.12079914871487  1.97174985768577
 1 -13.57594698829883  0.84048917601760  0.15928359395940
 1 -14.54282158625863 -1.73541225462546  0.34448605290529
 1 -10.70412902980298 -2.85718250105011 -2.01219651505151
 1 -11.03232344124413 -1.69552434383438 -3.28607689388939
 1 -9.80102228572857 -1.23759296789679 -2.27018863136314
 1 -9.44756341114111  1.34013614461446 -1.02779658975898
 1 -9.89525085268527 -0.01344007990799  2.14629037183718
 1 -11.23567892879288  0.31642834443444  3.13705205530553
 1 -10.83028372207221 -1.20303718021802  2.56318710841084
 1 -11.93510605310531  2.13399952195219  0.21187440344034
 1 -12.14687092649265  2.46360193569357  1.95195890769077
 1 -10.62052233433343  2.21651224172417  1.67569186268627
 1 -12.11026409890989 -2.34896777037704  1.49297377627763
 1 -9.32807364926493 -1.58124648234823  0.40232933183318
 1 -5.90068951505150 -2.14062738783878 -0.60982902730273
 1 -5.61267368266827 -1.96230146274627  1.06432482868287
 1 -7.25431554215422 -2.71532380538054  0.21772792359236
 1 -7.36277758885889  1.56405473457346 -0.33991366786679
 1 -4.44394103880388  0.07482610101010 -0.08896267196720
 1  13.32305798289829 -1.20721240864086  2.26669160976098
 1  11.80166534353435 -1.80784016401640  1.82072807250725
 1  13.56024838173817 -2.91740340534053  0.93606053195320
 1  12.76949438793879 -2.48095457395740 -1.50083317801780
 1  11.36012602080208 -2.53041216511651 -0.32222756485649
 1  11.66921652985299  0.72775314201420  3.53118815751575
 1  10.68432541024102  1.67342290539054  2.42671019521952
 1  10.12479010021002 -0.08624693919392  2.88990523172317
 1  13.69376627852785  1.09459808400840  0.49354341914191
 1  12.72615522872287  2.44060349814981  1.34811951765177
 1  13.50731656875687  1.12237671677168  2.20388687028703
 1  12.69770058955896 -0.41168777837784 -3.07147959985999
 1  12.33360042844284  1.09043113401340 -2.55691362626263
 1  13.38193902650265  0.39440549344935 -1.40925641104110
 1 -5.54323654755475  2.87613200000000 -0.22074348514851
 1  10.13610486108611 -0.24254291189119 -2.22281461726173
 1  14.98719156435643 -0.82757257165717  0.69666826612661
 1  8.40640249104911  2.11422374957496 -0.61406868406841
 1 -2.54152923712371  4.32438888858886  0.65499132883288
 1 -2.24694345864587  4.18255548034803 -1.06641975107511
 1 -3.76914329942994  4.69761794359436 -0.55795559705971
 1 -2.71788140824082  0.39552176417642 -0.33941689628963
 1  6.84551730163016 -1.75204476657666  0.31428391309131
 1  8.23839905440544 -1.73933865866587 -0.54224499859986
 1  8.25282520412041 -1.29728205660566  1.21563532443244
 1  6.27274242134213  1.97489129452945 -0.22122414211421
 1 -0.78614997199720  2.69276331983198 -0.29789970147015
 1  4.99373535993599 -0.93105960266027  0.19683236433643
 1 -0.28553747694769 -0.26204801770177 -0.11869925882588
 1  4.17102627052705  1.88601423762376 -0.16629885488549
 1  1.90376725192519  2.05365115701570 -0.41696439483948
 1  1.30170900570057 -1.61858846304630  0.00334933053305
 1  2.94603592839284 -1.81486778827883 -0.61615938593859
 1  2.59454615101510 -1.21752598159816  1.00800408700870
=======
>>>>>>> 6a1b998aacd80a23911c140f266e48a14f2d523d

