%nproc=3
%Mem=2GB
# td=(NStates=1) CAM-B3LYP/6-31G(d,p) 

TD

0 1
<<<<<<< HEAD
 8 -11.86296296389639  0.21822247064706 -1.52157932153215
 8 -12.72869370517052 -2.56882519051905  1.39361504650465
 8  10.47743326322632 -1.32162205010501 -1.96609033533353
 8  14.49476284298430 -1.16971569306931 -0.24431891929193
 6 -11.06153432063206 -0.20667462216222 -0.36366579097910
 6 -11.69209549924992 -1.09445062496250 -1.17717655795580
 6 -11.72600464346435  0.20210689348935  1.00546020102010
 6 -13.06271147484748 -1.79727988588859 -0.93230486448645
 6 -13.19351780978098 -0.18866631423142  0.99257394529453
 6 -13.52642907640764 -1.65467700550055  0.58654742204220
 6 -10.84571015971597 -1.89483490099010 -2.26513883218322
 6 -9.64361380518052  0.09328646244624 -0.48101505960596
 6 -10.92745872327233 -0.32672826882688  2.22935800290029
 6 -11.73869424972497  1.73193829692969  0.90669876157616
 6 -8.67959138083808 -0.69264730593059 -0.00229149014902
 6 -7.19009699929993 -0.51944379047905 -0.04446674637464
 6 -6.28921293619362 -1.70978966776678  0.23900613691369
 6 -6.71870753245325  0.76436726662666 -0.22431098629863
 6 -5.25379532113211  0.96543858055806 -0.24700903110311
 6  12.00800004690469  0.03524355385539  1.35668519661966
 6  11.62900019011901 -0.77485364056406 -1.32410629032903
 6  12.74888211631163 -1.31916614631463  1.57567230063006
 6  13.39755444214422 -1.87449198259826  0.25504946934693
 6  12.37895282998300 -1.98282279127913 -0.83564752725273
 6  11.12764965286529 -0.04025927802780  0.06906408670867
 6  11.17937934283428  0.27294393639364  2.53570591079108
 6  12.95216833353335  1.21868508930893  1.15426847784778
 6  12.29190549674967  0.26862573587359 -2.11116506430643
 6 -4.77340383608361  2.25285779177918 -0.25253010191019
 6  9.93002418991899  0.47215801860186  0.05798462176218
 6 -3.38517367576758  2.64671342504250 -0.34739500020002
 6  8.69617940394039  0.87118345214521 -0.25629996999700
 6 -3.00639232433243  4.02817427692769 -0.76732646474647
 6 -2.30719763486349  1.73384523322332 -0.25961849654966
 6  7.33031257375738  0.20347093509351 -0.04160334443444
 6  7.47897263376338 -1.24940189228923  0.33945386828683
 6  6.20068141614161  0.80710764106411 -0.01039497549755
 6 -0.98297242874287  2.07136626032603 -0.26096427152715
 6  4.87263886668667  0.32865198129813  0.10921229002900
 6  0.02265874487449  1.07825113501350 -0.13611271407141
 6  3.80919032673267  1.09210956135614  0.11075360636064
 6  1.42087402820282  1.29023075077508 -0.07897027792779
 6  2.46645454595460  0.48655795549555  0.14486784468447
 6  2.41949181088109 -0.95381956225623  0.48257685128513
 1 -13.13954575537554 -3.00045302310231 -1.13752897689769
 1 -13.66051127482748 -1.33756774097410 -1.59729618431843
 1 -13.61177898009801 -0.06564949614961  1.86683936663666
 1 -13.77902729632963  0.33997912501250  0.17974564016402
 1 -14.58437574167417 -1.70552926632663  0.68227983228323
 1 -10.66670528742874 -2.89027581038104 -1.94104940034003
 1 -11.48624883378338 -2.07949274067407 -3.12085037123712
 1 -9.99078126162616 -1.30977018561856 -2.59891150365036
 1 -9.55277393219322  0.97399953095310 -0.88708251835184
 1 -9.92205353295330  0.18615988008801  2.17013275607561
 1 -11.36780214111411  0.19918662026203  3.14691304140414
 1 -11.03005369906991 -1.39193607010701  2.27011780148015
 1 -11.95598814131413  2.20591671367137 -0.01465824982498
 1 -12.35859209860986  2.12671824732473  1.83942765456546
 1 -10.64630491259126  2.09355994649465  1.01130542404240
 1 -11.82202527502750 -2.72309518311831  1.06998147704770
 1 -8.94983582548255 -1.65972433013301  0.35740483938394
 1 -5.91308075417542 -1.88798212331233 -0.82955099949995
 1 -5.74127654295429 -1.36347157975798  1.08314671087109
 1 -7.09139925052505 -2.44328660166017  0.44512066286629
 1 -7.45121643274327  1.66642497159716 -0.20234991149115
 1 -4.67412405710571  0.14857347574757 -0.33462723842384
 1  13.66686236333633 -1.22119380678068  2.29748468906891
 1  12.00079525652565 -2.01498087808781  1.90763676337634
 1  13.86344870177018 -2.88552021702170  0.45000192609261
 1  12.95818325682568 -2.35163164166417 -1.68858195289529
 1  11.55473548174818 -2.75262438633863 -0.54624996709671
 1  11.95791539973997  0.41991235793579  3.28116315501550
 1  10.76455343304330  1.27855341844184  2.54579210341034
 1  10.23047066826683 -0.53543185768577  2.68819506070607
 1  13.53985088698870  1.03683230743074  0.27924198899890
 1  12.45219783298330  2.10252969076908  0.94311901760176
 1  13.64984082118212  1.48928340744074  2.03363984558456
 1  12.27156797629763 -0.03638024762476 -3.22420487238724
 1  11.67181424982498  1.37537962886289 -2.14066200110011
 1  13.21600243284328  0.46636268916892 -1.62964845024502
 1 -5.53044526842684  3.00375476227623 -0.22311372217222
 1  9.99456070667067 -0.46601525912591 -2.32473480928093
 1  14.99062190739074 -0.80068988338834  0.53582218151815
 1  8.54967681848185  1.91968429562956 -0.67778505570557
 1 -2.40790587478748  4.58520497019702 -0.02852702300230
 1 -2.29166793109311  3.98489571437144 -1.73595670477048
 1 -3.83564995009501  4.72874105590559 -1.05162496399640
 1 -2.59872949304931  0.62711492349235 -0.07302025662566
 1  6.70311306120612 -2.01789135123512  0.25605809050905
 1  8.13349856435644 -1.77431215601560 -0.22703347744774
 1  7.64315423702370 -1.46933926232623  1.40336409730973
 1  6.38559370647065  1.80320412581258 -0.37904992469247
 1 -0.53499485648565  3.08727277077708 -0.23362327382738
 1  4.64443042944294 -0.70563706040604  0.37573025412541
 1 -0.42172109530953  0.10094828192819 -0.01703909280928
 1  3.83273244114411  2.14507014321432  0.22017979297930
 1  1.71211808700870  2.24502029392939 -0.09368206660666
 1  1.36028486328633 -1.22123872807281  1.05885488108811
 1  2.44040536533653 -1.52685898739874 -0.51302907290729
 1  3.33364006040604 -1.13499772877288  1.13163645024502
=======
>>>>>>> 6a1b998aacd80a23911c140f266e48a14f2d523d

