%nproc=3
%Mem=2GB
# td=(NStates=1) CAM-B3LYP/6-31G(d,p) 

TD

0 1
<<<<<<< HEAD
 8 -11.65679234683468  0.31355200360036 -1.37870503410341
 8 -12.89971080688069 -2.53708201620162  1.33669935493549
 8  10.60722624252425 -1.04171405930593 -1.95097882418242
 8  14.53273664036404 -0.99550827232723 -0.12437692509251
 6 -11.02430059725973 -0.10510446514651 -0.26739616401640
 6 -11.58235452515251 -1.13284446434643 -1.31145998629863
 6 -11.78677072007201  0.36191287408741  0.90171982698270
 6 -12.95062026572657 -1.75695585348535 -0.99943157715772
 6 -13.26114457245725 -0.04715216281628  0.86043073097310
 6 -13.46794322782278 -1.48589012681268  0.43996276357636
 6 -10.77558314701470 -1.92322774027403 -2.23118543684368
 6 -9.48350779457946  0.14721185498550 -0.29932689078908
 6 -11.17648362576258 -0.12315791179118  2.18143321042104
 6 -11.75169554985498  1.90481558465847  0.94204229592959
 6 -8.61561498319832 -0.69785782698270  0.14457319631963
 6 -7.15742373197320 -0.55105695179518  0.12831053135314
 6 -6.38026204110411 -1.79746843564356  0.43264550085008
 6 -6.55908156985699  0.63283411331133 -0.06427498269827
 6 -5.25803574517452  0.89286132283228 -0.03308763896390
 6  11.90782002890289  0.14168419791979  1.34790431853185
 6  11.65409269936994 -0.55869202440244 -1.22977685738574
 6  12.56720394849485 -1.18081231093109  1.58394312771277
 6  13.40037472417242 -1.76452098549855  0.28121208560856
 6  12.42487742244224 -1.88072258125813 -0.78684264676468
 6  11.03813070097010  0.02043679157916  0.04993217351735
 6  10.98987039193919  0.24981162316232  2.60384272447245
 6  12.89150226692669  1.30326354715472  1.24562761376138
 6  12.54765107130713  0.28030690399040 -2.02121606940694
 6 -4.76977347304730  2.19683218921892 -0.16816166506651
 6  9.88554974247425  0.45814661746175 -0.03041421812181
 6 -3.44896005440544  2.62915166886689 -0.29563982468247
 6  8.68948873487349  0.92093842764276 -0.22207654765477
 6 -3.10803248834883  4.00794225372537 -0.77225695779578
 6 -2.36801371647165  1.65042689138914 -0.16266880158016
 6  7.43776331883188  0.07932852085209 -0.05785496959696
 6  7.70557529402940 -1.41324827692769  0.19578950185019
 6  6.25102645064506  0.74159108940894 -0.24082801880188
 6 -0.94756888838884  1.91845096879688 -0.27659583468347
 6  4.84818642144214  0.00112922902290 -0.13537216841684
 6 -0.07002052305231  0.92969627952795 -0.14383348614862
 6  3.70173958165817  0.74454480488049 -0.17607507650765
 6  1.33329527032703  1.15376710441044 -0.30528290919092
 6  2.42361026152615  0.25165446514651 -0.11154779687969
 6  2.29170903260326 -1.14582876317632  0.29981857545755
 1 -12.84589639043904 -2.89097207500750 -1.06080130413041
 1 -13.58735395909591 -1.43179716391639 -1.61566802150215
 1 -13.72363016521652  0.09422649144915  1.91033371607161
 1 -13.69976937053705  0.57623275037504  0.18789645524553
 1 -14.56553385748575 -1.84134284768477  0.66134773907391
 1 -10.56449506640664 -2.94356113891389 -1.86324161956196
 1 -11.30099030793079 -2.06019081048105 -3.13702198839884
 1 -9.86192837633763 -1.40597980658066 -2.33074468696870
 1 -9.42153080788079  1.20643277427743 -0.70542435253525
 1 -10.07712904050405  0.03245450955095  2.08039378217822
 1 -11.57658301920192  0.47550425202520  3.14790314041404
 1 -11.31399209290929 -1.23958083458346  2.27773856355635
 1 -12.15385792829283  2.44163028502850  0.05313852985299
 1 -12.22159839923992  2.22569814531453  1.99253296509651
 1 -10.75194547664766  2.37022761326133  1.13719801330133
 1 -12.06673974647465 -2.85331820542054  0.85211969086909
 1 -8.89052989488949 -1.78588694639464  0.46816591549155
 1 -5.85621506760676 -2.14329765486549 -0.39985803020302
 1 -5.78836125142514 -1.76709194179418  1.35941433763376
 1 -7.13199330993099 -2.72308458145815  0.58826497729773
 1 -7.28641995309531  1.37154548364836 -0.25738541504150
 1 -4.53598024272427  0.08685730413041  0.44873109740974
 1  13.36358203530353 -1.09510119751975  2.38745368596860
 1  12.02323750075007 -2.03743312331233  1.78844484418442
 1  13.63616597349735 -2.81788345334533  0.65286221212121
 1  12.99435687418742 -2.29730620912091 -1.58897199189919
 1  11.90955096329633 -2.67544666856686 -0.45516085818582
 1  11.51623123132313  0.15959632633263  3.37452249094909
 1  10.45606258395840  1.10505606870687  2.60255777997800
 1  10.08337595879588 -0.48692700720072  2.50388662986299
 1  13.77249415131513  1.02709133333333  0.42711677647765
 1  12.55193780698070  2.43123256105611  0.87929263496350
 1  13.22385822292229  1.42852733183318  2.32587906950695
 1  12.69825064456446 -0.19062567216722 -3.05654810671067
 1  12.28485555395540  1.48583067396740 -2.33252118701870
 1  13.70027085968597  0.49173522642264 -1.86524200960096
 1 -5.53695591949195  2.89428381518152 -0.33408481928193
 1  10.44619587018702 -0.17452611021102 -2.40433276907691
 1  15.31797464266427 -1.03744355875588  0.62265086438644
 1  8.34305615641564  1.93514584178418 -0.47825510271027
 1 -2.41906699089909  4.78288473817382 -0.02788695899590
 1 -2.71834059835984  4.01365859065907 -1.85241835093509
 1 -3.99130551565157  4.71704988678868 -0.81675147664766
 1 -2.56063568366837  0.63049526152615  0.09206625202520
 1  6.80126287618762 -2.16490605270527  0.05434791949195
 1  8.44538975347535 -1.56807153195320 -0.40911168526853
 1  7.91354127572757 -1.60756308470847  1.30378413931393
 1  6.29477462456246  1.69228303370337 -0.22801482118212
 1 -0.62987434443444  2.79406344984498 -0.56731664316432
 1  4.90716670307031 -1.04357085378538  0.00728340944094
 1 -0.39137806100610 -0.03440525342534 -0.15160254915492
 1  3.76368553645365  1.79852548874888 -0.30530275527553
 1  1.62820969616962  2.17344313621362 -0.39930262866287
 1  1.22717155195520 -1.45687229142914  0.54430342594259
 1  2.49815113991399 -1.85877217871787 -0.51150892089209
 1  2.86759345574557 -1.55717994699470  1.32654594119412
=======
>>>>>>> 6a1b998aacd80a23911c140f266e48a14f2d523d

