%nproc=3
%Mem=2GB
# td=(NStates=1) CAM-B3LYP/6-31G(d,p) 

TD

0 1
 8 -11.61361802940294  0.14467511591159 -1.64677184078408
 8 -13.03980481628163 -2.28261656965697  1.51381706670667
 8  10.71697721762176 -0.87031691959196 -2.20673439973997
 8  14.52565593229323 -1.19768849034904 -0.07113160056006
 6 -11.00180834803480 -0.26538049274927 -0.40246967136714
 6 -11.70468675837584 -1.26256743664366 -1.23649248954895
 6 -11.63926596959696  0.39950663346335  0.77601725672567
 6 -13.11450665436544 -1.80215037293729 -0.81552318631863
 6 -13.14895335333533  0.10847339973997  0.76895158305831
 6 -13.59562599609961 -1.36185772357236  0.54283305060506
 6 -10.88307389608961 -2.06388180568057 -2.21408372667267
 6 -9.59072851665167 -0.05141800800080 -0.41686864496450
 6 -11.03541951935193 -0.01481707770777  2.11375644274427
 6 -11.60815119541954  1.94735983908391  0.77289538123812
 6 -8.68666208790879 -0.82173021422142  0.18880761976198
 6 -7.17469545914591 -0.63578542464246  0.19622732303230
 6 -6.29446346124612 -1.79480816961696  0.59203143944394
 6 -6.63918958065807  0.63079390929093 -0.09570812601260
 6 -5.23817375897590  0.82510454715472 -0.32522685288529
 6  11.88149739663966  0.06680671017102  1.25676520462046
 6  11.66430372047205 -0.45620177537754 -1.27033091279128
 6  12.61634886298630 -1.31589581928193  1.41656639003900
 6  13.37005169186919 -1.87165169856986  0.25471943634363
 6  12.37621255595560 -1.88363287228723 -0.91663562606261
 6  11.08934582248225  0.05951069896990 -0.01630445014501
 6  10.87153855875587  0.31069771177118  2.50606294649465
 6  12.90515363206321  1.17390061086109  1.22637568856886
 6  12.62103841004100  0.48490736403640 -2.07671161896190
 6 -4.79283577927793  2.09152165816582 -0.47413226212621
 6  9.84079526702670  0.49933073587359 -0.00444162086209
 6 -3.36975213361336  2.54949370307031 -0.38639890059006
 6  8.66369615561556  0.89771610541054 -0.11955629562956
 6 -2.98345003010301  4.01587304680468 -0.52725245734573
 6 -2.32450936603660  1.57110895959596 -0.15751828652865
 6  7.46094563706371  0.10229081708171 -0.06603578767877
 6  7.64439917641764 -1.34945189728973  0.05011493439344
 6  6.28105945394539  0.75873280358036 -0.03273720972097
 6 -1.03456758825883  1.90541966566657 -0.09560773587359
 6  4.96364796759676  0.11793090919092  0.08010937973797
 6 -0.05722924392439  0.94252756265627  0.08662956015602
 6  3.74768417611761  0.81414176457646  0.08121065206521
 6  1.33416535733573  1.24135586328633  0.09032665176518
 6  2.41927982848285  0.35027432713271  0.15739909780978
 6  2.24540440214021 -1.17644182448245  0.12852144574457
 1 -13.13809561036104 -2.86279925772577 -0.87108233223322
 1 -13.71793701740174 -1.21085506970697 -1.50055651035104
 1 -13.67578538073808  0.23777084588459  1.77148983168317
 1 -13.71885127872787  0.79159428652865  0.14636230183018
 1 -14.59023632773277 -1.68763747714771  0.63050465476548
 1 -10.51485010191019 -2.97614439723972 -1.84934022942294
 1 -11.31302151105110 -2.14691948334833 -3.21747003320332
 1 -10.02490467396740 -1.55921513011301 -2.38122973547355
 1 -9.34015267006701  0.64406653765377 -1.22388619871987
 1 -9.92522384998500  0.31560282438244  2.09698544134413
 1 -11.62439780068007  0.48423512511251  2.95355370547055
 1 -10.96210690439044 -1.04185106160616  2.31635242494249
 1 -12.03179572207221  2.72229835183518 -0.13956074007401
 1 -12.37470370977098  2.24813038853885  1.50245395719572
 1 -10.58506878897890  2.28031862236224  0.96776106960696
 1 -11.97314038653865 -2.20109298289829  1.50951543044304
 1 -8.88192903480348 -1.74125248294830  0.81862096099610
 1 -5.95960540664066 -2.30189351445145 -0.34742278667867
 1 -5.43993640894089 -1.60892612521252  1.25003339953995
 1 -6.98594870547055 -2.50920319331933  1.02287843864386
 1 -7.45864717581758  1.55273360246025 -0.17850752725272
 1 -4.48675532023202 -0.08205958755876 -0.27213098879888
 1  13.32360803790379 -0.99346103350335  2.15482042264226
 1  12.02607778477848 -2.09527890789079  1.95425142484248
 1  13.39911226812681 -2.90953261826183  0.44023094899490
 1  12.82050948944894 -2.27755423392339 -1.76837993269327
 1  11.63965397359736 -2.44720384428443 -0.66664200630063
 1  11.38114772297230  0.51377174387439  3.55763080178018
 1  10.47352433013301  1.13921948504850  2.19691721592159
 1  10.23606122732273 -0.55352366686669  2.81840808200820
 1  13.59606650855086  1.19098772297230  0.69731379617962
 1  12.48189080228023  2.36288572637264  0.93609831553155
 1  13.44248008510851  1.38553303240324  1.99991647324732
 1  12.81371219071907 -0.02237884748475 -3.05047749964996
 1  12.28674574297430  1.52600469136914 -2.22352028692869
 1  13.55432626522652  0.55114116701670 -1.50879636503650
 1 -5.40567279117912  2.81042542934293 -0.53932534333433
 1  10.03749500010001 -0.01317997559756 -1.99558189398940
 1  14.99375222042204 -0.92383219761976  0.79525812511251
 1  8.52672452325233  2.05640796799680 -0.18898617581758
 1 -2.25693077727773  4.33888033773377  0.25488131783178
 1 -2.49128789308931  3.98737596239624 -1.38183129222922
 1 -3.62554893999400  4.69744792659266 -0.78123792529253
 1 -2.70030965106511  0.59379159115912  0.02134918031803
 1  6.63090584048405 -2.00717027912791 -0.02048956425643
 1  8.36962217671767 -1.75804052885289 -0.48204897899790
 1  7.88194811641164 -1.53091541994199  1.21783554445445
 1  6.20304545164516  1.92223602900290 -0.02445446514651
 1 -0.72509386638664  2.88215225872587  0.03324341284128
 1  5.02179816621662 -0.88420491719172  0.34114679577958
 1 -0.42593151635164 -0.09763157605761 -0.22396978587859
 1  3.97930709860986  1.95010064626463 -0.12020424542454
 1  1.82753962916292  2.25941173307331  0.35531283288329
 1  1.20196903170317 -1.53283988818882  0.37620661626163
 1  2.38191951675167 -1.64910121162116 -1.08776654665467
 1  3.22844954135413 -1.61739596859686  0.75059834643464

