%nproc=3
%Mem=2GB
# td=(NStates=1) CAM-B3LYP/6-31G(d,p) 

TD

0 1
<<<<<<< HEAD
 8 -11.67389405700570  0.12555320372037 -1.69465662926293
 8 -13.16840767656766 -2.42679098709871  1.56011169616962
 8  10.48172369226923 -1.02552244014401 -2.13314704100410
 8  14.43982734943494 -1.06589531103110 -0.18611309870987
 6 -11.02999116631663 -0.15374932963296 -0.44406383078308
 6 -11.66786307600760 -1.23592477237724 -1.25999483978398
 6 -11.80227227022702  0.43739042184218  0.83543319831983
 6 -13.03170837453745 -1.93522368026803 -0.82098373237324
 6 -13.26624508250825 -0.02454990259026  0.88154284218422
 6 -13.60335676917692 -1.51493303110311  0.49741850915092
 6 -10.76303189188919 -2.12059747724772 -2.03936625492549
 6 -9.48914835863586  0.07842497629763 -0.40131708980898
 6 -11.11383736113611 -0.03950954695470  2.09605467256726
 6 -11.70775115541554  1.97711281438144  0.73174126582658
 6 -8.61813523522352 -0.74684272547255  0.10427916691669
 6 -7.25944393399340 -0.53967581368137  0.09149684998500
 6 -6.35765978087809 -1.75634432323232  0.49868210451045
 6 -6.65210087178718  0.68506933683368 -0.10416897209721
 6 -5.27488743034303  0.97254929162916 -0.07005133533353
 6  11.91408065496550 -0.07700767126713  1.34615414351435
 6  11.62359965006501 -0.56610276547655 -1.32402628232823
 6  12.68726595469547 -1.33677790749075  1.34865959935994
 6  13.33436812351235 -1.87590212361236  0.14495846024602
 6  12.38158309300930 -1.86027053605361 -1.00126408890889
 6  11.09500638853885  0.01987673557356  0.03600078037804
 6  11.12125353025302  0.05723236523652  2.60949328952895
 6  12.88315143184319  1.24303752455246  1.52200525152515
 6  12.59937624382438  0.38291716501650 -2.08196214401440
 6 -4.74495099079908  2.22907541354135 -0.27938278717872
 6  9.91331251875188  0.54413521632163 -0.01785296199620
 6 -3.38606376477648  2.54859361306131 -0.40744100480048
 6  8.63886367236724  1.05087142094209 -0.20760510051005
 6 -3.06466815191519  3.98821028052805 -0.42307203930393
 6 -2.30215713081308  1.54815666436644 -0.32555509020902
 6  7.47830737323732  0.22971355935594 -0.01106029012901
 6  7.78394313081308 -1.26090304240424  0.51130105300530
 6  6.29691103910391  0.81055798609861 -0.04045798179818
 6 -0.98380251175118  1.81297042074207 -0.27595577067707
 6  4.98836043884388  0.19111822792279  0.00183155195520
 6  0.07369384838484  0.90106341624162 -0.20535963876388
 6  3.80604001170117  0.94761511191119 -0.01679914891489
 6  1.41633357415742  1.29566129382938 -0.12377475837584
 6  2.53330123062306  0.41138043774377 -0.04707134923492
 6  2.37355721742174 -1.03675785608561  0.24654324792479
 1 -13.05462726352635 -3.16069904770477 -1.09101432543254
 1 -13.90001522522252 -1.64417840204020 -1.55417187188719
 1 -13.64597239943994  0.07889495829583  1.80271295399540
 1 -13.81190058365836  0.56084121122112  0.06755442104210
 1 -14.77064436853685 -1.40583929732973  0.28684028832883
 1 -11.18117673457346 -3.29763654645465 -1.48602389778978
 1 -11.17276748564857 -2.11127591899190 -3.19901818801880
 1 -9.46666885038504 -1.83406261486149 -2.03348496099610
 1 -9.20792944774477  0.98535066606661 -1.05474928502850
 1 -10.26210753835384  0.61931319541954  2.38661440424042
 1 -11.86264162506250  0.37282398399840  3.01531988208821
 1 -11.06872756645664 -1.16267314381438  2.34428521822182
 1 -11.83142568506851  2.32779890189019 -0.19855663966397
 1 -12.45174141354135  2.33699927542754  1.38951266306631
 1 -10.78575885798580  2.48832942344234  1.16454074757476
 1 -12.02926599909991 -2.36489936353635  1.67672215111511
 1 -8.93602444434443 -1.68185654335434  0.63604270317032
 1 -5.89655910201020 -2.32939626472647 -0.44840288468847
 1 -5.48414082938294 -1.47821305390539  1.00968936513651
 1 -7.19435954655466 -2.45613788678868  1.03662981378138
 1 -7.49644095519552  1.49384771387139 -0.37947762426243
 1 -4.44807145184518  0.18824744314431 -0.12190596629663
 1  13.40973665076508 -1.32177386478648  2.15286022662266
 1  11.92793797079708 -2.15560494049405  1.61007700740074
 1  13.74741709860986 -2.89195086008601  0.41199812571257
 1  12.80500793929393 -2.26379285778578 -2.01034412911291
 1  11.68140814901490 -2.68843796769677 -0.70595593769377
 1  11.51062067026703 -0.18695832913291  3.53557859655966
 1  10.56575355305531  0.94000956405641  2.56142366656666
 1  10.37741536273627 -0.77501581608161  2.52477871907191
 1  13.60728763066307  1.32107073127313  0.64545861066107
 1  12.34417703090309  2.29131856965697  1.36314101980198
 1  13.27782361946195  1.13383786288629  2.51409789138914
 1  12.75493631313131 -0.26526313591359 -3.08805125702570
 1  12.18825589398940  1.32942503340334 -2.36302423732373
 1  13.44877571017102  0.61937799069907 -1.46068155355536
 1 -5.42880510441044  3.04375876267627 -0.35492690349035
 1  9.78552980358036 -0.23946260386039 -1.97325966176618
 1  15.17477032223222 -1.13934374877488  0.55982458175818
 1  8.47452930373037  2.13494582178218 -0.60488776597660
 1 -2.56622170637064  4.13347979767977  0.48507433713371
 1 -2.45104386868687  4.15919314411441 -1.18244135323532
 1 -4.00603698879888  4.65314349614961 -0.54859466096610
 1 -2.60607022712271  0.44914712671267 -0.43983693829383
 1  6.82000475037504 -1.88337789988999  0.72040452515252
 1  8.43368858335834 -1.85554027882788 -0.38894966906691
 1  8.45717563916392 -1.39219154755476  1.55747950885089
 1  6.37662280938094  1.95467927332733 -0.27323934363436
 1 -0.65019637663766  2.91690573407341 -0.22810272177218
 1  5.24530051645164 -0.82622911961196  0.11457413851385
 1 -0.23963288648865 -0.20940275317532 -0.17576496539654
 1  3.69712888078808  1.91752738893889 -0.27289951495149
 1  1.70627750295030  2.29709550145015 -0.43264596299630
 1  1.29585842064206 -1.44413101730173 -0.35687669206921
 1  3.42745407020702 -1.72594889638964 -0.13932170217022
 1  2.38233492989299 -1.05820004900490  1.35099838643864
=======
>>>>>>> 6a1b998aacd80a23911c140f266e48a14f2d523d

