%nproc=3
%Mem=2GB
# td=(NStates=1) CAM-B3LYP/6-31G(d,p) 

TD

0 1
 8 -11.75952261986199  0.18514916331633 -1.54032119571957
 8 -13.35933676947695 -2.37810611861186  1.47820350535053
 8  10.59471499139914 -0.81326121402140 -2.16524025032503
 8  14.49252261896190 -1.09672839433943 -0.18265275267527
 6 -11.12400056725673 -0.19954390909091 -0.32835225962596
 6 -11.70945723542354 -1.20151133103310 -1.22320116041604
 6 -11.83514555755576  0.36835351815182  0.92023167816782
 6 -12.98384358805881 -1.87550770867087 -0.92962459645965
 6 -13.35271372937294  0.07316986938694  0.71191587948795
 6 -13.63334976847685 -1.46149768756876  0.39152792009201
 6 -10.80122571127113 -2.04580999849985 -2.22983530183018
 6 -9.58118756255626  0.02347948174818 -0.42155911401140
 6 -11.08556453385338 -0.12845844184418  2.20880594769477
 6 -11.74701508180818  1.92597770087009  0.93611170287029
 6 -8.67190061176118 -0.78959700090009  0.07437617661766
 6 -7.23437142674267 -0.49635148124812  0.18453615391539
 6 -6.41210522542254 -1.74045273407341  0.51375361166117
 6 -6.66922258395840  0.74616544644464  0.02159360416042
 6 -5.25343528512851  0.94677671437144 -0.01884621482148
 6  12.01470071697170 -0.00469043954395  1.34604413251325
 6  11.68442573267327 -0.57039319451945 -1.25599947964796
 6  12.71588881698170 -1.37543177287729  1.43815854925493
 6  13.38986367306731 -1.93931846524652  0.20969493389339
 6  12.44938987368737 -1.91568607760776 -1.04952891539154
 6  11.15647253515352  0.02223697159716  0.07652483278328
 6  11.18065947084708  0.10426706870687  2.56316865706571
 6  13.10397351405141  1.15094831563156  1.25566861786179
 6  12.56212251845185  0.52929180248025 -2.04942889068907
 6 -4.70694719041904  2.15128763476348 -0.32504735363536
 6  9.96281746924693  0.56509731253125 -0.00712188888889
 6 -3.35520067846785  2.51944069776978 -0.51986224692469
 6  8.65587537353735  1.00031636543654  0.04672033203320
 6 -2.89534121922192  3.91752321182118 -0.97610734283428
 6 -2.33747066216622  1.57254910361036 -0.24318685338534
 6  7.43899344184418  0.21282187018702  0.08790960686069
 6  7.65102983948395 -1.27265421752175  0.29303922682268
 6  6.18425977397740  0.80307723802380 -0.06326026202620
 6 -0.86911104260426  1.84014313801380 -0.22552072717272
 6  4.96904850765076  0.17616673277328 -0.01291992319232
 6  0.08780525952595  0.98417172707271  0.13254415161516
 6  3.69645905360536  0.84962531293129 -0.12579004800480
 6  1.43845578637864  1.20814254195420 -0.08395077597760
 6  2.47840574107411  0.26597589728973  0.03920727862786
 6  2.28291815351535 -1.14478865916592  0.31395998959896
 1 -12.84622642344234 -3.11661463926393 -0.79046427042704
 1 -13.69675489918992 -1.70857484168417 -1.76725318001800
 1 -14.02667046924693  0.18523559235924  1.60586326902690
 1 -13.89750914451445  0.59457458455846 -0.05345768016802
 1 -14.64270157425743 -1.57248596199620  0.13778538283828
 1 -10.47308592549255 -2.95360214301430 -1.53537883328333
 1 -11.23533374227423 -2.51778657005701 -2.98079636583658
 1 -10.07520970447045 -1.36601581018102 -2.54063567606761
 1 -9.39630828562856  0.93855598659866 -0.72383619371937
 1 -10.00857218481848  0.12793405750575  2.46161190399040
 1 -11.67468282918292  0.27535423702370  2.93459180928093
 1 -10.98704939863986 -1.29364624112411  2.51654244394439
 1 -11.95916845934594  2.15889201120112 -0.11923870787079
 1 -12.49614585398540  2.32917849334933  1.69299301110111
 1 -10.87630791289129  2.23587417791779  1.15148944244424
 1 -12.23883695619562 -2.20875374897490  1.81380585948595
 1 -9.04192503440344 -1.62132048974897  0.54709380828083
 1 -6.10257970407041 -2.26054938003800 -0.58142618701870
 1 -5.27499991529153 -1.36778201080108  0.98928732493249
 1 -6.89773988458846 -2.46502877587759  1.29958610941094
 1 -7.38537984908491  1.56473480258026 -0.03080275677568
 1 -4.58636528122812 -0.10191157275728 -0.10506428212821
 1  13.40484616171617 -1.27518920632063  2.24393933453345
 1  12.02017719471947 -2.03200258025803  1.68516451615162
 1  13.63529588648865 -3.08759042404240  0.33502042794279
 1  12.96058349684968 -2.11918839733973 -2.00806390109011
 1  11.64647465566557 -2.64541366526653 -0.94833017511751
 1  11.75223483168317 -0.15699533283328  3.60822586128613
 1  10.84690166786678  1.12954851795180  2.81173869806981
 1  10.16914453565357 -0.29326764126413  2.53667990919092
 1  13.74212111401140  1.13657228142814  0.26856092089209
 1  12.61433404660466  1.98054749254925  0.99136384208421
 1  13.53764960206020  1.35044952405241  2.20288677027703
 1  12.45255607510751  0.28196158655866 -3.16533898579858
 1  12.08256532493249  1.39497158805881 -1.81669960486049
 1  13.65053588618862  0.50406645954595 -1.46927241264126
 1 -5.37363958785879  2.74892927972797 -0.70058146894690
 1  10.27071832243224  0.27463880628063 -2.11267360316032
 1  15.08840168536854 -0.95808562296230  0.54914351365137
 1  8.67020887168717  1.99575190239024 -0.33756103330333
 1 -2.35116020022002  4.35282173187319 -0.21808597889789
 1 -2.33612237653765  3.71897912271227 -1.89563267236724
 1 -3.67499388448845  4.63815199699970 -1.14735453695370
 1 -2.62724234433443  0.62058427042704  0.10892793819382
 1  6.71349409930993 -1.82847240934093 -0.02252976827683
 1  8.42186740124012 -1.56406113091309 -0.32287306140614
 1  7.71894181578158 -1.43369569796980  1.26883064396440
 1  6.10863601070107  1.89492329772977 -0.05697771747175
 1 -0.64636599359936  2.81706575007501 -0.80315022652265
 1  5.00299628602860 -0.89226572327233  0.13482616371637
 1 -0.23968289148915  0.08083627072707  0.71039365046505
 1  3.86777594549455  1.92044768096810 -0.25292751775178
 1  1.58365524072407  2.22013780568057 -0.23151584998500
 1  1.20268910371037 -1.41940854505451  0.24244323992399
 1  2.59786111091109 -1.92249855135514 -0.29715748574858
 1  2.77230392679268 -1.29828405740574  1.27120040664066

