%nproc=3
%Mem=2GB
# td=(NStates=1) CAM-B3LYP/6-31G(d,p) 

TD

0 1
 8 -11.79298596619662  0.17721837023702 -1.45211237483748
 8 -12.69247008280828 -2.74256256425643  1.41002668766877
 8  10.47242276217622 -0.99471935983598 -1.95803953025303
 8  14.40277364406441 -1.33459218071807 -0.16631111851185
 6 -11.05777394459446 -0.18422237693769 -0.24394381878188
 6 -11.60860715041504 -1.18180936083608 -1.21290013031303
 6 -11.75875791879188  0.24277095989599  1.08279793479348
 6 -12.87987319101910 -1.97023718161816 -0.88955058905891
 6 -13.24733319131913 -0.31937938553855  0.94270895879588
 6 -13.37546397989799 -1.83250478827883  0.51618038533853
 6 -10.70253584228423 -1.80365578307831 -2.17798011631163
 6 -9.54593403720372  0.11606874067407 -0.33644060216022
 6 -11.15268124552455 -0.23766936293629  2.34180924802480
 6 -11.74942532283228  1.80150525362536  1.01963005470547
 6 -8.60377379907991 -0.66767480868087  0.36654539353935
 6 -7.23608159775978 -0.40371221732173  0.17158485878588
 6 -6.21379539443944 -1.57744643344334  0.45565780208021
 6 -6.70024568626863  0.86658748864886 -0.24485304050405
 6 -5.28972891449145  1.13460549724973 -0.19944427462746
 6  11.89892913981398 -0.06784675517552  1.38030755885589
 6  11.53840113021302 -0.60090624582458 -1.14229810951095
 6  12.50001722982298 -1.48990322002200  1.51700643404340
 6  13.21373606030603 -1.95900043344334  0.30474443884388
 6  12.20651558625863 -1.98444295329533 -0.79470343284328
 6  10.99700658855886  0.04038878677868  0.16228340864086
 6  10.93994539943994  0.24620126212621  2.59254159435944
 6  12.96698981568157  1.09927314811481  1.43813686468647
 6  12.45968227442744  0.29705857915792 -1.97096104390439
 6 -4.75276177187719  2.34890739673967 -0.41495634453445
 6  9.90282146964697  0.63762456525653  0.01558038133813
 6 -3.29829498789879  2.74440319401940 -0.56293655435544
 6  8.73003278927893  1.09148548234823 -0.00626496649665
 6 -2.92702438753875  4.12790424992499 -0.84018375047505
 6 -2.26496341144114  1.77162901160116 -0.41154368906891
 6  7.41917145964596  0.25696628462846  0.07760857675768
 6  7.72649738623862 -1.26584353645365  0.25678560146015
 6  6.23933528152815  0.83951088138814 -0.13096703270327
 6 -0.92132626412641  2.08187731143114 -0.50848902400240
 6  4.95648725152515  0.18987810391039 -0.08334696589659
 6  0.07042352135214  1.03478678857886 -0.32952205500550
 6  3.75133454115412  0.87961831223122 -0.24144161316132
 6  1.44724666546655  1.32879460716072 -0.34185656655666
 6  2.48176607710771  0.37514681438144 -0.13837047914791
 6  2.19039890159016 -1.06924110441044  0.04534312791279
 1 -12.81990379117912 -3.13746672447245 -1.15758098209821
 1 -13.59209443314331 -1.76480046424642 -1.64578103280328
 1 -13.61375917811781 -0.08057098829883  1.98012069476948
 1 -13.90445983958396  0.26402152925293  0.44565223082308
 1 -14.45781308540854 -2.09224793819382  0.72985458975898
 1 -10.43766238313831 -2.89178596139614 -2.08473376877688
 1 -11.19803001190119 -1.71765655705571 -3.27091537773777
 1 -9.66655883938394 -1.35692490109011 -2.22712432493249
 1 -9.35984463926393  0.96354848584858 -1.06919072917292
 1 -10.00133146074607  0.18064932903290  2.55624136693669
 1 -11.76920228112811 -0.00056335473547  3.35077342744274
 1 -10.85325601930193 -1.33260013651365  2.41809259895990
 1 -12.20104264676468  2.16952307430743  0.24154737073707
 1 -12.26895313471347  2.18070364586459  1.87988169997000
 1 -10.72649293139314  2.19944053455345  1.17454174767477
 1 -11.72738581108111 -2.87894076767677  1.25936041494149
 1 -8.94179502140214 -1.47121547924792  0.95437453635364
 1 -5.71615106120612 -1.77740106520652 -0.49298734313431
 1 -5.36167858315832 -1.28752398499850  1.17116551275128
 1 -6.92316242684268 -2.29891216421642  0.68733488428843
 1 -7.30137144824482  1.66070439953995 -0.54289396589659
 1 -4.71270791549155  0.34951356975698  0.12066829112911
 1  13.16414209130913 -1.64874656205621  2.32334727532753
 1  11.71506668366837 -2.25503488348835  1.80558655835584
 1  13.68692104900490 -2.89618128312831  0.45471239713971
 1  12.73680111861186 -2.25334181268127 -1.73776687138714
 1  11.45068507670767 -2.76773589748975 -0.76062140424042
 1  11.48405801400140  0.10600096679668  3.46552159085909
 1  10.63430040774077  1.36588215131513  2.36415393959396
 1  10.19851747294729 -0.56623493799380  2.49502574377438
 1  13.86934383628363  0.70946957115712  0.68835290009001
 1  12.71006361956196  2.15388482628263  1.26743144884488
 1  13.41712754985498  0.93218769786979  2.45567204880488
 1  12.66483730323032 -0.48696530613061 -2.95549800170017
 1  11.91823889228923  1.28334042494249 -2.07828576347635
 1  13.27114794739474  0.50005605850585 -1.41220670607061
 1 -5.42190441434143  3.13707809460946 -0.78643005380538
 1  9.71969321992199 -0.27939659725973 -2.05294763056306
 1  14.94797764296429 -1.56677649204920  0.53630222952295
 1  8.65940779157916  2.18536086328633 -0.18444572177218
 1 -1.99213429762976  4.37920437013701 -0.06805097539754
 1 -2.57130589488949  4.20928815361536 -1.93880698979898
 1 -3.87854423952395  4.89619780158016 -0.58193799529953
 1 -2.73419303940394  0.73011522352235 -0.41708466306631
 1  6.84968771867187 -1.97378694079408  0.26005849054905
 1  8.31169638413841 -1.76441116591659 -0.47031780588059
 1  7.97406732833283 -1.27532986138614  1.32605636653665
 1  6.03754890199020  1.83955776117612 -0.27311933163316
 1 -0.64894625162516  2.96728077157716 -0.71825173667367
 1  4.70700668706871 -0.94724122082208  0.26559924102410
 1 -0.38284720792079 -0.01541335423542 -0.08136552545255
 1  3.96075524342434  2.01226686288629 -0.29286151115112
 1  1.83985086028603  2.29967575947595 -0.92513521192119
 1  1.08427726252625 -1.73652025622562 -0.39048005240524
 1  3.06786811161116 -1.65803210471047 -0.59073684368437
 1  2.15697239363936 -1.38377260626063  1.14487777437744

