%nproc=3
%Mem=2GB
# td=(NStates=1) CAM-B3LYP/6-31G(d,p) 

TD

0 1
 8 -11.58878554615461  0.17509815821582 -1.70595775937594
 8 -13.11876271207121 -2.43878218621862  1.19716540154015
 8  10.53449896979698 -1.16500638853885 -2.06130985728573
 8  14.43469683638364 -0.98280700220022 -0.24881936933693
 6 -11.05186335353535 -0.15207916261626 -0.39831925632563
 6 -11.54760104980498 -1.14458563846385 -1.31795063536354
 6 -11.77897994099410  0.34525120792079  0.81020067506751
 6 -12.81387659135914 -1.85423558145815 -1.09915154915492
 6 -13.36834529252925 -0.00828827642764  0.70286497439744
 6 -13.59427586108611 -1.49987152495250  0.21515028232823
 6 -10.46199178787879 -1.98071348884888 -2.13535585388539
 6 -9.58506795059506  0.09613674747475 -0.25335229332933
 6 -11.17259323672367 -0.11341693769377  2.07464253135314
 6 -11.72471285158516  1.90049515261526  0.73033112481248
 6 -8.66801022272227 -0.70331837303730  0.28118685768577
 6 -7.25726371597160 -0.55157700380038  0.52151985228523
 6 -6.40317433233323 -1.78989767856786  0.81605384168417
 6 -6.65277093879388  0.62021285118512  0.11336278107811
 6 -5.26625656725673  0.90050208690869  0.13154882468247
 6  11.87306655355536 -0.05276524702470  1.23174270237024
 6  11.61210850095009 -0.62461861706171 -1.32496637633763
 6  12.61201842994299 -1.24005823552355  1.43213794719472
 6  13.45261994869487 -1.80975550895090  0.13338730313031
 6  12.35185011971197 -1.99392390139014 -0.91172513501350
 6  11.05606249414941 -0.01456670877088 -0.07965078477848
 6  10.98222962786279  0.23960060206021  2.56791913211321
 6  12.97053016971697  1.23919714051405  1.12722577357736
 6  12.47838414461446  0.28581745504550 -2.18170211801180
 6 -4.72193868956896  2.11150365636564 -0.26262111101110
 6  9.84221540904091  0.54443524632463 -0.08523970067007
 6 -3.32732789118912  2.44742349604961 -0.32885314601460
 6  8.68176796279628  1.02357869166917 -0.20563490349035
 6 -3.05870755585559  3.95606706620662 -0.64018375047505
 6 -2.26742365746575  1.68213006170617 -0.05564809950995
 6  7.50535007750775  0.20243083108311  0.03654447034703
 6  7.73627836433643 -1.19468642074207  0.14663458635864
 6  6.18142949094909  0.69241617191719 -0.10419435543554
 6 -0.95904003550355  1.95940506420642 -0.22474064916492
 6  4.93967557035704  0.14491360746075  0.13713508230823
 6  0.03427990699070  0.97979128902890 -0.03151225402540
 6  3.78261766946695  0.85999635003500  0.02605513651365
 6  1.40075201600160  1.28793052075208 -0.15379776067607
 6  2.42358025852585  0.43143244294429  0.10984434233423
 6  2.21314117581758 -1.16387056735674  0.48724731833183
 1 -12.69386118691869 -2.90403338113811 -1.26497172117212
 1 -13.59542476617662 -1.42338632283228 -1.82509896459646
 1 -13.79857765996600  0.38749581838184  1.69147182988299
 1 -13.72788218181818  0.85197032413241  0.00991865746575
 1 -14.72096940104010 -1.81918063146315  0.02872447674767
 1 -10.15552416931693 -2.83878066086609 -1.56757205260526
 1 -11.10476068496850 -2.34634942634263 -2.86737502370237
 1 -9.64593677717772 -1.29456866546655 -2.40461207370737
 1 -9.10447910271027  0.99088121912191 -0.79026283638364
 1 -10.17083841144114  0.53148441254125  2.22157790059006
 1 -11.77138249914992  0.11662836443644  3.01397974807481
 1 -11.08745943964396 -1.19768664516452  2.13532432213221
 1 -11.94002654515452  2.26101222322232 -0.31399818381838
 1 -12.49658589798980  2.44699027452745  1.30187389918992
 1 -10.65650593269327  2.14313490399040  1.08581287478748
 1 -12.11000407290729 -2.49661253485349  1.07106158505851
 1 -9.13406424832483 -1.54053241094109  0.85217431633163
 1 -5.80332977907791 -2.17182050715072 -0.20984902930293
 1 -5.36328874417442 -1.59450468306831  1.57553594979498
 1 -7.20745085568557 -2.39600187318732  1.21357750855085
 1 -7.27709902100210  1.49337766686669  0.01892221572157
 1 -4.64148079277928  0.16401501990199  0.44107033133313
 1  13.14702037913791 -1.28697038443844  2.38164310491049
 1  11.79832500950095 -1.99799917991799  1.92342834253425
 1  13.99231158805881 -2.76452811781178  0.53149007490749
 1  12.90894833333333 -2.36360283878388 -1.73861695639564
 1  11.80108011621162 -2.81746086998700 -0.82016735883588
 1  11.56781638983898  0.28706907360736  3.41713675237524
 1  10.46359333703370  1.18063362646265  2.44109163336334
 1  10.45150277147715 -0.75768408290829  2.77653389458946
 1  13.54855175707571  1.17806643084308  0.04016808160816
 1  12.32471508470847  2.21724116191619  1.18824353005301
 1  13.56344218131813  1.32050652975298  2.05235171677168
 1  12.47530835033503 -0.20758736833683 -3.18536098799880
 1  11.91708877727773  1.18280037093709 -2.14726266116612
 1  13.47532836543654  0.23080913381338 -1.64125961136114
 1 -5.39902212611261  3.09729411621162 -0.36117752855286
 1  9.84945619621962 -0.42880153775378 -2.04449678547855
 1  15.07403024822482 -0.82138195259526  0.47355595489549
 1  8.68706055685569  2.21516384358436 -0.44279155635564
 1 -2.25843092729273  4.51957840754076  0.02400823052305
 1 -2.74041280558056  4.21667889268927 -1.73254636373637
 1 -3.92933931903190  4.53480166196620 -0.69197899939994
 1 -2.63892351245125  0.55679789178918 -0.01184413901390
 1  6.88699144904490 -1.97258682078208 -0.13935145044504
 1  8.73754896939694 -1.54727945274527 -0.28418919301930
 1  8.10430035163516 -1.41291361976198  1.28126188708871
 1  6.42123727082708  1.87936174157416 -0.06343836353635
 1 -0.61520287728773  2.95916996049605 -0.65845575707571
 1  4.75327131353135 -0.70601709840984  0.33691637273727
 1 -0.21254017721772 -0.15058687158716  0.20193280438044
 1  3.94401356925693  1.87871350755075 -0.06918914391439
 1  1.72789966516652  2.24245003690369 -0.30583328172817
 1  1.11851068586859 -1.22106871107111  1.01907090269027
 1  2.59581090589059 -1.93875017651765 -0.25039280928093
 1  2.94216091249125 -1.15310953995400  1.37276056265627

