%nproc=3
%Mem=2GB
# td=(NStates=1) CAM-B3LYP/6-31G(d,p) 

TD

0 1
<<<<<<< HEAD
 8 -11.79239590719072  0.44531517991799 -1.39787695129513
 8 -12.84169500530053 -2.59601790979098  1.34961064606461
 8  10.74612013191319 -0.87413730163016 -2.12703642994299
 8  14.42824619131913 -1.02886160766077  0.11969748234823
 6 -11.04742290949095 -0.06901085578558 -0.25007443184318
 6 -11.66316260596060 -1.12234341424142 -1.19165800610061
 6 -11.74765680868087  0.26967365016502  1.13188284328433
 6 -12.91775697939794 -1.69605976387639 -0.95222685668567
 6 -13.28325678367837 -0.13146059365937  1.12588727662766
 6 -13.40646708020802 -1.57101863966397  0.50193896119612
 6 -10.75102069076908 -1.73956937443744 -2.35591791009101
 6 -9.58403784758476  0.13666079987999 -0.26380333843384
 6 -11.07007298469847 -0.32635823182318  2.51487655475548
 6 -11.78594897519752  1.78405350845084  1.27757584928493
 6 -8.63903732543254 -0.60498854005401  0.26265500450045
 6 -7.17416540614061 -0.44715656175618  0.21799950025002
 6 -6.45063907880788 -1.72541122992299  0.48901113741374
 6 -6.57918358005801  0.66606743664366 -0.26863541874187
 6 -5.19990993259326  0.87665970267027 -0.31061539173917
 6  11.84841408830883  0.10301033053305  1.44425395349535
 6  11.67638492859286 -0.54996115131513 -1.12578645834583
 6  12.46912414051405 -1.29685391509151  1.59828456185619
 6  13.28841352805281 -1.88031256465647  0.40261422582258
 6  12.34652958765876 -1.86398090709071 -0.77807176967697
 6  11.04785167306731  0.06993174107411  0.04990217051705
 6  10.85785719061906  0.17682432443244  2.64516685688569
 6  12.84117723442344  1.23097631843184  1.46590964196420
 6  12.67985429162916  0.33043191649165 -1.96324027182718
 6 -4.67755425112511  2.05343784978498 -0.68901375027503
 6  9.79856104360436  0.55354615741574  0.04630345364536
 6 -3.35433059145915  2.40961971567157 -0.68149841054105
 6  8.56783656965696  1.02436877067707 -0.18271261126113
 6 -3.08201988708871  3.85851731123112 -0.96368610071007
 6 -2.27433434853485  1.59347119581958 -0.41846438113811
 6  7.45486502900290  0.16569715771577 -0.15221440554055
 6  7.71791652815282 -1.41539849194919 -0.12586266336634
 6  6.25216656465647  0.64036096639664 -0.19567350335033
 6 -0.90955508700870  1.90002912661266 -0.49981815691569
 6  4.91688329112911  0.04588370447045 -0.05678430963096
 6  0.14796127512751  0.97659096899690 -0.32435153795380
 6  3.78224763246325  0.83763411381138 -0.15395286428643
 6  1.41997393819382  1.24419614731473 -0.17942032293229
 6  2.46760466096610  0.31782108180818 -0.06309295139514
 6  2.21846170787079 -1.14611879217922  0.28154674827483
 1 -13.04001580238024 -2.80572355015502 -1.38005322932293
 1 -13.72839806350635 -1.02356634083408 -1.45954240894089
 1 -13.94146194839484 -0.03398632983298  2.04577726042604
 1 -13.74911430503050  0.31959708680868  0.52496016161616
 1 -14.45121242534253 -1.80927964136414  0.48899050335033
 1 -10.36772538943894 -2.77118390119012 -2.15057035243524
 1 -11.40281048994900 -1.87668245964596 -3.28299658585859
 1 -10.09703188668867 -0.96983619221922 -2.49284089658966
 1 -9.41873052785279  1.01592372337234 -0.93754756485649
 1 -10.07438876647665 -0.04894363026303  2.44167991079108
 1 -11.25203056395640  0.35020172177218  3.42298064816482
 1 -11.33009370307031 -1.37233410991099  2.75285607530753
 1 -12.28703124562456  2.23052917491749  0.45663887988799
 1 -12.42100834023402  2.10840641614161  2.21557526932693
 1 -10.83095337743774  2.34852544304430  1.35640993449345
 1 -11.84641771427143 -2.75763863746375  1.40508498739874
 1 -8.91914275617562 -1.39454781248125  0.91655075397540
 1 -5.75543498959896 -1.95585891099110 -0.33591163556356
 1 -5.81475389068907 -1.50394562716272  1.31922031823182
 1 -7.38669878047805 -2.54713698669867  0.70711686248625
 1 -7.32409372047205  1.40644897399740 -0.52957263376338
 1 -4.61669831453145  0.04413303170317 -0.00841461716172
 1  13.10529620672067 -1.26119780718072  2.35586052665266
 1  11.60773595059506 -2.06944632463246  1.68224422412241
 1  13.65052740964096 -2.84117578257826  0.56072299819982
 1  12.83925136363636 -2.22852933143314 -1.86879997469747
 1  11.58769877807781 -2.53001212511251 -0.51746708880888
 1  11.38303791199120  0.08125849254925  3.59852489118912
 1  10.20206718441844  0.97846340944094  2.44079160336034
 1  10.14346196739674 -0.69117743224322  2.52142838403840
 1  13.71995889778978  0.84978360256026  0.85244930973097
 1  12.29970258345835  2.29077851565157  1.11992669836984
 1  13.20657649474947  1.50486496559656  2.48961544314431
 1  12.87114793429343 -0.13536014561456 -3.02343479537954
 1  12.24088115651565  1.39204129502950 -1.92474040894089
 1  13.60761159375938  0.43110916381638 -1.38859434483448
 1 -5.52287451135114  2.92325671247125 -0.91284269506951
 1  10.33498474907491 -0.10939959755976 -2.36350868666867
 1  15.17679052425242 -1.42055186958696  0.83008160746075
 1  8.42797464826483  2.03787611481148 -0.29325660286029
 1 -2.56926201040104  4.24557100680068 -0.18300247054705
 1 -2.41694045834584  4.16037326212621 -1.97681079017902
 1 -3.81540792589259  4.68653683548355 -0.95851565306531
 1 -2.62358197829783  0.64543675567557 -0.29031198579858
 1  6.82154490439044 -1.87754731683168 -0.32720023532353
 1  8.50672588708871 -1.75071979677968 -0.81684245834584
 1  8.21348126972697 -1.76113844224422  0.93932769366937
 1  6.09780492759276  1.90154395979598 -0.13050507020702
 1 -0.71079243624362  3.09804384788479 -0.72573248474848
 1  4.73729971637164 -0.86923342004200 -0.00666798569857
 1 -0.30696962016202 -0.11436324922492 -0.18849623852385
 1  4.06187535543554  1.94084972117212 -0.34212643764376
 1  1.54321119631963  2.40497628952895 -0.29399209760976
 1  1.25233406820682 -1.39277588178818  0.52331132673267
 1  2.32901422622262 -1.78810511201120 -0.77278504850485
 1  3.16242293869387 -1.27348157715772  1.11460474707471
=======
>>>>>>> 6a1b998aacd80a23911c140f266e48a14f2d523d

