%nproc=3
%Mem=2GB
# td=(NStates=1) CAM-B3LYP/6-31G(d,p) 

TD

0 1
<<<<<<< HEAD
 8 -11.74495116271627  0.01186183458346 -1.67507467106711
 8 -13.06056689248925 -2.30014832283228  1.54077976297630
 8  10.60486600650065 -0.92910279817982 -2.17518124442444
 8  14.51901526822682 -1.02421114261426 -0.08216270367037
 6 -11.07306547374737 -0.21106506120612 -0.38000742514251
 6 -11.61612790249025 -1.35447662756276 -1.20770961126113
 6 -11.84625666866687  0.32800948374837  0.83460311531153
 6 -12.99551475517552 -1.83119327722772 -0.97345897989799
 6 -13.32091054905491  0.07700025242524  0.72418710661066
 6 -13.54182061556156 -1.48912044984498  0.42308107540754
 6 -10.78941453015302 -2.20308572607261 -2.08639095739574
 6 -9.54907435123512  0.07091422522252 -0.37330428852885
 6 -11.13336931433143 -0.16938253425343  2.19066413351335
 6 -11.81393177347735  1.88697380048005  0.73313140484048
 6 -8.68429185088509 -0.77243528472847  0.19851859085909
 6 -7.21862985258526 -0.49390123622362  0.30970867116712
 6 -6.36074008890889 -1.69287797659766  0.60174241054105
 6 -6.63239890159016  0.69645047494749 -0.02850140534053
 6 -5.17372731433143  0.90632266896690 -0.03427775797580
 6  11.80673992089209 -0.04626459695970  1.30512004010401
 6  11.72831012111211 -0.59320547574757 -1.26323020272027
 6  12.61573880198020 -1.31531576127613  1.51322605600560
 6  13.36971165786579 -1.85654018741874  0.26158012241224
 6  12.47769270397040 -1.89457396639664 -0.93640760326033
 6  11.10146703460346 -0.03437868996900 -0.00250307000700
 6  10.88587999289929  0.19219586158616  2.59263160336034
 6  12.93866698339834  1.16062928372837  1.33108615961596
 6  12.71256756295629  0.40923979727973 -1.96319026682668
 6 -4.68806530223022  2.20733323932393 -0.29213406230623
 6  9.86823801130113  0.42782358515852 -0.14388556525653
 6 -3.43537869626963  2.63505225892589 -0.30553081378138
 6  8.66291607760776  0.90671700550055 -0.20127446744674
 6 -3.01517320242024  4.07896935643564 -0.47028676077608
 6 -2.27349426452645  1.77044889358936 -0.10436297099710
 6  7.47317686018602  0.04128471647165 -0.03759294339434
 6  7.63794853135314 -1.35554250635064  0.22751267416742
 6  6.24878622662266  0.71959889018902 -0.20063399939994
 6 -0.90364449594959  1.96774589828983 -0.10747892299230
 6  4.92923452625263  0.19123823992399 -0.01046967816782
 6  0.04754123312331  0.95450876077608 -0.24095319811981
 6  3.79893930163016  0.94711506190619 -0.13786125512551
 6  1.38460040084008  1.29320104780478 -0.22364474537454
 6  2.51603950445045  0.40268956865687 -0.01294793689369
 6  2.38510837253725 -1.03203738403840  0.12915150875088
 1 -12.95176697749775 -2.81145412321232 -0.95863108710871
 1 -13.51660688438844 -1.41128511271127 -2.08676513121312
 1 -13.79823762596260  0.31807887668767  1.69055173787379
 1 -13.90062945654565  0.78479360646065 -0.02138447284728
 1 -14.66198350245024 -1.69827854125413  0.33335493979398
 1 -10.50104872177218 -3.00632741554155 -1.46106140154015
 1 -11.46686689558956 -2.55337012841284 -2.98627691389139
 1 -9.96884906840684 -1.63515272387239 -2.72301391389139
 1 -9.30789944474447  0.92352448344834 -0.82100591069107
 1 -10.04950627822782  0.48571983608361  2.46671241404140
 1 -11.69402476337634  0.16562326392639  3.06151450155016
 1 -10.85067576127613 -1.29133601010101  2.29611040074007
 1 -12.29565210771077  2.13557967996800 -0.28053483748375
 1 -12.63024926432643  2.28852442794279  1.42815652745275
 1 -10.87089737183718  2.41284187468747  1.09516380988099
 1 -12.18217128962896 -2.36476935053505  1.32102658155816
 1 -9.08429927182718 -1.84180253795380  0.61986108500850
 1 -5.96864631073107 -2.26419974507451 -0.37511555595560
 1 -5.57416983228323 -1.36395162776278  1.18920731693169
 1 -7.00497060766077 -2.63034530753075  1.06025217601760
 1 -7.35971728282828  1.48187651675167 -0.30090976747675
 1 -4.48832547724772  0.00817943634363  0.23385961026103
 1  13.20984666176618 -1.13820550795079  2.31926686728673
 1  12.04971014801480 -1.96792617261726  1.96144214391439
 1  13.70017237413741 -2.85470713571357  0.48120504640464
 1  12.95439287778778 -2.25375185368537 -1.83136623132313
 1  11.58340834903490 -2.67102622652265 -0.71470681278128
 1  11.32898250645064  0.12401276797680  3.45421045974597
 1  10.44997197489749  1.03024858795880  2.57707523172317
 1  10.16141376257626 -0.53699201370137  2.37589383058306
 1  13.77657455935594  0.97620624482448  0.75329939473947
 1  12.40449306250625  2.19919935773577  0.99962466816682
 1  13.30054589168917  1.16279075817582  2.36060254185419
 1  13.16620744024402 -0.16933354295430 -2.65746819871987
 1  12.12066913531353  1.25458754965497 -2.28756669156916
 1  13.49758059065907  0.47753380628063 -1.18692417781778
 1 -5.45836806070607  2.94412879967997 -0.38028943974397
 1  10.05839709030903 -0.19659831743174 -2.10784312011201
 1  14.99637248244824 -1.36471628602860  0.63409200850085
 1  8.40499235003500  1.93715604280428 -0.47781505870587
 1 -2.61930701490149  4.49640609030903  0.38185401510151
 1 -2.26780554485449  4.41433865866587 -1.31221433053305
 1 -3.98657504260426  4.68367654945494 -0.57189699119912
 1 -2.45794541464146  0.56815902790279  0.02178922432243
 1  6.56361911181118 -1.83491305340534  0.12269475417542
 1  8.29928514301430 -1.73955868066807 -0.57137791189119
 1  8.11749167076708 -1.36588891729173  1.21000476137614
 1  6.24858000510051  1.73686749214921 -0.59310132983298
 1 -0.71678303530353  3.08005204870487 -0.28669858135814
 1  4.68015400180018 -0.91685818251825 -0.11206852575258
 1 -0.23589251245125 -0.00101191409141  0.04257686878688
 1  3.92271143904390  1.98443407960796 -0.43128535353535
 1  1.70743761896190  2.27392318421842 -0.33340603900390
 1  1.48180701550155 -1.53073967816782  0.18632762836284
 1  2.84160548534854 -1.52461876337634 -0.87671544154415
 1  2.91500819721972 -1.47141137013701  0.90012329892989
=======
>>>>>>> 6a1b998aacd80a23911c140f266e48a14f2d523d

