%nproc=3
%Mem=2GB
# td=(NStates=1) CAM-B3LYP/6-31G(d,p) 

TD

0 1
<<<<<<< HEAD
 8 -11.82471913951395  0.17330797919792 -1.59143630723072
 8 -12.88475931173117 -2.34073238123812  1.65311099609961
 8  10.79368488838884 -1.02986287418742 -2.11189491579158
 8  14.46625999269927 -1.08653737523752 -0.01161564896490
 6 -11.02445061226123 -0.14364831953195 -0.34552397679768
 6 -11.74875116481648 -1.12278345824582 -1.21644048434843
 6 -11.85362740574057  0.43987066986699  0.92124177917792
 6 -13.04296950065006 -1.83223338123812 -0.75479711371137
 6 -13.31096955495550 -0.04191163876388  0.85930061796180
 6 -13.53564999849985 -1.40361189898990  0.57056582388239
 6 -10.83063865256526 -1.98094351185118 -2.09267158545855
 6 -9.55215465926593  0.09488662246225 -0.31849880798080
 6 -11.10388636603660  0.02570697469747  2.15410047714771
 6 -11.82450283058306  1.88330343344334  0.67981607330733
 6 -8.61657507920792 -0.86393443464346  0.01931067006701
 6 -7.19141713131313 -0.60682252835284  0.26426412671267
 6 -6.39187320222022 -1.89440812961296  0.34830706700670
 6 -6.61568723042304  0.57270810071007  0.05639708450845
 6 -5.25830577217722  0.83163520022002  0.04483015281528
 6  11.87247649454945  0.05273530303030  1.49722925102510
 6  11.77801509160916 -0.51610776597660 -1.16903078277828
 6  12.58666589468947 -1.36099032873287  1.57536226962696
 6  13.30294498119812 -1.81219575297530  0.35453941834183
 6  12.41342627732773 -1.84831934093409 -0.86005996849685
 6  11.08961584948495  0.03751849974998  0.08657583788379
 6  10.90819222412241  0.12587922992299  2.58558089828983
 6  12.81406452315231  1.17007022782278  1.49319237023702
 6  12.65285159135914  0.54568344164416 -1.79312326012601
 6 -4.72108860456046  2.12730523652365 -0.15045989488949
 6  9.85349653715372  0.43104390719072 -0.04948612531253
 6 -3.38204336273627  2.50348910261026 -0.30551081178118
 6  8.72445223122312  0.92282861666167 -0.15361970197020
 6 -3.15214689978998  3.98643010251025 -0.30043977607761
 6 -2.29566648174817  1.57502935163516 -0.43789632433243
 6  7.53542308480848  0.12366295429543 -0.16233541764176
 6  7.72668740524052 -1.36326327842784  0.13605352825283
 6  6.29098044604460  0.76887381768177 -0.29100303630363
 6 -0.97551168266827  1.89246837053705 -0.54054222932293
 6  4.94055565836584  0.24757387348735 -0.14140277147715
 6  0.08238471747175  0.94785809570957 -0.35617472027203
 6  3.81648105580558  0.88102845324532 -0.34936240524052
 6  1.40325226602660  1.22501422912291 -0.40155253615362
 6  2.44807270777078  0.40408970867087 -0.31174781688169
 6  2.32736259795980 -1.06318049834984  0.05542413601360
 1 -13.17741954275428 -2.81451442924292 -0.95125034903490
 1 -13.70494571827183 -1.44045803000300 -1.42591904660466
 1 -13.81599940214021  0.27934500330033  1.66444912761276
 1 -13.87994738833883  0.39688481558156  0.10690835643564
 1 -14.60772807690769 -1.84880359375938  0.65034663896390
 1 -10.45205382228223 -2.94419120192019 -1.51221651705170
 1 -11.57242745164517 -2.06738152955295 -2.98392667886789
 1 -10.02142432593259 -1.37701691029103 -2.40076168866887
 1 -9.49416807160716  1.03058518951895 -0.71628543864386
 1 -10.06808813641364  0.52167343144314  2.04948069086909
 1 -11.64102946384638 -0.01578487688769  3.20514886498650
 1 -10.91790248394839 -1.07609448594860  2.01750253995400
 1 -12.26985952845284  2.38090421242124 -0.18026481048105
 1 -12.41124736413641  2.27344291979198  1.53454716651665
 1 -10.60175045714571  2.33708429892989  0.77824211771177
 1 -11.86224929742974 -2.47475034863486  1.53881836073607
 1 -9.05239608150815 -1.75389374707471  0.39941904080408
 1 -6.39454890099010 -2.55186851195120 -0.50210825522552
 1 -5.42178459375938 -1.70997623022302  0.93123151935193
 1 -7.02062217281728 -2.58778105110511  0.93815996679668
 1 -7.18013932503250  1.45663399249925 -0.09737941444144
 1 -4.47835448014801  0.11032965136514 -0.05786956265627
 1  13.32124780188019 -1.29364105150515  2.45728066866687
 1  11.72490766776678 -2.11060044004400  1.69219521922192
 1  13.30676303320332 -2.90236190119012  0.63174009990999
 1  13.10029746824682 -1.92521900040004 -1.74163725842584
 1  11.66808681688169 -2.74161328522852 -0.84668001010101
 1  11.41125073327333 -0.01640127342734  3.49910494919492
 1  10.56106308400840  1.19302486558656  2.72352987718772
 1  10.07024464566457 -0.55304361886189  2.38876511771177
 1  13.73247014891489  0.95245386958696  0.86768083288329
 1  12.37420003320332  2.13068250605061  1.49098380408041
 1  13.03636947404740  1.25572005110511  2.54090057165717
 1  13.18043886338634  0.11318470887089 -2.59285173707371
 1  11.85313238163816  1.25976806770677 -2.03578151305130
 1  13.44252508510851  1.04943099599960 -1.10939642504250
 1 -5.33189541344134  2.93902828962896 -0.26983839463946
 1  10.10084133473347 -0.35282393999400 -2.16391872767277
 1  15.04798764396440 -0.92415222962296  0.73538213751375
 1  8.70904275507551  2.06924925212521 -0.43745102230223
 1 -2.52052713691369  4.14155060476048  0.62764859455946
 1 -2.55118388268827  4.43403062786279 -1.08145125422542
 1 -3.98830521562156  4.69863804560456 -0.18934873637364
 1 -2.54699431953195  0.31162337433743 -0.45766872147215
 1  6.85143789368937 -2.01081064316432 -0.07040455575558
 1  8.47402261676168 -1.66045076987699 -0.75586636073607
 1  8.34571449304931 -1.44767709610961  1.09458321922192
 1  6.38268341544154  1.92718652405241 -0.39128114781478
 1 -0.80298165516552  2.84751879537954 -0.79479939143914
 1  4.87592357875788 -0.91361785848585  0.04725740684068
 1 -0.25086400960096 -0.05763757665767  0.05353796489649
 1  3.92704187208721  1.99014465066507 -0.75688791379138
 1  1.63392026722672  2.30323611551155 -0.77144984338434
 1  1.22900173497350 -1.39193579777978 -0.07837884228423
 1  2.95497682248225 -1.73278958045805 -0.50030780078008
 1  2.78715541194119 -1.25746997599760  0.76189947654765
=======
>>>>>>> 6a1b998aacd80a23911c140f266e48a14f2d523d

