%nproc=3
%Mem=2GB
# td=(NStates=1) CAM-B3LYP/6-31G(d,p) 

TD

0 1
<<<<<<< HEAD
 8 -11.78308497609761  0.26362701110111 -1.57796496009601
 8 -13.07490832663266 -2.42836114411441  1.49462514751475
 8  10.74013953385339 -0.96179606750675 -2.13207693399340
 8  14.44004737143714 -1.04316303780378 -0.11490597799780
 6 -11.09090725792579 -0.10814476917692 -0.37175660006001
 6 -11.72029831953195 -1.09331051095110 -1.24209304960496
 6 -11.74603664666467  0.42470915371537  0.88188784378438
 6 -13.11617682138214 -1.78795895379538 -0.80738237223722
 6 -13.33428188618862 -0.00245769336934  0.98878356625663
 6 -13.56427286078608 -1.42099363716372  0.57520628792879
 6 -10.87216280498050 -1.91932735023502 -2.26582890119012
 6 -9.56117556135614  0.07075420922092 -0.53805076317632
 6 -11.06776275367537 -0.07594319031903  2.22769783688369
 6 -11.60734111441144  1.98152325542554  0.98921701340134
 6 -8.71784520622062 -0.72752079327933  0.06863560256026
 6 -7.25391338093809 -0.61528337443744  0.02275997629763
 6 -6.44883889878988 -1.81087977677768  0.48836107240724
 6 -6.65075073677368  0.62330316021602 -0.12981153635364
 6 -5.22588252985299  0.81544358105811 -0.18614294449445
 6  11.93553280018002 -0.01477144764476  1.38022755085509
 6  11.69791708180818 -0.53819997519752 -1.21487536723672
 6  12.66719394749475 -1.34974920462046  1.44492922632263
 6  13.40165485218522 -1.83849838323832  0.16141010541054
 6  12.42356729142914 -1.81617612661266 -0.92777674017402
 6  11.08275516341634  0.04316906480648  0.05756293659366
 6  10.96547795269527  0.09480612261226  2.48038037823782
 6  12.85848896559656  1.22497571837184  1.34834788578858
 6  12.41633793999400  0.47464633793379 -2.07133108090809
 6 -4.72633912961296  2.07300980698070 -0.43089793869387
 6  9.88215940344034  0.52667347014701  0.03134195749575
 6 -3.37431258965897  2.43365211891189 -0.42436269696970
 6  8.65814560056006  1.03288962276228 -0.10929526952695
 6 -2.97823950905091  3.85943740324032 -0.70036976907691
 6 -2.33825074017402  1.48025987468747 -0.14169670437044
 6  7.48770831333133  0.26766735473547 -0.05022420652065
 6  7.73160789728973 -1.19083603570357  0.37560748364836
 6  6.29820116811681  0.78624555485549 -0.12349628562856
 6 -0.93458759025903  1.78168729242924 -0.36853502860286
 6  5.05161676447645  0.19283839993999  0.12286365516552
 6  0.01025750475048  0.83228653855386 -0.06951605440544
 6  3.82543195089509  0.84249459985999 -0.01898936793679
 6  1.41151309210921  1.12862459015902 -0.20238261916192
 6  2.56490439093909  0.29868916861686  0.06196955485549
 6  2.36797665936594 -1.14344852515252  0.25814440804080
 1 -12.95051685248525 -2.87226020382038 -0.81961718571857
 1 -13.95854107780778 -1.45882986718672 -1.48368482318232
 1 -13.68403620582058  0.27577464626463  1.95322800550055
 1 -13.89334872847285  0.49155428252825  0.24021168676868
 1 -14.62080938503850 -1.68170688408841  0.79714131843184
 1 -10.61792040894089 -2.86860364316432 -1.79589488488849
 1 -11.54019422832283 -1.95823061446145 -3.09872815901590
 1 -9.87718990249025 -1.28225743434343 -2.50445205770577
 1 -9.29912856765677  0.95433756475648 -0.87885169526953
 1 -10.02327365496550  0.34445570967097  2.22564830763076
 1 -11.65559091999200  0.41004770637064  2.96665501560156
 1 -11.11994268796880 -1.21109798629863  2.17080787048705
 1 -11.93509605210521  2.27860398239824 -0.06402318631863
 1 -12.14450068946895  2.32261783728373  1.66004971677168
 1 -10.58394867696770  2.22048263876388  0.72094638813881
 1 -12.22234530703070 -2.85168804240424  1.03551803070307
 1 -9.07780862276228 -1.64647300500050  0.57781688058806
 1 -5.86195564166417 -2.16973029812981 -0.38455650005001
 1 -5.72413482878288 -1.52254748734873  1.32156055225523
 1 -7.17706781738174 -2.67326959996000  1.04381053185319
 1 -7.12060337143714  1.50354868396840 -0.39206888338834
 1 -4.65133177787779 -0.01870325192519  0.17520374467447
 1  13.44315999309931 -1.17172886028603  2.36256119671967
 1  11.87375255225523 -2.12101148114812  1.72253825352535
 1  13.74020637753775 -2.95835750075008  0.22571949784978
 1  12.95157259575958 -2.22628910741074 -1.97754084878488
 1  11.66085609380938 -2.60955007890789 -0.66945228732873
 1  11.49321893009301  0.17820818751875  3.42211725042504
 1  10.44030100780078  1.01573713681368  2.53737126132613
 1  10.14749237043704 -0.64494280878088  2.38636487768777
 1  13.77621452335234  1.25989461366137  0.75926999179918
 1  12.39448206140614  2.20904034183418  1.51962666836684
 1  13.19983582068207  1.31061554065407  2.49826630823082
 1  12.80687150665066  0.11161455185519 -2.95292774467447
 1  11.85934300270027  1.27013910481048 -2.37250518541854
 1  13.32847367996800  0.99801585448545 -1.30853633903390
 1 -5.15670789468947  2.90565495229523 -0.94476588738874
 1  10.05130638123812 -0.31603026062606 -2.23633596939694
 1  15.10794363956396 -0.76429624402440  0.64516311561156
 1  8.35275712651265  2.03170549774977 -0.54676195339534
 1 -2.53566865106511  4.41233768346835  0.18516434613461
 1 -2.25534429872987  3.92384960976098 -1.63400650975098
 1 -3.84190057515752  4.30109829162916 -0.97229703120312
 1 -2.70068968906891  0.46648886088609 -0.05815877047705
 1  6.85493824372437 -1.77675723782378  0.30470295499550
 1  8.59175438993899 -1.60379510431043 -0.15525629972997
 1  8.23089301090109 -1.27196952535254  1.43994775567557
 1  6.38173332043204  1.89146295169517 -0.27689970967097
 1 -0.54505586258626  2.77099114261426 -0.67781769326933
 1  5.14899088548855 -0.81448794549455  0.42244492559256
 1 -0.28948787198720 -0.20069188208821 -0.00626801570157
 1  3.59132830073007  1.82666830303030 -0.27407963296330
 1  1.58474534973497  2.22216800870087 -0.40355305370537
 1  1.34967380218022 -1.25387199139914  0.32467146274627
 1  2.68049937473747 -1.72673897539754 -0.66126389638964
 1  2.77097379377938 -1.68469269826983  1.10565385198520
=======
>>>>>>> 6a1b998aacd80a23911c140f266e48a14f2d523d

