%nproc=3
%Mem=2GB
# td=(NStates=1) CAM-B3LYP/6-31G(d,p) 

TD

0 1
<<<<<<< HEAD
 8 -11.89770643824382  0.36123677207721 -1.38222538613861
 8 -12.93940477627763 -2.42130043804380  1.48372405740574
 8  10.77170269016902 -0.94631451935194 -2.02859658595860
 8  14.53920728742874 -0.80227894939494 -0.06190067746775
 6 -11.14404257145715 -0.07924187888789 -0.25657508190819
 6 -11.84962125182518 -1.00627180708071 -1.13258209850985
 6 -11.70451249424942  0.40038672147215  1.08973862886289
 6 -13.14471967566757 -1.67671782968297 -0.84449608360836
 6 -13.26393485148515 -0.00593804140414  1.11530621852185
 6 -13.50847728122812 -1.44915645344534  0.67934670197020
 6 -11.00941653035304 -1.73500891839184 -2.24161647994799
 6 -9.75378482228223  0.12288942274227 -0.33971092919292
 6 -11.01735771317132 -0.16491208720872  2.34592966006601
 6 -11.83060344064406  1.98403350645064  1.10190828252825
 6 -8.76516993869387 -0.78893693489349  0.03438217721772
 6 -7.30090808040804 -0.55715756185619  0.03995169546955
 6 -6.50127414231423 -1.88322701150115  0.08630086638664
 6 -6.68669433113311  0.65006583648365 -0.06553510871087
 6 -5.28718866046605  0.91612364906491 -0.14793912411241
 6  11.96290553745374  0.14537456695670  1.51167069516952
 6  11.84916220632063 -0.51894805000500 -1.06008988868887
 6  12.73064029212921 -1.21389561926193  1.68216294969497
 6  13.45959064576458 -1.69534406780678  0.37388135253525
 6  12.47456239093909 -1.88494300330033 -0.71878584108411
 6  11.13735062296229  0.08917366526653  0.11907908820882
 6  10.87941934683468  0.30591723372337  2.70915325552555
 6  12.81526464316432  1.34566778757876  1.55022807380738
 6  12.72610891709171  0.42138101140114 -1.77193114091409
 6 -4.66726322202220  2.12217472347235 -0.42524737363736
 6  9.93344453195320  0.58562936573657  0.04812363566357
 6 -3.29950510891089  2.47987674137414 -0.37325758645865
 6  8.66135592159216  1.03737007080708 -0.23177751775178
 6 -2.93516520162016  3.89419087858786 -0.72600233233323
 6 -2.37207412251225  1.52223407210721 -0.27463999869987
 6  7.50110965346535  0.09599018701870 -0.17982716681668
 6  7.76504124062406 -1.34321127322732  0.01640156305631
 6  6.26396774477448  0.60579751005101 -0.31275521152115
 6 -0.96917104860486  1.71100022372237 -0.34698287338734
 6  4.98964056685669 -0.01741262516252 -0.28074670587059
 6  0.08145462446245  0.74091740164016 -0.33710281308131
 6  3.80612001970197  0.58938928932893 -0.45446291529153
 6  1.38944088488849  1.00594232193219 -0.44484686558656
 6  2.49236713721372  0.07798709840984 -0.34002064416442
 6  2.33153301500150 -1.41488566886689 -0.09486089248925
 1 -13.04536633743374 -2.67981095889589 -0.86854207820782
 1 -14.07036225992599 -1.34763874807481 -1.58385484018402
 1 -13.35662346454646  0.06890395919592  2.31208389108911
 1 -13.89928932253225  0.63390851795179  0.41333899949995
 1 -14.62980028412841 -1.69448816221622  0.79262086638664
 1 -10.55177379427943 -2.57776455925593 -1.87733302870287
 1 -11.48029823872387 -1.94343913531353 -3.25852413861386
 1 -10.03641582508251 -1.03504271287129 -2.35086669916992
 1 -9.52049070387039  0.94493662466247 -0.81255506560656
 1 -10.13136446404640  0.36364762886289  2.43894963776378
 1 -11.67652301320132 -0.10587388578858  3.26964531463146
 1 -10.60245093879388 -1.27543441994199  2.16536732643264
 1 -12.32121466396640  2.17940406240624  0.14085730173017
 1 -12.41772801220122  2.33231880738074  1.98465217701770
 1 -10.90593087518752  2.48371896239624  1.08718301180118
 1 -11.99218229072907 -2.37512038563856  1.20949542844284
 1 -8.88635947784779 -1.78295665336534  0.29459855875588
 1 -5.74244369046905 -2.21757508260826 -0.75950399479948
 1 -5.95928834413441 -2.07147237983798  1.04789318551855
 1 -7.10193030363036 -2.79987226022602  0.09681583238324
 1 -7.37855916701670  1.51647997709771 -0.17833751025103
 1 -4.74410105480548  0.11494011241124  0.07928415271527
 1  13.38266394349435 -1.04561624902490  2.71190613121312
 1  12.14354953195320 -2.06422580258026  2.02895889558956
 1  13.75408776567657 -2.44926659165917  0.90320724662466
 1  12.92702014051405 -2.26929340784078 -1.61794488918892
 1  11.77579758795880 -2.63945306920692 -0.36727206930693
 1  11.32983259145915  0.16088645534553  3.73457849654966
 1  10.40676765446545  1.10022558565857  2.47463498769877
 1  10.06417403860386 -0.23832214671467  2.49565580678068
 1  13.79665656755676  0.89454807900790  0.81679574437444
 1  12.32506511971197  2.29164860266027  1.12560726642664
 1  13.15606144324432  1.43370784988499  2.48322480408041
 1  13.03954477397740 -0.26088269786979 -2.79788224012401
 1  11.77354442284228  1.16851894279428 -2.05447338223822
 1  13.58370920352035  0.90259631253125 -1.24933041844184
 1 -5.37826004990499  2.85963034983498 -0.48282969376938
 1  10.08464971557156 -0.30855951355136 -2.11921425722572
 1  15.05688853405340 -0.80416023042304  0.77068566786679
 1  8.58236008680868  2.01135346254625 -0.36908418561856
 1 -2.16773185738574  4.16528297799780  0.05532136183618
 1 -2.39735850015002  4.08367559235923 -1.62424553365337
 1 -3.72762914801480  4.37031521332133 -0.50770057155716
 1 -2.62626224632463  0.60229244124412  0.15438248364836
 1  6.73174592449245 -1.80867042914291 -0.00831834713471
 1  8.31921713621362 -2.09474419921992 -0.67886866096610
 1  8.12605252685269 -1.64134646304630  1.06376013691369
 1  6.34468961606161  1.66701050645065 -0.63070509020902
 1 -0.50412176917692  2.54991903540354 -0.45260517201720
 1  5.00191617801780 -1.03584008070807 -0.14632195109511
 1 -0.29847877107711 -0.22073388628863 -0.08385577447745
 1  3.88854802270227  1.73223886008601 -0.54682690769077
 1  1.63891076627663  2.04882067396740 -0.57682038043804
 1  1.25679451425143 -1.58700530473047 -0.42249325372537
 1  2.93849517431743 -1.96896319781978 -0.76022379237924
 1  2.45666236263626 -1.59506373537354  1.11497478407841
=======
>>>>>>> 6a1b998aacd80a23911c140f266e48a14f2d523d

