%nproc=3
%Mem=2GB
# td=(NStates=1) CAM-B3LYP/6-31G(d,p) 

TD

0 1
<<<<<<< HEAD
 8 -11.60605727332733  0.34108475687569 -1.46094325792579
 8 -12.81627246304630 -2.65420372837284  1.12298798379838
 8  10.44645016491649 -1.16012590049005 -1.96429015531553
 8  14.49880324702470 -1.17531625312531 -0.33977846524652
 6 -11.00377854505451 -0.15270922562256 -0.24094351875188
 6 -11.50785707540754 -1.15626680658066 -1.31252009230923
 6 -11.92770481348135  0.26068275107511  1.03752340734073
 6 -12.82440764446445 -1.78251840974097 -1.04340597459746
 6 -13.37578603660366 -0.33737118471847  0.90901558945895
 6 -13.48958539203920 -1.75716725452545  0.35456422372237
 6 -10.58907449614962 -1.80502592009201 -2.24111642994299
 6 -9.56314575837584  0.16180331413141 -0.28457541564156
 6 -11.25201117851785 -0.27725332133213  2.24730979807981
 6 -11.94436481678168  1.81655675877588  0.99925801750175
 6 -8.65683910561056 -0.63394143534353  0.28257699669967
 6 -7.23523151275128 -0.45430727682768  0.30203790409041
 6 -6.48248226312631 -1.74246293509351  0.75055729202920
 6 -6.62608827052705  0.69572040194019 -0.04457301250125
 6 -5.17701764336434  1.02576461316132 -0.17885221542154
 6  11.87265651255126  0.01954198369837  1.26870639873987
 6  11.57426471657166 -0.68784493969397 -1.26469034873487
 6  12.74929215731573 -1.35211944164416  1.47046177957796
 6  13.40505519221922 -1.87086161956196  0.23527749214921
 6  12.29046398109811 -1.94516902590259 -0.89553351585159
 6  11.05810269816982  0.03449819771977 -0.00510333003300
 6  10.94056546144614  0.22921956395640  2.52139447964796
 6  12.86676979367937  1.20694391519152  1.23105615661566
 6  12.47537384358436  0.15697457075708 -2.17266121392139
 6 -4.73095959165917  2.26336884288429 -0.57998284718472
 6  9.87730891839184  0.49513031583158 -0.00420159685969
 6 -3.38560371877188  2.58040679437944 -0.58942920362036
 6  8.72388217421742  0.96684301810181 -0.13545788578858
 6 -2.96251793689369  4.07053851335134 -1.00697042914291
 6 -2.36972388748875  1.71510335903590 -0.26671920662066
 6  7.51260080258026  0.21349193719372  0.10979179507951
 6  7.67950268676868 -1.30782773487349  0.17216713961396
 6  6.23495484348435  0.84250118041804  0.09303536753675
 6 -1.00527465896590  2.05588471217122 -0.32046022112211
 6  4.99460106290629  0.26815593169317  0.15445681448145
 6  0.01140761976198  1.11949525942594 -0.03626272907291
 6  3.80001940964096  0.92066241664166  0.01925445644564
 6  1.41762370317032  1.34766649434943 -0.00171255215522
 6  2.49475737623762  0.47035633533353  0.15550890879088
 6  2.27473733543354 -1.07474165446545  0.42025061866187
 1 -12.46917871867187 -2.87359033683368 -1.21481670567057
 1 -13.73228845254526 -1.63085706990699 -1.94685113981398
 1 -13.81060886308631 -0.17548047924792  1.71281396409641
 1 -13.86561595519552  0.33403853095310  0.22247991359136
 1 -14.51921922602260 -1.97098581198120  0.34281588588859
 1 -9.91470008690869 -2.84546132893289 -2.05584087948795
 1 -11.11851206010601 -2.20613540494049 -3.08162644884488
 1 -9.63368555205520 -1.33292250085008 -2.46028764126413
 1 -9.02685133993399  1.10351248224822 -0.54332814291429
 1 -10.31719304690469  0.09015027912791  2.40345608840884
 1 -11.82835819671967  0.13394009560956  3.29384773487349
 1 -11.15771646534653 -1.19124600110011  2.17561835153515
 1 -12.46419896239624  2.18353447544754  0.10779399539954
 1 -12.55311155055506  2.24393996949695  1.87962167396740
 1 -10.93313359545955  2.32813340384038  0.83360765426543
 1 -11.78022109460946 -2.45685855945595  0.99383386228623
 1 -8.89415025692569 -1.62753111081108  0.62362146104610
 1 -6.07879732583258 -2.47747107220722 -0.03133117751775
 1 -5.82114452975298 -1.35775100770077  1.45065346154615
 1 -7.04271438203820 -2.66313858685869  1.38284443524352
 1 -7.23407471857186  1.56161449054906 -0.16615629212921
 1 -4.56662330703070  0.17895651405141  0.04895111941194
 1  13.39922559965997 -1.37093878127813  2.32827776837684
 1  12.15628080508051 -2.24539391939194  1.75141114081408
 1  13.77956031293129 -2.71922358735874  0.56395332123212
 1  12.75824326282628 -2.48370484898490 -1.87242033673367
 1  11.55005501370137 -2.56713583748375 -0.51637697979798
 1  11.49457906610661 -0.18703833713371  3.44293933263326
 1  10.46325330303030  1.25233079617962  2.58417594179418
 1  9.86220384158416 -0.25517383188319  2.30566680788079
 1  13.62106900880088  1.09256788098810  0.34892895769577
 1  12.45397801100110  2.15388482628263  0.79057376307631
 1  13.50968680578058  1.40289476857686  2.13341982358236
 1  12.82310312981298 -0.42658926852685 -2.83998645054505
 1  11.91879894829483  1.13948603950395 -2.38345628052805
 1  13.44735556815681  0.51945799869987 -1.63161864726473
 1 -5.46168839273927  3.07833222002200 -0.71376278707871
 1  9.92429367996800 -0.39999865746575 -2.12120445624562
 1  15.19438228342834 -1.06502631703170  0.42149074837484
 1  8.75228707950795  2.05878820602060 -0.35009228642864
 1 -2.39119420362036  4.64604105380538 -0.32814698499850
 1 -2.44766353065307  3.91587881268127 -2.11082419151915
 1 -3.80633701880188  4.51579976177618 -1.19903970547055
 1 -2.61200082018202  0.65318753075308  0.00536758215822
 1  6.86082883278328 -1.92276183828383 -0.37172468776878
 1  8.47008222272227 -1.58466319111911 -0.34335510961096
 1  7.58646856845685 -1.64631696009601  1.42418617951795
 1  6.24087923502350  1.74081788718872  0.17334531483148
 1 -0.70307166416642  3.20543458695870 -0.40818072957296
 1  4.81467745414541 -0.82836933363336  0.25375805690569
 1 -0.16882580578058  0.02903109020902  0.20390300140014
 1  3.81928109600960  2.23770940714071 -0.13577580258026
 1  1.57692456765677  2.42998879077908 -0.27958065646565
 1  1.05587442224222 -1.27895449964997  0.87387638323832
 1  2.47711903670367 -1.58955525702570 -0.42387015701570
 1  3.11567826422642 -1.28625285428543  1.22381566816682
=======
>>>>>>> 6a1b998aacd80a23911c140f266e48a14f2d523d

