%nproc=3
%Mem=2GB
# td=(NStates=1) CAM-B3LYP/6-31G(d,p) 

TD

0 1
<<<<<<< HEAD
 8 -11.73400006760676  0.27684833323332 -1.59815697929793
 8 -13.22296313211321 -2.37678598659866  1.43033871887189
 8  10.57577309720972 -1.11765165306531 -2.08415214151415
 8  14.36591995869587 -0.94281300280028 -0.22682717011701
 6 -11.05372353955396 -0.00950490519052 -0.37200662506251
 6 -11.58896518621862 -1.15764694459446 -1.31714055435544
 6 -11.79466150915091  0.43208989178918  0.89236889188919
 6 -12.91043624732473 -1.72968312621262 -0.92715434943494
 6 -13.26350480848085 -0.00096754435444  0.75987067496750
 6 -13.54000043354336 -1.45585712351235  0.37929669696970
 6 -10.71187677637764 -1.91585700320032 -2.23687600590059
 6 -9.52496193999400  0.17479461326133 -0.34377133523352
 6 -11.07772374977498 -0.07017261326133  2.23216828392839
 6 -11.68735911621162  1.98312341544154  0.76882497419742
 6 -8.70613403510351 -0.80333837503750  0.04830356935694
 6 -7.26842483208321 -0.60488233433343  0.08685638593859
 6 -6.42548656355636 -1.79538822762276  0.54780701700170
 6 -6.60769643134313  0.53345417531753 -0.22715127032703
 6 -5.20913085468547  0.80794283098310 -0.17924225442544
 6  11.91128037493749  0.15983601310131  1.20179970807081
 6  11.60206749684968 -0.58150430563056 -1.27785166486649
 6  12.75501272937294 -1.14807903760376  1.47090182358236
 6  13.35955064176418 -1.77460199359936  0.27016098049805
 6  12.25308024272427 -1.95198970797080 -0.80248421092109
 6  11.05641252915292  0.02404715261526 -0.04391721142114
 6  11.19897130203020  0.39332597459746  2.53791613181318
 6  12.86716983368337  1.42409563036304  1.11611466246625
 6  12.45977228342834  0.31989086238624 -2.12749669746975
 6 -4.68854535023502  2.08134064006401 -0.30209505840584
 6  9.82080326782678  0.53256405920592 -0.07191836853685
 6 -3.35485064346435  2.45014376807681 -0.24556481718172
 6  8.61578136413641  0.91152748654866 -0.14699903990399
 6 -2.91217290239024  3.87029848934894 -0.29445917801780
 6 -2.27941485658566  1.50479232793279 -0.08488102280228
 6  7.48743828632863  0.09350993899390  0.03466428232823
 6  7.66881161766177 -1.34377132923292  0.25244516741674
 6  6.22375372337234  0.66213314361436 -0.02939687568757
 6 -0.90934506600660  1.83285240894089 -0.19378755385539
 6  4.93398500130013  0.04124324042404  0.02736410521052
 6  0.04654113311331  0.81678498839884 -0.15210431323132
 6  3.81313072077208  0.80579092949295 -0.03616108510851
 6  1.45069701050105  1.15812754045405 -0.11516389728973
 6  2.52130003050305  0.30907020672067  0.15635899379938
 6  2.35677553925393 -1.21555573587359  0.32519111271127
 1 -12.70754255505551 -2.96993997179718 -0.97752297629763
 1 -13.59860508420842 -1.68690267446745 -1.85192164686469
 1 -13.92990079227923  0.18699576837684  1.70818350105011
 1 -13.71011040464046  0.81046617371737 -0.05397773217322
 1 -14.74364166826683 -1.42544125752575  0.24175577987799
 1 -10.15608422532253 -2.92011879467947 -1.61956725212521
 1 -11.11195140404040 -2.31764655605560 -3.08756704290429
 1 -9.77974015751575 -1.40823003160316 -2.45891750425042
 1 -9.23881253605361  1.05183731473147 -0.93656746684668
 1 -10.17316864446445  0.21727299139914  2.51033677647765
 1 -11.76031139203920  0.35526222782278  3.05511386148615
 1 -11.03596429012901 -1.19509638613861  2.17116790649065
 1 -11.99430197269727  2.19613573557356 -0.08298508250825
 1 -12.25708194759476  2.52784836033603  1.59886359815982
 1 -10.69846012811281  2.28412900340034  0.89160345384538
 1 -12.16579965246525 -2.37170004360436  1.37712219111911
 1 -8.98219906180618 -1.71391974967497  0.48970806970697
 1 -5.52832227832783 -2.14923824892489 -0.16315435983598
 1 -5.93714612991299 -1.73239847244725  1.48211660786079
 1 -7.10524063466347 -2.61558383138314  0.69784593539354
 1 -7.39513082418242  1.31137946704670 -0.69045872237224
 1 -4.49488613331333  0.08529714811481  0.24995121942194
 1  13.53370904800480 -0.85471715911591  2.39803474407441
 1  11.98578375537554 -1.78936831683168  1.99086508620862
 1  13.65633799069907 -2.83756542154215  0.56048297419742
 1  12.62540997949795 -2.30807728622862 -1.58508160286029
 1  11.54551455965597 -2.70121924582458 -0.51424676677668
 1  11.92993260146015  0.32471283798380  3.36786182488249
 1  10.56841381908191  1.53354891799180  2.72049957415742
 1  10.50898852005201 -0.42492080658066  2.66796303750375
 1  13.40678758065807  1.42764138833883  0.26921098589859
 1  12.28010062326233  2.42400183798380  1.13122782848285
 1  13.36063190029003  1.39992447154715  2.18554503610361
 1  12.71474229372937  0.09761315171517 -3.20564301620162
 1  11.79168623702370  1.31764385528553 -2.18938687358736
 1  13.47083791639164  0.42145819871987 -1.67959344474447
 1 -5.27169939383938  2.92040642744275 -0.67161857265727
 1  9.95217646824683 -0.39088774637464 -2.60142247804780
 1  15.01482432763276 -0.77840765516552  0.51332993229323
 1  8.50363221402140  1.95813814101410 -0.47836511371137
 1 -2.68389347354735  4.29524597429743  0.77372320202020
 1 -2.06080484478448  4.18335556035604 -0.93679678877888
 1 -3.74698108320832  4.54843302510251 -0.66629643114311
 1 -2.51019063916392  0.41635384738474  0.30335738113811
 1  6.61391414131413 -1.78927848994899  0.35486797149715
 1  8.09505471997200 -1.75424014881488 -0.70184095819582
 1  8.23459338093810 -1.66399872827283  1.10533429432943
 1  6.40671581868187  1.72430623602360 -0.24758677837784
 1 -0.67839919691969  2.97890193369337 -0.27115702720272
 1  4.81000698709871 -0.97898439513951  0.15550823192319
 1 -0.38636755995600 -0.17446925982598 -0.02919030793079
 1  3.80400956885688  1.81830746694669 -0.10300252525253
 1  1.69954682988299  2.27297308920892 -0.42686538493849
 1  1.27830666546655 -1.43420002420242  0.00719971557156
 1  2.86240756555656 -1.86406270777078 -0.22027979797980
 1  2.81506820322032 -1.32796702570257  1.31630491709171
=======
>>>>>>> 6a1b998aacd80a23911c140f266e48a14f2d523d

