%nproc=3
%Mem=2GB
# td=(NStates=1) CAM-B3LYP/6-31G(d,p) 

TD

0 1
 8 -11.75735240284028  0.24591523992399 -1.46540370397040
 8 -12.85832666846685 -2.50486879487949  1.48417410241024
 8  10.68033355325533 -0.94822471037104 -2.18354208050805
 8  14.49364273097310 -1.03822254375438  0.05759127172717
 6 -10.96356452365237 -0.08339229392939 -0.27593701810181
 6 -11.65610189988999 -1.13165434533453 -1.18270711101110
 6 -11.72795483848385  0.41229791259126  0.95905556055606
 6 -13.01802700640064 -1.70584074197420 -0.86386802080208
 6 -13.28275673367337 -0.08214566216622  0.97550223812381
 6 -13.49511594509451 -1.46301783958396  0.58252702000200
 6 -10.91795738443844 -1.93991940944094 -2.27833015131513
 6 -9.45679512331233  0.08473560736074 -0.46260321842184
 6 -11.02455843324332 -0.11016661266127  2.28000306740674
 6 -11.76738711901190  1.89231433453345  0.87445553725373
 6 -8.56929035073507 -0.81195923712371  0.09206794579458
 6 -7.16038402800280 -0.66513835993599  0.20437813811381
 6 -6.25836985188519 -1.72284097289729  0.46666890319032
 6 -6.64616027772777  0.66147697759776  0.00606205100510
 6 -5.30911085268527  0.94719675637564 -0.08645297549755
 6  11.80167941484148  0.08790882038204  1.41988151625163
 6  11.65607289738974 -0.60965712091209 -1.16581046074607
 6  12.50706793489349 -1.27325155485549  1.59803453685369
 6  13.26174086078608 -1.77983251665167  0.38126209060906
 6  12.35781071577158 -1.91010551955196 -0.85384934743474
 6  11.04851173907391  0.00108485638564  0.01290847114711
 6  10.84551595649565  0.28245488748875  2.53436577677768
 6  12.80317343404340  1.30097331813181  1.35090814181418
 6  12.64199050525052  0.45242411571157 -1.80706465426543
 6 -4.77488398409841  2.16167867386739 -0.30874572347235
 6  9.87089827732773  0.54602540534053 -0.09670084678468
 6 -3.40394555295530  2.61299005270527 -0.43013327402740
 6  8.60541032703270  1.06527286108611 -0.14417875787579
 6 -3.01060274537454  4.08119957945795 -0.60896062816282
 6 -2.25955287038704  1.69064091279128 -0.38151068576858
 6  7.49757930043004  0.09124971297130 -0.05832501660166
 6  7.79712444894489 -1.45293224532453  0.05402532543254
 6  6.20610195819582  0.69447637793779 -0.12530646664666
 6 -0.97967209870987  1.83333245694569 -0.34374254935494
 6  4.99510111291129  0.01901101720172  0.03002437123712
 6  0.02546902590259  0.87017032693269 -0.30714981778178
 6  3.76290569826983  0.75311566196620 -0.14586205520552
 6  1.40638257905791  1.18926065376538 -0.44069645054505
 6  2.42683058355836  0.24383368306831 -0.22971961406141
 6  2.28308817051705 -1.20328450875088  0.11975056865687
 1 -12.95886768756876 -2.84383736153615 -1.01712693669367
 1 -13.68010323402340 -1.33727771197120 -1.68853530823082
 1 -13.53222102430243  0.18058512731273  1.90824350705070
 1 -13.74909430303030  0.50318544564456  0.29470713631363
 1 -14.62800010411041 -1.59372808620862  0.80385198949895
 1 -10.59000761766177 -2.93892067486749 -1.84029932533253
 1 -11.31909211811181 -2.34146893829383 -3.26677496369637
 1 -10.15015719921992 -1.11984119271927 -2.60410202270227
 1 -9.10040869566957  0.87804993599360 -0.97232104220422
 1 -10.08296962456246  0.28443970807081  2.49188493129313
 1 -11.78511387228723  0.27647434903490  3.08957730783078
 1 -11.00448114181418 -1.15684256075608  2.39636042574257
 1 -12.25914845734573  2.21416753875388  0.05088830483048
 1 -12.31897813721372  2.20310588608861  1.53295700750075
 1 -10.73602388448845  2.40394098459846  1.02830712421242
 1 -11.89757282978298 -2.40106297989799  1.46040051895190
 1 -9.09193003490349 -1.80980933863386  0.28471757065707
 1 -5.78539798589859 -2.28768209330933 -0.45833387778778
 1 -5.52799521482148 -1.50177541014101  1.16901529772977
 1 -6.83740385098510 -2.61157343034303  0.73583973477348
 1 -7.42550386148615  1.47014534363436 -0.22459213571357
 1 -4.65819246394639 -0.09430081168117  0.17864408870887
 1  13.23464914201420 -1.28889057645765  2.43519846044605
 1  11.97928310531053 -2.03326270627063  1.98542454215422
 1  13.61295365226523 -2.93362502750275  0.54629155505551
 1  12.74156159465947 -2.24815129362936 -1.85382847754775
 1  11.56030603880388 -2.60542966686669 -0.74523986608661
 1  11.34262387058706  0.10364073077308  3.34096913561356
 1  10.20112709040904  1.16524208730873  2.52531005520552
 1  10.03831145234524 -0.68783709820982  2.46391263246325
 1  13.59481638353835  1.16906553075308  0.64728879367937
 1  12.28199081228123  2.13212265006501  1.19528423412341
 1  13.32942877997800  1.21287576667667  2.43768024962496
 1  13.08341916141614  0.24381777217722 -2.85737818971897
 1  12.00729779817982  1.34247633853385 -2.19135707060706
 1  13.61838267086708  0.51881793469347 -1.18706419181918
 1 -5.74502672657266  2.94835922272227 -0.36619803060306
 1  10.19360061066107 -0.10607926552655 -2.51830416621662
 1  15.17749059425943 -1.21103091749175  0.70273887318732
 1  8.32702455325533  2.03789611681168 -0.43585086228623
 1 -2.61972705690569  4.49745619531953  0.38276410611061
 1 -2.26204496879688  4.26346357115712 -1.30644375347535
 1 -3.85308169326933  4.73099128092809 -0.73201300280028
 1 -2.54820444054405  0.57475968796880 -0.46904985958596
 1  6.74122687258726 -1.81717127922792 -0.18279579487949
 1  8.56860207470747 -1.57100182498250 -0.67716849094909
 1  8.00842076367637 -1.89510183858386  1.07285104600460
 1  6.33642878997900  1.79409321472147 -0.19800181988199
 1 -0.46273763076308  2.82605664916492 -0.51525143664366
 1  4.84163014941494 -1.12955945264526  0.26089877097710
 1 -0.18064698789879 -0.14346615951595 -0.21295868476848
 1  3.94667383528353  1.88037367356736 -0.13885611061106
 1  1.79701657685769  2.27742353425343 -0.56384908330833
 1  1.24109294409441 -1.47499410361036 -0.07862886728673
 1  3.00410173497350 -1.98078437993799 -0.51677944794479
 1  2.55807250365037 -1.63710793979398  1.09717300390039

