%nproc=3
%Mem=2GB
# td=(NStates=1) CAM-B3LYP/6-31G(d,p) 

TD

0 1
 8 -11.64031069866987  0.21203185158516 -1.56443360696070
 8 -12.98818965476548 -2.52487079507951  1.32438812381238
 8  10.54835035493549 -0.96206609450945 -2.13139686598660
 8  14.41530489718972 -1.29809853135314 -0.25272976037604
 6 -11.01363953115312 -0.12559651435143 -0.37082650705070
 6 -11.56348263796380 -1.15268644854485 -1.29232807310731
 6 -11.80156219921992  0.29344602740274  0.90371002600260
 6 -12.94988019171917 -1.82777293519352 -0.97667930193019
 6 -13.29216767476748 -0.15967341494149  0.86163085098510
 6 -13.47663409690969 -1.63215475327533  0.35994476177618
 6 -10.70330591929193 -1.96419183668367 -2.26955927422742
 6 -9.54224366816682  0.05654278807881 -0.37554451255126
 6 -11.15662163956396 -0.09789538553855  2.26148121522152
 6 -11.72846322662266  1.89329443254325  0.83704179587959
 6 -8.65675909760976 -0.81170921212121  0.17185592459246
 6 -7.23593158275828 -0.56887873397340  0.32716041634163
 6 -6.31031504640464 -1.61710039883988  0.80440267656766
 6 -6.64891055275528  0.72258308820882  0.07287873267327
 6 -5.31725166676668  0.92048408510851 -0.03839817001700
 6  11.89334858175818  0.07389741924192  1.26946647474747
 6  11.66547383748375 -0.58237439263926 -1.20315419511951
 6  12.52283951205120 -1.26472070177018  1.50800553395340
 6  13.23864855155516 -1.99099363276328  0.17140110451045
 6  12.23606854155415 -1.87920242924292 -0.95636959945995
 6  11.09087597549755  0.00813556145615  0.01812899319932
 6  10.99541094599460  0.29577621962196  2.61699403960396
 6  12.99734285098510  1.11702492329233  1.32382543354335
 6  12.60056636283628  0.35165403870387 -2.07005095289529
 6 -4.65866236193619  2.15210771677168 -0.34338918781878
 6  9.88734992249225  0.63819462226223 -0.02061323802380
 6 -3.37545270367037  2.57277603130313 -0.47194745544554
 6  8.63993377937794  0.96423275707571 -0.12499683968397
 6 -3.01961364646465  3.99347080658066 -0.85319505160516
 6 -2.39473638873887  1.60461230993099 -0.26960949564957
 6  7.48402794529453  0.14895548354835 -0.03735291939194
 6  7.73698843534353 -1.32916986908691  0.08167809070907
 6  6.28004935293529  0.75156208650865 -0.03330726672667
 6 -1.00078420992099  1.86690581428143 -0.22918109320932
 6  4.94024562736274  0.20157927402740  0.11272264106411
 6  0.05479195819582  1.05537884778478 -0.10172927572757
 6  3.83210261796180  0.91822217261726  0.00227275827583
 6  1.40314225502550  1.37725945364536 -0.06616899779978
 6  2.44016191669167  0.39644894459446  0.03029638753875
 6  2.29743960566057 -1.04158833913391  0.41304989858986
 1 -12.89400120092009 -2.96262924072407 -1.14185940994099
 1 -13.81592681638164 -1.37871185538554 -1.71220767546755
 1 -13.73664146634663  0.03015008380838  1.80578326102610
 1 -13.71433082668267  0.49797492459246  0.06246391199120
 1 -14.54269157325733 -1.86822553595360  0.44671627592759
 1 -10.31259987688769 -2.85218200100010 -1.77297259265927
 1 -11.44952516141614 -2.34581937333733 -3.17461574777478
 1 -9.89531171467147 -1.17286649524952 -2.81378299079908
 1 -9.12293094789479  1.10373250425043 -0.79799360946095
 1 -10.27306863446345  0.39577084118412  2.33190893369337
 1 -11.69120448134813  0.04869157075708  3.06451480158016
 1 -10.69589028272827 -1.00763764026403  2.30924171387139
 1 -11.71503404590459  2.09735585758576 -0.44085086908691
 1 -12.64612085148515  2.39516509200920  1.26596030783078
 1 -10.66143642574258  2.24188477897790  1.05558985248525
 1 -11.85976904940494 -2.75365823942394  1.12449692859286
 1 -9.06316715861586 -1.80492885058506  0.48357745664567
 1 -5.65901534763476 -1.79437276237624 -0.05950399479948
 1 -5.73624603990399 -1.31945717831783  1.54989338553855
 1 -6.92989309990999 -2.42516478947895  1.12753890469047
 1 -7.18983029412941  1.53515184428443 -0.15831550805080
 1 -4.72095874057406  0.12380099849985  0.26242246654665
 1  13.33214889198920 -1.23168485588559  2.16466140674067
 1  11.75852102910291 -1.84457383738374  2.02255825552555
 1  13.51276363326333 -3.06652831783178  0.41503842974297
 1  12.65802324082408 -2.45745222372237 -1.78612170687069
 1  11.34384439263926 -2.58914803870387 -0.54608995109511
 1  11.51968157635764 -0.08663829712971  3.49648468716872
 1  10.65911288898890  1.25327089018902  2.73540106430643
 1  10.17913553475348 -0.26939525402540  2.48034427562756
 1  13.63515041694169  0.73225184938494  0.58418248304830
 1  12.67359997319732  2.15734517231723  0.68170287598760
 1  13.45548138523852  1.41871635073507  2.28697517911791
 1  12.88234905440544  0.03446683708371 -2.97574002590259
 1  12.08997606600660  1.23376546744674 -2.40641857675767
 1  13.46854768736874  0.47425347824783 -1.47595308070807
 1 -5.39717194109411  2.94449883668367 -0.53736514731473
 1  9.93414466506651 -0.19885854345435 -2.06733906970697
 1  15.10398324352435 -1.55686550095009  0.45881448074808
 1  8.50739259005901  2.16393872107211 -0.23875115231523
 1 -2.76002108630863  4.70677712741274  0.08793462316232
 1 -2.27165592989299  4.18411563636364 -1.67791090019002
 1 -4.10201658675868  4.49058724052405 -1.07958776027603
 1 -2.67599721982198  0.58667087908791 -0.00040299489949
 1  7.09293204310431 -1.94456401850185 -0.18257577287729
 1  8.70095531003100 -1.54905963076308 -0.47775854995500
 1  8.06925684728473 -1.49458178657866  1.14723848474848
 1  6.46397154425443  1.70392419781978 -0.09135115481548
 1 -0.74294565156516  2.80177422092209 -0.52866277777778
 1  4.79153513991399 -0.87953445014501  0.25879856095610
 1 -0.09505842904290 -0.04828664156416 -0.01979936883688
 1  3.84199336723672  1.91414705090509 -0.06953917891789
 1  1.79061593679368  2.36105189708971 -0.18680137853785
 1  1.16153498829883 -1.24664126832683  0.61079007460746
 1  2.75899722452245 -1.68586488798880 -0.29634740474047
 1  2.73294999139914 -1.05747997699770  1.48268155475548

