%nproc=3
%Mem=2GB
# td=(NStates=1) CAM-B3LYP/6-31G(d,p) 

TD

0 1
<<<<<<< HEAD
 8 -11.76045271287129  0.29788043644364 -1.29783694729473
 8 -12.89602043784378 -2.58755706370637  1.38442412741274
 8  10.61047656755676 -1.20812069997000 -2.00812453875388
 8  14.43836720342034 -1.17623634513451 -0.00231471887189
 6 -11.07356552375238 -0.20243419811981 -0.21337076147615
 6 -11.68681497119712 -1.13273445334533 -1.25552439273927
 6 -11.67175921892189  0.19195587838784  1.15568522352235
 6 -12.95792099579958 -1.81493165106511 -0.89038067206721
 6 -13.29603806180618 -0.22358980658066  1.00069475737574
 6 -13.41893832733273 -1.65520705850585  0.49628839613961
 6 -10.89162475117512 -1.78291370887089 -2.28214053235323
 6 -9.54024346814681  0.04411154495450 -0.32592955105511
 6 -10.89992596999700 -0.40940653665367  2.24530959805981
 6 -11.57465784608461  1.74638974207421  1.35872396409641
 6 -8.55650907260726 -0.87207524872487  0.05073381238124
 6 -7.16383437303730 -0.63852569866987  0.03581128142814
 6 -6.12461647654765 -1.67257594639464  0.21775401170117
 6 -6.62582824452445  0.67860869076908 -0.20865942114211
 6 -5.32725266686669  1.00889292599260 -0.27221155135514
 6  11.85769501640164  0.09165919541954  1.41031055915592
 6  11.63437072717272 -0.81335749094909 -1.09831371107111
 6  12.61588881698170 -1.29816404610461  1.60113484688469
 6  13.30657534423442 -1.97747228062806  0.47997196159616
 6  12.29581451615162 -2.12574708370837 -0.72198616111611
 6  11.04765165306531 -0.08194344644464  0.11910909120912
 6  10.85773717861786  0.26894353635364  2.49511185138514
 6  12.81459457615762  1.29037225802580  1.37813086408641
 6  12.53129943614361  0.19621849514952 -1.93730767856786
 6 -4.77528402410241  2.34907741374137 -0.27152200110011
 6  9.82704389188919  0.46743754655466 -0.10835201190119
 6 -3.41266642504250  2.66351510521052 -0.46914717541754
 6  8.64092387838784  0.99103543734373 -0.24391873187319
 6 -3.03214489958996  4.11838329782978 -0.77246697879788
 6 -2.30721763686369  1.74453630233023 -0.28852138683868
 6  7.45940548304830  0.21191177917792 -0.00331951605161
 6  7.62679741624162 -1.27207415951595  0.26292621552155
 6  6.24955630363036  0.83021995229523 -0.27610154615462
 6 -1.01373550505050  2.01995111881188 -0.49255743084308
 6  4.87969957275728  0.28229734583458 -0.20432906410641
 6  0.12786926592659  1.11469477937794 -0.18852795559556
 6  3.75600500820082  1.03189353975398 -0.30743821282128
 6  1.47079902070207  1.50629235693569 -0.37376975787579
 6  2.38329623012301  0.56168546824682 -0.14305094719472
 6  2.27450731243124 -0.96002018231823  0.10677927152715
 1 -12.81393319411941 -2.79358233603360 -0.98498372237224
 1 -13.60361558525853 -1.47197118131813 -1.72397885258526
 1 -13.62295009720972 -0.35758869006901  2.06682936563656
 1 -13.90481987558756  0.61850697779778  0.38637630323032
 1 -14.49653695779578 -1.96024473787379  0.49283088738874
 1 -10.53154177107711 -2.78830561336134 -2.13199849524953
 1 -11.46800700960096 -1.74896968836884 -3.21388967516752
 1 -10.09739192269227 -1.14956416501650 -2.48629024152415
 1 -9.42991164596460  1.13376550755076 -0.70490430053005
 1 -9.87620894849485 -0.05968470437044  2.20468621142114
 1 -11.31942730363036 -0.23211651005101  3.35161351145115
 1 -10.76518721242124 -1.50890776727673  2.21925271497150
 1 -12.21724426692669  2.20930705270527  0.38059127512751
 1 -12.10494673407341  2.20211578707871  2.23538725052505
 1 -10.56078636073607  2.10572116261626  1.42101639513951
 1 -11.98472154465446 -2.67785065866587  1.31929640854085
 1 -8.95447628952895 -1.72392074977498  0.25590468936894
 1 -5.07326677277728 -1.83150647574758 -0.51411945634563
 1 -5.88207062236224 -1.85493072567257  1.43681207740774
 1 -6.79832994359436 -2.66927920092009 -0.06791064026403
 1 -7.44113542464246  1.40742907200720 -0.19507918441844
 1 -4.82803944864486  0.02102072047205 -0.33058683438344
 1  13.41785746284629 -1.02698438583858  2.30959590019002
 1  11.96929210621062 -1.98664804480448  2.08270427012701
 1  13.49195155205521 -3.10205187018702  0.81218814471447
 1  12.89523696219622 -2.51862834133413 -1.58033112781278
 1  11.42869287748775 -2.81142026592659 -0.33687903000300
 1  11.55393500170017  0.43297366406641  3.42530756945695
 1  10.25517249494949  1.32446800990099  2.54877240144014
 1  10.12869049024902 -0.71819013351335  2.57346358755876
 1  13.56285318721872  1.12971159535954  0.70487455225523
 1  12.18713132633263  2.14915435323532  1.28640334603460
 1  13.29366520362036  1.33035751485149  2.44614109570957
 1  12.71818263776378 -0.32775938553855 -2.74883733563356
 1  11.93273034143414  1.09328141904190 -2.12352028692869
 1  13.50344117671767  0.48201425432543 -1.20623610901090
 1 -5.60620284418442  3.03571795859586 -0.37948935973597
 1  10.01246249684969 -0.39815847344734 -1.99238157395740
 1  15.12367521272127 -1.23275308970897  0.63444204350435
 1  8.42463431423142  1.94950727792779 -0.53288056525652
 1 -2.20466555075508  4.57344379407941 -0.14964913521352
 1 -2.85507427172717  4.05995322012201 -2.08044115321532
 1 -3.90469685478548  4.85065324712471 -0.70254005550555
 1 -2.52810243034303  0.71006321832183  0.01751879727973
 1  6.51204395429543 -1.69597916001600  0.25653813851385
 1  8.21157637213721 -1.79830455525553 -0.56862763686369
 1  8.05274519611961 -1.56784911331133  1.30002376327633
 1  6.32682782988299  1.91778558395840 -0.14194621432143
 1 -0.67104846184618  2.95533957745775 -1.10563047454745
 1  4.91481746814681 -0.75443193989399 -0.03266058495850
 1  0.07941901870187  0.11278946604661  0.12715532663266
 1  4.00753992189219  2.05374101030103 -0.28071029602960
 1  1.85035191039104  2.46890268216822 -0.56879957835784
 1  1.18428726352635 -1.17740434463446  0.55963495909591
 1  2.15757708250825 -1.49443574507451 -1.07986575657566
 1  3.27669436583658 -1.29193342234223  0.81363465006501
=======
>>>>>>> 6a1b998aacd80a23911c140f266e48a14f2d523d

