%nproc=3
%Mem=2GB
# td=(NStates=1) CAM-B3LYP/6-31G(d,p) 

TD

0 1
<<<<<<< HEAD
 8 -11.61336800440044  0.19627027542754 -1.59666683028303
 8 -13.43020385618562 -2.38613692169217  1.50247593259326
 8  10.63199871977198 -0.95986587448745 -2.14734846114611
 8  14.50721408810881 -1.05497421892189 -0.18873336073607
 6 -10.97268543574357 -0.02045600030003 -0.34509393379338
 6 -11.61695798549855 -1.10070125002500 -1.22282112241224
 6 -11.78999104210421  0.44301098389839  0.79999965496550
 6 -13.04145934963496 -1.80828098599860 -1.00639227322732
 6 -13.25307376537654 -0.00916836443644  0.71519620752075
 6 -13.65683211671167 -1.44398593639364  0.36702546984698
 6 -10.68714430313031 -2.22768818631863 -1.99449176747675
 6 -9.51011045484548  0.15560269406941 -0.31735869396940
 6 -11.16087206460646 -0.06597219321932  2.16520158725873
 6 -11.72667304760476  1.86211131423142  0.81756984868487
 6 -8.58545196689669 -0.79187722892289  0.03006174517452
 6 -7.21112910251025 -0.60265211131113  0.11149885018502
 6 -6.43152716761676 -1.79955864466447  0.61940417671767
 6 -6.58549421112111  0.59382021192119 -0.08738729392939
 6 -5.24922486408641  0.84066610331033 -0.13147747794779
 6  11.95844509140914  0.08525855535554  1.27265679377938
 6  11.69983727382738 -0.64141029622962 -1.25810969066907
 6  12.73935116321632 -1.25071930163016  1.40659539293929
 6  13.43828851555156 -1.81638617201720  0.27382134653465
 6  12.42419735443544 -1.84079858885889 -1.00590455295530
 6  11.03317020492049 -0.02178743084308  0.00357753805381
 6  11.06023742864286  0.15219186118612  2.53996633683368
 6  12.93658677537754  1.28023124392439  1.29760281128113
 6  12.51550785698570  0.43765263856386 -1.95823977177718
 6 -4.65077157285728  2.13924643064306 -0.23811866076608
 6  9.89348053555356  0.45104590739074 -0.10664184088409
 6 -3.35489064746475  2.58633738743874 -0.28250851155116
 6  8.61500128612861  0.97028336213621 -0.05553989398940
 6 -2.96020770587059  4.06768822832283 -0.55671540364036
 6 -2.28961587668767  1.66582843154315 -0.18197073177318
 6  7.41761130363036  0.17656824482448 -0.00107929202920
 6  7.58743347984799 -1.29884683678368  0.21238116101610
 6  6.17176852485248  0.75416234653465 -0.05869980598060
 6 -0.96483061456146  1.78232735643564 -0.27959613471347
 6  4.96777838063806  0.13692280838084  0.00310167896790
 6  0.09724620362036  0.85533884378438 -0.10454955775578
 6  3.79660906860686  0.80683103350335 -0.15333280228023
 6  1.38064000480048  1.18164989268927 -0.17615999689969
 6  2.46873477397740  0.24569386908691 -0.03096973907391
 6  2.36380624232423 -1.09221340164016  0.45384397799780
 1 -12.98895069586959 -2.96931990979098 -0.94249947394739
 1 -13.74584980868087 -1.70383436763676 -1.82209866456646
 1 -13.91524932713271  0.13651071987199  1.69299198189819
 1 -13.76660605420542  0.65250037713771 -0.06165850025003
 1 -14.79575687978798 -1.32479119251925  0.21094269856986
 1 -10.22431104800480 -2.98106488928893 -1.32450774617462
 1 -11.28632884178418 -2.69425421682168 -2.83777206340634
 1 -9.89083126662666 -1.57275648424842 -2.53484509700970
 1 -9.09563821862186  1.13842597359736 -0.70821463156316
 1 -10.05899722732273  0.36742800690069  2.53189893269327
 1 -11.85595095599560  0.01915861746175  2.99655800590059
 1 -10.89362005570557 -1.17006388288829  2.03220401010101
 1 -12.18853139563956  2.12210833283328 -0.19113589758976
 1 -12.52035827522752  2.29987556305631  1.56030974277428
 1 -10.77439772187219  2.53246383688369  0.93292758625863
 1 -12.32682575507551 -2.59975284888489  1.53069754865487
 1 -8.94694553645365 -1.84416277397740  0.28746784568457
 1 -5.45504495059506 -1.63562688778878 -0.12201024542454
 1 -6.14610702600260 -1.47063229582958  1.72845124132413
 1 -7.19032914351435 -2.62854512751275  0.48562471327133
 1 -7.06444775587559  1.56897522662266 -0.11170084658466
 1 -4.39444608930893  0.04127274567457 -0.08632240794079
 1  13.61626730383038 -1.32108379577958  2.09219416001600
 1  12.10182535953595 -1.90685006500650  1.72441844154415
 1  13.90874323122312 -2.82265393039304  0.67518444434443
 1  12.81264870337034 -2.08283476197620 -2.01055415011501
 1  11.68520852905291 -2.52167129102910 -0.72774811691169
 1  11.76717632583258  0.03887425412541  3.42281732043204
 1  10.67683466116612  1.12088765186519  2.66996452065206
 1  10.26232385358536 -0.71878019251925  2.65610185138514
 1  13.66846374827483  0.89156778097810  0.62214627942794
 1  12.12954556775678  2.08684812261226  0.84525923162316
 1  13.13428926602660  1.48317279637964  2.42120860246025
 1  12.73677449694969  0.21695508590859 -2.95676812871287
 1  11.83171023942394  1.26747883878388 -2.03452138703870
 1  13.53629446204620  0.65766181908191 -1.35358084348435
 1 -5.48431065496550  3.05849023582358 -0.39005041584158
 1  9.95907715831583 -0.33040169776978 -2.10861319711971
 1  15.09981282648265 -1.04916473087309  0.55979457875788
 1  8.60658250905091  2.17973030023002 -0.44149142634263
 1 -2.67629271347135  4.47273372307231  0.48829465916592
 1 -2.21068983328333  4.43896112091209 -1.46620973007301
 1 -3.95624200930093  4.50495867766777 -0.62381218271827
 1 -2.51668128822882  0.56862907490749 -0.19111206580658
 1  6.56931968186819 -1.65604516661666 -0.15724323962396
 1  8.51643685818582 -1.69381410621062 -0.23608438253825
 1  7.71841176277628 -1.36397872627263  1.30559432033203
 1  6.02341748884889  1.88722252765277 -0.45353737343734
 1 -0.44473583058306  2.71465550905091 -0.45906581808181
 1  5.05590157655765 -0.97606410311031  0.19287196829683
 1 -0.38529745294529 -0.10387220012001 -0.03713110201020
 1  3.80925009290929  1.85771140734073 -0.54345657065707
 1  1.42651952715272  2.18110390229023 -0.63961666006601
 1  1.47697653245325 -1.55094169836984  0.22076107170717
 1  3.01514283908391 -1.80955725722572 -0.14532230223022
 1  2.60793749014901 -1.27183141214121  1.57944123072307
=======
>>>>>>> 6a1b998aacd80a23911c140f266e48a14f2d523d

