%nproc=3
%Mem=2GB
# td=(NStates=1) CAM-B3LYP/6-31G(d,p) 

TD

0 1
 8 -11.74660132773277  0.05624627302730 -1.43549071267127
 8 -13.05760659645965 -2.56584489248925  1.55299098409841
 8  10.60894641454145 -0.86499638753875 -2.04688841514151
 8  14.46001936863686 -1.10839956145615  0.13202871547155
 6 -11.03119128632863 -0.20844479917992 -0.28565799019902
 6 -11.65388167786779 -1.33270445034503 -1.03927276757676
 6 -11.58521056405641  0.39772645544554  1.04069372437244
 6 -13.05947115081508 -1.90443060096010 -0.73442507650765
 6 -13.10910936893689 -0.05771321892189  1.06167085498550
 6 -13.48922535603560 -1.45516705450545  0.64891365866587
 6 -11.00185577427743 -2.04138955645565 -2.32045436373637
 6 -9.53795323912391  0.14043117691769 -0.35721267936794
 6 -10.92411838923892 -0.02649824582458  2.29389445654565
 6 -11.55998637893789  1.86386148924892  0.91102919461946
 6 -8.59192261396140 -0.68711675287529  0.15941468046805
 6 -7.16269425902590 -0.48004985108511  0.10993869416942
 6 -6.23090710561056 -1.69692838163816  0.33913614991499
 6 -6.66155181688169  0.72274310421042 -0.07593614881488
 6 -5.24166410801080  1.02293433013301 -0.10117444764476
 6  11.83439268616862 -0.02609257975798  1.36979650775078
 6  11.73060035013501 -0.60169632483248 -1.08687256695670
 6  12.55285251335133 -1.50004423412341  1.60950568396840
 6  13.29841452815282 -1.93577811121112  0.34585855025503
 6  12.36510144484448 -1.88058256725673 -0.87236119861986
 6  11.03098998689869  0.04666941484148  0.13551073137314
 6  10.94995640054005  0.11539818181818  2.54849718991899
 6  12.85471858855886  1.02500572137214  1.66090914191419
 6  12.70968727492749  0.43623249654966 -1.74386833463346
 6 -4.73055955165516  2.22858536453645 -0.34159900880088
 6  9.88583977147715  0.63672447524752 -0.05433661036104
 6 -3.39818497689769  2.59058781248125 -0.43384364506451
 6  8.62414220022002  1.12476881068107 -0.05027936793679
 6 -3.06093777887789  4.02204366386639 -0.76540627272727
 6 -2.46953386848685  1.54524637333733 -0.35911844654465
 6  7.48046758925893  0.20633122112211 -0.00749993409341
 6  7.60853559005901 -1.30344729682968  0.03622354525453
 6  6.23424477247725  0.90054698499850 -0.17222115811581
 6 -1.11883601510151  1.90155927962796 -0.30538871397140
 6  4.95922752555256  0.18472758885889 -0.23313194439444
 6 -0.03792731373137  0.95439874977498 -0.51204030683068
 6  3.84467387508751  0.89787013741374 -0.47749521852185
 6  1.39225116591659  1.19691141884188 -0.49534191509151
 6  2.50137803830383  0.36705600530053 -0.37632427452745
 6  2.34814467616762 -1.06558073837384 -0.19250065646565
 1 -13.15564736553655 -2.92150512831283 -0.87541276527653
 1 -13.52789801350135 -1.58196218041804 -1.61016747144714
 1 -13.51446924912491 -0.12296522772277  2.14629731243124
 1 -13.57521691529153  0.63711883898390  0.26191385698570
 1 -14.66665396949695 -1.60878959235924  0.93363496779678
 1 -10.88689730663066 -3.10557734053405 -1.99396469186919
 1 -11.97982819171917 -2.10102489388939 -3.07937622382238
 1 -10.02648483198320 -1.69218842744274 -2.66725833833383
 1 -9.23941259605961  1.20995312631263 -0.85749956005601
 1 -9.79894122172217  0.04174543864386  2.23850959375938
 1 -11.42935829672967  0.70186688828883  3.17853620372037
 1 -11.23599429312931 -1.12012888938894  2.54716550625063
 1 -12.01055359785979  2.42074819681968  0.13395661166117
 1 -11.99059529892989  2.48450402590259  1.62956666846685
 1 -10.58670895299530  2.34698528902890  0.97774206770677
 1 -12.16207928042804 -2.83484635823582  1.27981246014601
 1 -8.95732657455746 -1.60707906560656  0.49709880878088
 1 -5.63366281238124 -1.77728105320532 -0.38524656905691
 1 -5.90873328862886 -1.75814104670467  1.41359975617562
 1 -6.89459957055706 -2.82736500950095 -0.00627447664766
 1 -7.28939025012501  1.46973530263026 -0.41262093859386
 1 -4.77577422212221  0.06571518991899  0.18090431473147
 1  13.30876655375538 -1.67108879627963  2.40443538413841
 1  11.71869704670467 -2.21968134813481  1.53570957065707
 1  13.54790714761476 -3.08319998499850  0.40408733463346
 1  13.05097253575357 -2.05334181268127 -1.83592668736874
 1  11.50394040224023 -2.69690881478148 -0.76724206630663
 1  11.54552416061606  0.05392575927593  3.61023606230623
 1  10.24834181188119  0.98889445254525  2.76171369556956
 1  10.26982460366037 -0.69212752725273  2.65160140134013
 1  13.65300220212021  1.04763338753875  0.86836090089009
 1  12.38200081328133  1.88348778657866  1.69084379007901
 1  13.37780361746175  1.01816629572957  2.54607108870887
 1  12.93448426792679  0.21448483888389 -2.66176862876288
 1  12.31668873727373  1.46199829072907 -1.66312424732473
 1  13.69254008660866  0.52019807270727 -1.13777926332633
 1 -5.46665888978898  3.15562994979498 -0.48632004280428
 1  10.30879212981298  0.17097844024402 -2.49712204800480
 1  15.18966181138114 -1.42248206260626  0.76968556785679
 1  8.35926777757776  2.13321564876488 -0.27816509370937
 1 -2.51067615181518  4.61105755545555  0.07298312801280
 1 -2.49596836113611  4.13036026082608 -1.82535564466447
 1 -3.92867925302530  4.39644782658266 -0.76153595509551
 1 -2.78709832993299  0.56560877287729 -0.28052100670067
 1  6.63052580248025 -1.88017757985799 -0.08382589788979
 1  8.34858007250725 -1.40329505430543 -0.86902767686769
 1  8.28531845344535 -1.69924225262526  0.93097685858586
 1  6.45097024412441  1.99695350075008 -0.20952297199720
 1 -1.01673303030303  3.04465850935094 -0.35927583908391
 1  4.85327131353135 -0.82142863956396 -0.08335565446545
 1 -0.23614253745375 -0.02714452735274 -0.29540692959296
 1  3.82935210311031  1.99581521772177 -0.24285651065107
 1  1.65904277947795  2.38749454135414 -0.32569526792679
 1  1.44550338513851 -1.52120872507251 -0.70765176957696
 1  3.17210853565357 -1.46759306080608 -0.74431220122012
 1  2.52843954035403 -1.34405863486349  0.90955424202420

