%nproc=3
%Mem=2GB
# td=(NStates=1) CAM-B3LYP/6-31G(d,p) 

TD

0 1
<<<<<<< HEAD
 8 -11.62536920452045  0.26111676007601 -1.56861402500250
 8 -13.03599443524353 -2.56315462346235  1.26883256825683
 8  10.81301682158216 -1.07324721262126 -2.14577830413041
 8  14.55416878357836 -0.98966768826883 -0.00185467286729
 6 -10.98896706390639 -0.07370132483248 -0.28438786318632
 6 -11.62213850355035 -1.10807198709871 -1.23782262256226
 6 -11.69525156815681  0.42718940174017  1.05613526852685
 6 -13.02947815151515 -1.72586274417442 -0.99829146314631
 6 -13.23243170117012 -0.03984143174317  0.88125281318132
 6 -13.48864529802980 -1.50336187398740  0.41488025532553
 6 -10.79809539823983 -2.02314773227323 -2.00573289158916
 6 -9.56533597739774  0.01945907970797 -0.30605756385639
 6 -11.07161313871387 -0.10862645864586  2.32255732283228
 6 -11.83553393369337  2.01164626772677  1.05521361306131
 6 -8.63721714341434 -0.78272631383138  0.20561930093009
 6 -7.19045703530353 -0.56107795389539  0.18748644894489
 6 -6.35201921682168 -1.78305699449945  0.41669390569057
 6 -6.57593325502550  0.61988281818182 -0.10445900110011
 6 -5.14825476707671  0.90323235993599 -0.08472280248025
 6  11.78931817871787  0.09682971247125  1.37706723482348
 6  11.76575386548655 -0.59936609180918 -1.14890877057706
 6  12.61394862296230 -1.21554578427843  1.54726946034603
 6  13.38788347504751 -1.75351988538854  0.31830579497950
 6  12.51080601530153 -1.81946645564556 -0.87050101260126
 6  11.00347723562356  0.00467521542154  0.11238841914191
 6  10.77423882878288  0.17819446144614  2.50492283248325
 6  12.77062017871787  1.26886010681068  1.50393344434443
 6  12.58919522572257  0.37502637593759 -1.93432738053805
 6 -4.65107160286029  2.05731823782378 -0.32195704460446
 6  9.84682587008701  0.58995979877988 -0.02548372507251
 6 -3.33340849924992  2.46367512121212 -0.42742300300030
 6  8.56760654665466  0.78382471627163 -0.20688502850285
 6 -3.14474615971597  4.04067552705271 -0.74141387348735
 6 -2.26371328642864  1.71076292499250 -0.22179471417142
 6  7.33776331883188 -0.01381079307931 -0.16519570367037
 6  7.61728646514651 -1.47001395349535 -0.04452452955296
 6  6.14056540454045  0.63810074037404 -0.23884782078208
 6 -0.95867999949995  1.96833595729573 -0.32589076417642
 6  4.93184478727873  0.12546166226623 -0.08740737193719
 6  0.11289776877688  1.02623593349335 -0.16640574337434
 6  3.76472588028803  0.85381573197320 -0.23462093109311
 6  1.41515345614561  1.23760548824882 -0.31398377927793
 6  2.44716261676168  0.33715301500150 -0.18866550865087
 6  2.18236809850985 -1.10952513281328  0.32161075467547
 1 -12.91797359815981 -2.74397737553755 -1.21681690569057
 1 -13.86875209890989 -1.21649563376338 -1.68593504820482
 1 -13.82686048824882  0.04311137993799  1.82182486518652
 1 -13.88660805440544  0.73441856895690  0.35067273287329
 1 -14.37489479357936 -1.73209192259226  0.59052065636564
 1 -10.77215583248325 -3.02110889368937 -1.48776407180718
 1 -11.37740794969497 -2.45531032243224 -2.93363164936494
 1 -9.78461064456446 -1.50212942154215 -2.24712632513251
 1 -9.38486714151415  0.97047917891789 -0.90778458855886
 1 -9.82267359495949 -0.07636637253725  2.29539528232823
 1 -11.62500786168617  0.44429113071307  3.21817016711671
 1 -11.44417511121112 -1.28698557505751  2.57732852255225
 1 -12.37839038153815  2.48791491349135  0.25960917691769
 1 -12.35799203860386  2.40039561506151  1.97340105190519
 1 -10.66630691279128  2.40510110061006  1.00105439893989
 1 -12.20497356985699 -2.78080095369537  1.01931641054105
 1 -8.97710855275528 -1.71614997269727  0.85087418631863
 1 -5.39433887998800 -1.93156648174817 -0.30546859125913
 1 -5.68521093639364 -1.64535976857686  1.49336773297330
 1 -6.93757386798680 -2.60516278927893  0.48495464626463
 1 -7.21646295739574  1.59465779487949 -0.42251192769277
 1 -4.42749939463946  0.01827044544454  0.17373359765977
 1  13.29261493859386 -1.15480716811681  2.41272621322132
 1  12.21723690069007 -2.12291167116712  1.91999799949995
 1  13.82610496739674 -2.77083874887489  0.57210413631363
 1  13.17997543604360 -1.99783626212621 -1.99541263596360
 1  11.81797180538054 -2.64545366926693 -0.73248859095910
 1  11.16252586078608  0.02069243594359  3.50249528822882
 1  10.52015899359936  1.16856241934193  2.41411893609361
 1  10.07814543574357 -0.49721803630363  2.32656889808981
 1  13.45558246014602  1.27862648684869  0.59910397519752
 1  12.23504611781178  2.28818825662566  1.43526823252325
 1  13.35501133823382  1.17439191829183  2.59468595019502
 1  13.02811363086309 -0.42451906150615 -2.73179563146315
 1  11.92424949334933  1.25396748764876 -2.35404333923392
 1  13.44424525712571  0.81629768266827 -1.66704218961896
 1 -5.45697792169217  2.86555094189419 -0.44019543034303
 1  10.14800605120512 -0.26171482908291 -2.40198253405340
 1  14.98289113431343 -0.66930674507451  0.95474407370737
 1  8.35275712651265  1.91576390359036 -0.32145942314231
 1 -2.36368145234523  4.46818326802680 -0.05994016431643
 1 -2.89495826012601  4.04082130693069 -1.89815292439244
 1 -4.13997038213821  4.72853103490349 -0.39687948944894
 1 -2.39263888398840  0.60126233823382  0.08007505290529
 1  6.71491424132413 -2.03820338243824 -0.27597511281128
 1  8.61909712421242 -1.53761848664867 -0.53553432753275
 1  7.77390731233123 -1.93222555095510  1.14405816671667
 1  6.33550869796980  1.81246505190519 -0.30481250095010
 1 -0.69784114111411  2.97924196769677 -0.35458537003700
 1  4.94427041344134 -1.04853134983498  0.00916359745975
 1 -0.14729365256526  0.04420260736074 -0.21622901180118
 1  3.78721788968897  1.96711234743474 -0.28821104610461
 1  1.89048592379238  2.24862065396540 -0.61909460786079
 1  1.08238707350735 -1.24040064426443 -0.01032203660366
 1  3.06581790659066 -1.88162446394639 -0.13375114511451
 1  2.37843453985399 -1.27041127012701  1.36991027762776
=======
>>>>>>> 6a1b998aacd80a23911c140f266e48a14f2d523d

