%nproc=3
%Mem=2GB
# td=(NStates=1) CAM-B3LYP/6-31G(d,p) 

TD

0 1
 8 -11.79934660226023  0.15257590599060 -1.66507367096710
 8 -12.97413824962496 -2.32083039103910  1.61628731373137
 8  10.44469998989899 -0.87538742664266 -2.15153888018802
 8  14.45846921362136 -0.90640936243624 -0.45193968136814
 6 -11.01820998819882 -0.16520047474747 -0.42687211161116
 6 -11.62290858055806 -1.28997017691769 -1.15652449274928
 6 -11.76093813681368  0.46737342014201  0.69468912391239
 6 -12.93415861956196 -1.86293645154515 -0.84581621562156
 6 -13.27002546054606  0.02772532493249  0.74552924082408
 6 -13.52922935643564 -1.49559109690969  0.56038480578058
 6 -10.82211780048005 -2.15452086958696 -2.05047736603660
 6 -9.54828427222722  0.09001613541354 -0.42752971107111
 6 -11.20965694309431  0.18714311831183  2.14829989708971
 6 -11.78861924222422  2.03038814191419  0.56247433913391
 6 -8.65279870157016 -0.67774581578158  0.16079481848185
 6 -7.24333232283228 -0.49545139123912  0.17245494579458
 6 -6.46006002090209 -1.70056874567457  0.52952518881888
 6 -6.57575323702370  0.63803463336334 -0.27853640884088
 6 -5.16929687128713  0.93412544924492 -0.31632596279628
 6  11.94346359325933 -0.03307327782778  1.29650917901790
 6  11.51289857995800 -0.46940309550955 -1.34056793649365
 6  12.72901012911291 -1.36145037473747  1.39964469786979
 6  13.35495018171817 -1.67294182758276  0.00829479387939
 6  12.28392332703270 -1.76833134213421 -1.16682064456446
 6  11.08505539343934  0.06084083198320  0.08618579887989
 6  11.11062246714672  0.01052769476948  2.62202454265427
 6  12.89990310701070  1.05517873867387  1.47285033603360
 6  12.41293759996000  0.68302717601760 -1.99490343814381
 6 -4.68150464616462  2.16493899989999 -0.42037688658866
 6  9.87522871037104  0.59119992279228  0.07686650995100
 6 -3.28516367476748  2.56097485118512 -0.41749200990099
 6  8.67047683368337  0.94535086888689  0.04592025202520
 6 -3.04669635473547  3.98312977247725 -0.66530626272627
 6 -2.35346226132613  1.54184603330333 -0.23497603230323
 6  7.50297984048405  0.15125571357136  0.17329814571457
 6  7.74424916141614 -1.27266421852185  0.36867679057906
 6  6.29927127512751  0.71873880418042  0.06961302530253
 6 -0.90449458095810  1.69823894759476 -0.23282145724572
 6  5.01408301110111  0.10421953805381  0.15915728452845
 6  0.14487096609661  0.80330364026403  0.04309520672067
 6  3.73287269496950  0.71961231163116  0.14861739273927
 6  1.47366930773077  1.08028975667567 -0.06235861676168
 6  2.46043394389439  0.12449174887489  0.16316967486749
 6  2.16687654935494 -1.26467064736474  0.39097769136914
 1 -12.66256805760576 -3.05653863166317 -0.83482870687069
 1 -13.68148337203720 -1.68143212741274 -1.52118857355736
 1 -13.67562536473647  0.32473954275428  1.71346402910291
 1 -13.83741313491349  0.64776990409041  0.14991265686569
 1 -14.64830213431343 -1.78183689708971  0.40290189448945
 1 -10.52454107100710 -3.04185096789679 -1.40118541394139
 1 -11.31988219711971 -2.62054684608461 -3.07213549974998
 1 -9.90890307380738 -1.59734894349435 -2.42890450295029
 1 -9.27225588038804  0.81366349734973 -1.04516832693269
 1 -10.21391271887189  0.62515377947795  2.40333607640764
 1 -11.79748510941094  0.76271297289729  2.92653100320032
 1 -11.16040673437344 -0.82770964746475  2.53204399409941
 1 -12.19112165466547  2.29085520752075 -0.59611639563956
 1 -12.17798403780378  2.63409898539854  1.35746945874588
 1 -10.86426670877088  2.38694928542854  0.61446574007401
 1 -11.98555162766277 -2.38501137473747  1.48674315321532
 1 -8.84852569446945 -1.72599095679568  0.68039713861386
 1 -5.74942438853885 -2.08539186428643 -0.23754179857986
 1 -5.60656307160716 -1.58323355595559  1.44050244644464
 1 -7.00965107570757 -2.55393766676668  0.83084923572357
 1 -6.96243755485549  1.81147947704770 -0.41842151865187
 1 -4.31159780448045  0.12816143454345 -0.37737151285128
 1  13.54223990109011 -1.25213690109011  2.08243318391839
 1  11.96315149214922 -2.24246362636264  1.40958695839584
 1  13.72262461936194 -2.72259392439244  0.12078900480048
 1  12.89300673917392 -2.02086856535654 -2.10462355705571
 1  11.45501550975098 -2.53647277117712 -1.12370771287129
 1  11.68312792099210 -0.22847248054805  3.51616665536554
 1  10.57908488618862  0.97962352545255  2.66172369656966
 1  10.32320994219422 -0.79620793529353  2.68671491269127
 1  13.68652555445545  1.02817144134413  0.72105617041704
 1  12.31993460666067  2.12939237703770  1.37551225692569
 1  13.55556139323932  1.08591307040704  2.32691917351735
 1  13.02239305880588 -0.03089969956996 -2.72720517241724
 1  11.75953302170217  1.48745083598360 -2.16097403230323
 1  13.26532736533653  0.74423047594759 -1.29601508690869
 1 -5.50475269916992  2.88574296109611 -0.58912032283228
 1  10.03133438403840 -0.14462311991199 -2.80008234403440
 1  15.26100894609461 -1.12400221462146  0.08725732503250
 1  8.45185703650365  2.03696602380238 -0.31076835403540
 1 -2.64514959915992  4.46904335403540  0.24102993269327
 1 -2.15868463276328  4.15346257105710 -1.40334344344434
 1 -3.98050443554355  4.52904108590859 -0.92770257175718
 1 -2.44644426452645  0.60624283628363  0.16376342174217
 1  6.76604935483548 -1.80975053715372  0.16217870257026
 1  8.35615082958296 -1.69765449024903 -0.29966074017402
 1  8.22540246184619 -1.37791011941194  1.39854361526153
 1  6.20356550365037  1.79428323372337 -0.09603162286229
 1 -0.40672202920292  2.70497454095410 -0.46700661216122
 1  5.16918290469047 -0.98504500120012  0.45913859495950
 1 -0.25057398059806 -0.30668248114812  0.25032764386439
 1  3.73387255515552  1.79078471467147  0.22511028602860
 1  1.63707058225823  2.08820461236124 -0.36787948634863
 1  1.12194102890289 -1.48261486568657  1.00364936053605
 1  2.03828515331533 -1.69658596009601 -0.95169293929393
 1  3.11049774617462 -1.99532376137614  0.94466775337534

