%nproc=3
%Mem=2GB
# td=(NStates=1) CAM-B3LYP/6-31G(d,p) 

TD

0 1
<<<<<<< HEAD
 8 -11.85039170677068  0.16104675307531 -1.45035219881988
 8 -12.79706054185418 -2.52448075607561  1.62973865886589
 8  10.61460698059806 -0.88541842974297 -2.08452217851785
 8  14.50931429812981 -1.08599732123212  0.00105561816182
 6 -10.99972814001400 -0.14440839553955 -0.21920134453445
 6 -11.55926221592159 -1.22394357425743 -1.07644648494849
 6 -11.71315335833583  0.31411809460946  1.11101075607561
 6 -12.90439564326433 -1.94446460436044 -0.73463509750975
 6 -13.17849630763076 -0.08038548614861  1.08827351525153
 6 -13.41633806730673 -1.56988852665267  0.67824659195920
 6 -10.84126971567157 -1.97805322282228 -2.23911622992299
 6 -9.59277872167217  0.15907304110411 -0.46164312241224
 6 -10.89639561696170 -0.16616221222122  2.25812087918792
 6 -11.68314869516952  1.84907001010101  1.08711680338034
 6 -8.63637705940594 -0.65981402260226  0.14011275027503
 6 -7.21364935453545 -0.46706855295530 -0.06296859655966
 6 -6.23909792469247 -1.50088877767777  0.34529676597660
 6 -6.71976763846385  0.75666649654966 -0.37082563776378
 6 -5.21977191879188  1.04568660536054 -0.48622295249525
 6  11.81888113501350 -0.06232620312031  1.45769529762976
 6  11.64125141524153 -0.54972112731273 -1.11960584028403
 6  12.48150537863786 -1.37513174287429  1.54138887228723
 6  13.42327701440144 -1.82521705510551  0.29821378577858
 6  12.49508444314431 -1.82717722672267 -0.95161912441244
 6  10.95208209610961  0.01555630353035  0.14527170747075
 6  10.87679908480848  0.13306994899490  2.64999733993399
 6  12.87486060276028  1.07181040184018  1.52758580958096
 6  12.47690399659966  0.60732960626063 -1.79466341414141
 6 -4.64672116781678  2.28796130213021 -0.54314916381638
 6  9.73537472497250  0.56352715551555  0.18229705300530
 6 -3.32470762916292  2.69773852755276 -0.56708696939694
 6  8.60923070907091  0.91209754355436 -0.18451279127913
 6 -2.94918660376038  4.05650711021102 -0.74358409050905
 6 -2.30993790889089  1.65959780848085 -0.54019655435544
 6  7.35084462696270  0.08665925392539 -0.10779996409641
 6  7.54571930843084 -1.42539949204920  0.05546546944694
 6  6.16825817381738  0.72756968726873 -0.22582651865187
 6 -0.95687981948195  1.91689081278128 -0.43139131423142
 6  4.88328993179318  0.07094621072107 -0.03085171637164
 6 -0.07325084608461  0.95305861576158 -0.21008011081108
 6  3.65431483918392  0.81159150955096 -0.18294576357636
 6  1.39970191099110  1.24222595029503 -0.18132051295130
 6  2.35342324282428  0.31283058275828 -0.10567720982098
 6  2.28914877657766 -1.22871705200520  0.08248684228423
 1 -12.59161096189619 -3.14710768856886 -0.72566779077908
 1 -13.58736396009601 -1.67695167936794 -1.60466692139214
 1 -13.72925072727273  0.04725179397940  2.06690937363736
 1 -13.84092348594860  0.65297042414241  0.46637430303030
 1 -14.55044234833483 -1.91778049144914  0.69419102340234
 1 -10.34090270717072 -2.77172395519552 -1.92076737213721
 1 -11.49588979787979 -2.34693948534853 -2.96745503170317
 1 -10.06177836133613 -1.49932914151415 -2.67091870437044
 1 -9.49134778957896  1.00849298029803 -1.14823863396340
 1 -9.80998232583258 -0.04000273617362  2.35096083888389
 1 -11.34275963686369  0.06443314491449  3.18981733183318
 1 -10.96474716841684 -1.24552142864286  2.50235102480248
 1 -12.13301584408441  2.45668179017902  0.23499671567157
 1 -12.07516375577558  2.35747132263226  1.89569328112811
 1 -10.83619390149015  2.13386397689769  0.91810610411041
 1 -11.99173224572457 -2.52314518811881  1.19526400530053
 1 -8.99327016891689 -1.78677703540354  0.38776787568757
 1 -5.19978942504250 -1.41523484858486 -0.34944298869887
 1 -5.79671208650865 -1.55867109970997  1.65176357255726
 1 -6.83419352995300 -2.65899817281728  0.12226837763776
 1 -7.24420573167317  1.59869819891989 -0.54739441594159
 1 -4.52979962466247  0.18779739813981 -0.42034581028103
 1  13.07983366046605 -1.56719840724072  2.45922086268627
 1  11.90077525452545 -2.25067444744474  1.74479047874787
 1  13.80007236413641 -2.97333899889989  0.39100602650265
 1  13.32402984148415 -1.88390486898690 -1.83795689038904
 1  11.75766577477748 -2.73763288718872 -0.93490883298330
 1  11.63352296049605 -0.00711034433443  3.57308234693469
 1  10.33714069176918  1.08281384448445  2.63347087128713
 1  10.28931655285529 -0.57621593609361  2.59328556975698
 1  13.77810471237124  0.83531215541554  0.80906497129713
 1  12.38773138633863  1.85984542234223  1.37211191689169
 1  13.30484632173217  1.22939741884189  2.65954243584358
 1  13.11263208270827  0.20028341874187 -2.82370482238224
 1  11.81994906330633  1.31731382228223 -2.20872880778078
 1  13.35536636923692  1.01215726862686 -1.23126861226123
 1 -5.42992521642164  2.88876326312631 -0.75103651445145
 1  10.26071732233223 -0.17813647124712 -2.39117145294529
 1  15.36607945314531 -1.45602541694169  0.73294189348935
 1  8.30424227502750  1.99649197639764 -0.23184046124612
 1 -2.51916700090009  4.63986043574357  0.22286811651165
 1 -2.12108087238724  4.26087331213121 -1.33794690379038
 1 -3.93039942504250  4.62133031483148 -1.04594439593959
 1 -2.61636125622562  0.61614382638264 -0.44830778537854
 1  6.67440018991899 -2.06896645874587 -0.27607512281228
 1  8.52367758225822 -1.61673639843984 -0.44133490759076
 1  7.71776169776978 -1.63058538693869  1.18911267216722
 1  6.25220036713671  1.87827163256326 -0.48125014471447
 1 -0.49861121812181  3.00411445494550 -0.39820973247325
 1  4.80969695609561 -0.92225872257226  0.35824850595059
 1 -0.34763368656866 -0.13137495039504 -0.26216360526053
 1  3.75355452335233  1.92157779397940 -0.50813303830383
 1  1.65613248844885  2.27588338023802 -0.25288798719872
 1  1.29587842264226 -1.36962356655666  0.45810480608061
 1  2.20516184098410 -1.78250455195520 -0.89522729272927
 1  3.33222991939194 -2.03255748474848  0.76067935453545
=======
>>>>>>> 6a1b998aacd80a23911c140f266e48a14f2d523d

