%nproc=3
%Mem=2GB
# td=(NStates=1) CAM-B3LYP/6-31G(d,p) 

TD

0 1
 8 -11.71375804340434  0.35845649404940 -1.37072423602360
 8 -13.02544338013801 -2.64650295829583  1.12442812781278
 8  10.76602212211221 -0.93330321822182 -2.12016574287429
 8  14.63285665236524 -1.07377609910991  0.00724623722372
 6 -11.01501966916692 -0.09158311301130 -0.24277370177018
 6 -11.63615990569057 -1.04002518241824 -1.20577941824182
 6 -11.80548259125912  0.27501418421842  1.03055271027103
 6 -13.08751395509551 -1.72743290119012 -0.99897153115312
 6 -13.25962442044204 -0.10926837443744  0.98505319321932
 6 -13.59200563406341 -1.53715525332533  0.40344911221122
 6 -10.81516710541054 -1.78595401290129 -2.13122544084408
 6 -9.51906134993499  0.18770590439044 -0.29731668976898
 6 -11.09123510091009 -0.29400499649965  2.24768983608361
 6 -11.67975835613561  1.83839894299430  1.20112820452045
 6 -8.59444286598660 -0.65973401460146  0.28576731573157
 6 -7.22982097169717 -0.44350619671967  0.29093679397940
 6 -6.34504851975198 -1.66304499329933  0.45408764506451
 6 -6.61086674837484  0.72486331623162 -0.04797335253525
 6 -5.24917485908591  0.97026906360636 -0.23239756995700
 6  11.84966421332133  0.08218824832483  1.33907343544354
 6  11.68119540964096 -0.52621877707771 -1.21570545024502
 6  12.64183141124112 -1.19186341604160  1.50390512391239
 6  13.39388407510751 -1.74364889828983  0.32501646604660
 6  12.45706064076408 -1.85250975997600 -0.95473943644364
 6  11.10663755165517  0.07179192709271  0.00459764006401
 6  10.91385279017902  0.25692233423342  2.61575391559156
 6  12.90802391909191  1.33085630643064  1.25653870487049
 6  12.70981728792879  0.47681655495550 -2.10243419121912
 6 -4.69969646534653  2.22029453545355 -0.60469531843184
 6  9.91276246374638  0.49672047484748 -0.01287246394639
 6 -3.32038719711971  2.44291304500450 -0.58404866556656
 6  8.58604839083908  0.83646998079808 -0.20207454745475
 6 -2.91001268636864  3.87430889038904 -0.94919465156516
 6 -2.32191910701070  1.59379122782278 -0.38439097379738
 6  7.44798434093409 -0.03224263626363 -0.03414259835984
 6  7.61284602110211 -1.46664361646165  0.53804372727273
 6  6.21433278127813  0.55018194849485 -0.23880781678168
 6 -0.98525265676568  1.91273039673967 -0.27573574867487
 6  4.82361396419642  0.06612572867287 -0.09475810701070
 6 -0.02874639563956  0.89310262016202 -0.12341144394439
 6  3.71025043274327  0.78342869326933 -0.24753222222222
 6  1.30974291509151  1.11914364206421 -0.12708508940894
 6  2.35447334783478  0.20486978667867 -0.02156879897990
 6  2.19486934863486 -1.15347952825283  0.38854744834483
 1 -13.07520932173217 -2.68687166496650 -1.49479470347035
 1 -13.80222544624462 -1.15719970417042 -1.86238269296930
 1 -13.62692049424943 -0.01548447964796  2.06604928762876
 1 -13.79707910151015  0.47896302340234  0.13574123972397
 1 -14.72011931603160 -1.58357707110711  0.52958456275628
 1 -10.64793341024102 -2.84256103890389 -1.71923721912191
 1 -11.32198240714071 -1.70513530493049 -3.01772005820582
 1 -9.97273945744574 -1.29318852745275 -2.35172678517852
 1 -9.27976663146315  1.20213234423442 -0.73519732983298
 1 -10.39294062166217  0.64999626372637  2.62618836163616
 1 -11.97113247414741 -0.53195649404940  3.21643999409941
 1 -10.74789548324832 -1.46849372587259  2.09614040374037
 1 -12.29793233573357  2.27279340134013  0.45172838883888
 1 -12.08169440884088  1.90912648814882  2.35271898369837
 1 -10.77886816891689  2.30310090059006  1.12564685818582
 1 -12.14071714421442 -2.57718059165917  1.23720819971997
 1 -9.15323616551655 -1.56614497219722  0.88324742364236
 1 -5.66709615571557 -1.84509783488349 -0.48821686608661
 1 -5.61747416271627 -1.46294152675268  1.30554895109511
 1 -6.75349546014601 -2.56971924492449  0.70587673847385
 1 -7.18045935703570  1.67947627672767 -0.11641131763176
 1 -4.44592123682368  0.25496411481148  0.00687691199120
 1  13.26887256435644 -1.41169285668567  2.41953689428943
 1  11.87119229622962 -1.90417979797980  1.55559155885589
 1  13.79623198009801 -2.78342000700070  0.59328625452545
 1  13.08291573007301 -2.24081055955596 -1.70274336903690
 1  11.74381438963897 -2.62510163406341 -0.67209255135514
 1  11.32664227242724  0.06432679937994  3.53962900160016
 1  10.53630060776078  1.29706526962696  2.71247877207721
 1  9.90510813201320 -0.27224553905391  2.64700094129413
 1  13.78086498839884  1.03381200540054  0.54299836463646
 1  12.18379099229923  2.28269770757076  0.90930563626363
 1  13.21408724582458  1.59621410051005  2.38254473607361
 1  13.04244506400640 -0.00803741334133 -3.09240169206921
 1  12.16669373777378  1.46381847274727 -2.44004193909391
 1  13.43303413601360  0.80191624452445 -1.40631611701170
 1 -5.49867209110911  3.05737012381238 -0.90328173897390
 1  9.87013826442644 -0.27804646224623 -2.12590492629263
 1  15.19109195439544 -0.84040385478548  0.67174577387739
 1  8.23979583038304  1.94084641184118 -0.32731000820082
 1 -2.57235231943194  4.49810626032603 -0.00227439773977
 1 -2.04666343064306  3.82818004280428 -1.61392450155016
 1 -3.70430681578158  4.55824400620062 -1.50696049754975
 1 -2.74375399549955  0.48700091209121 -0.13494644924492
 1  6.55129787968797 -2.05732529462946  0.51319380408041
 1  8.25694090859086 -2.00812553735374 -0.29787056115612
 1  8.01244116571657 -1.48783111151115  1.55068882978298
 1  6.19588473557356  1.59576338173817 -0.50022204190419
 1 -0.36053741074107  2.74371841534153 -0.44954486598660
 1  4.77110309670967 -1.05950244694469  0.41605428652865
 1 -0.36487541074107  0.01910009710971  0.22971558265826
 1  3.83392256015602  1.77554319051905 -0.34414663966397
 1  1.53158003320332  2.27832362426243 -0.32560525892589
 1  1.16173500830083 -1.52044864906491  0.12271126672667
 1  2.95513683848385 -1.78170447194719 -0.36764453445345
 1  2.66562325872587 -1.33881811081108  1.36238952555256

