%nproc=3
%Mem=2GB
# td=(NStates=1) CAM-B3LYP/6-31G(d,p) 

TD

0 1
 8 -11.73823049064906  0.42693334173417 -1.33983114671467
 8 -13.14979581538154 -2.46434474247425  1.41579726472647
 8  10.71579709960996 -0.96459634753475 -2.04166789308931
 8  14.47015038173817 -0.97579630113011 -0.04614910231023
 6 -11.02788095529553 -0.19517347204720 -0.10709013341334
 6 -11.72753904360436 -0.99801098099810 -1.14717355765577
 6 -11.71366340934093  0.25538222102210  1.11954160916092
 6 -13.01963716741674 -1.75577573547355 -0.93602523652365
 6 -13.25496395439544 -0.08624607220722  1.06704139203920
 6 -13.55033146664666 -1.46053759155916  0.46848561586159
 6 -10.92511810051005 -1.79142455995600 -2.23165548384838
 6 -9.51748119191919  0.05208234203420 -0.34045100320032
 6 -11.05720169756976 -0.35588118411841  2.34799986708671
 6 -11.59963034333433  1.85536063916392  1.17748584028403
 6 -8.63292671437144 -0.74042208340834  0.18590732973297
 6 -7.19776776637664 -0.68291013711371  0.09634733503350
 6 -6.23889790469047 -1.72888157695770  0.35509774607461
 6 -6.65271093279328  0.67294812471247 -0.15927448264826
 6 -5.26445638723872  0.93064510121012 -0.25795012521252
 6  11.80812005890589  0.00025005450545  1.50216974507451
 6  11.75030232033203 -0.58736489168917 -1.12582646234623
 6  12.62558978707871 -1.29957418711871  1.62822755615562
 6  13.35784047074708 -1.79018355175518  0.39062302670267
 6  12.37069200390039 -1.81433594259426 -0.88782274477448
 6  11.06339322722272 -0.08753400550055  0.12247942824282
 6  10.92826423132313  0.14985162716272  2.58154049424943
 6  12.72923604030403  1.27137035783578  1.56350940194019
 6  12.66680298649865  0.47257613091309 -1.79487343514351
 6 -4.70896739243924  2.14634714071407 -0.52205705460546
 6  9.87095828332833  0.48996979977998  0.05020384368437
 6 -3.35427058545855  2.47963671737174 -0.59271953265327
 6  8.65912569856986  0.93841017481748 -0.17394173417342
 6 -2.99216090119012  3.93947540704070 -0.93785351745175
 6 -2.32386930203020  1.54518636733673 -0.40982351705171
 6  7.47256679917992  0.09184977297730 -0.23051223532353
 6  7.62548728522852 -1.42693964606461  0.01928185108511
 6  6.24162551055105  0.69471640194019 -0.28914285028503
 6 -0.96718084958496  1.82520164386439 -0.54329250435043
 6  4.91527313011301  0.17920703680368 -0.02326095729573
 6  0.08744522352235  0.91754506440644 -0.25816491929193
 6  3.80227963566357  0.97306765716572 -0.16291376037604
 6  1.42844478527853  1.20025175287529 -0.43029541044104
 6  2.44307220772077  0.34991429112911 -0.17125376747675
 6  2.30364022572257 -1.09865404570457  0.15162375597560
 1 -13.03252505330533 -2.85199817761776 -1.05955117911791
 1 -13.60435565926593 -1.59348333253325 -1.62119857455746
 1 -13.35852365456546  0.08257532633263  2.25244792749275
 1 -13.91112050565057  0.67628275537554  0.41797946354635
 1 -14.46509381348135 -1.52460117351735  0.73394499879988
 1 -10.52256087298730 -2.76859364216422 -1.90464575997600
 1 -11.45925613451345 -1.76294108550855 -3.11207949414941
 1 -10.01817400090009 -1.38864807340734 -2.40183179567957
 1 -9.24488314311431  1.16963909490949 -0.61878568866887
 1 -9.97099842744274  0.09163042714271  2.34181992479248
 1 -11.61864722562256 -0.08976227462746  3.17927627772777
 1 -11.10427112081208 -1.41265814231423  2.47299808950895
 1 -11.90602314481448  2.21209733173317  0.29072228822882
 1 -12.20422666206621  2.37200277577758  2.01181489328933
 1 -10.51987226932693  2.13959454995500  1.53740803430343
 1 -12.26285935843584 -2.83031590519052  1.17754223312331
 1 -9.08341918381838 -1.53330168786879  0.72719181808181
 1 -5.67947739383938 -2.09903322842284 -0.42375041944194
 1 -5.60889330463046 -1.54012924552455  1.34311270747075
 1 -6.69530964156416 -2.66978925192519  0.68808495929593
 1 -7.40946225732573  1.42160048914892 -0.32027170367037
 1 -4.51553819851985  0.12638125652565 -0.27805158085809
 1  13.36160183728373 -1.22404409180918  2.29240418101810
 1  11.96203138013801 -2.03038241824182  1.92673867356736
 1  13.54589694659466 -2.79063072807281  0.71044797069707
 1  12.97540497899790 -2.05402188068807 -1.82400549524952
 1  11.48383839203921 -2.46013513741374 -0.64960030213021
 1  11.35320492869287  0.42398276497650  3.64751979067907
 1  10.41236821452145  0.93549911301130  2.29303682788279
 1  10.15867348854885 -0.67581589608961  2.70597683888389
 1  13.35656255815582  1.29727835203520  0.59896396119612
 1  12.04027664086409  2.04805424322432  1.67281198689869
 1  13.38776461356136  1.22022650175018  2.54304078567857
 1  12.94178499799980  0.11328471887189 -2.89839229112911
 1  12.31667873627363  1.37080917181718 -2.06080401530153
 1  13.53787462006201  0.76391244414441 -1.16649213461346
 1 -5.38560078397840  3.00630501730173 -0.73162457325733
 1  9.87444869546955 -0.36918557615762 -1.67936027182718
 1  15.17886073127313 -0.81879169356936  0.55702430173017
 1  8.56837868866887  2.06286861406141 -0.26611388858886
 1 -2.55983106730673  4.61838828852885 -0.11549571987199
 1 -2.47239600390039  4.11100832563256 -1.96560967006701
 1 -4.13439982508251  4.28154633643364 -1.12559236073607
 1 -2.59578919901990  0.45522773477348 -0.18794174877488
 1  6.64698744864486 -1.97808737083708 -0.25797331263126
 1  8.30244545904590 -1.79913463826383 -0.72346312041204
 1  7.81491141274127 -1.80945327372737  1.03164692559256
 1  6.25663081018102  1.77842164756476 -0.35200722042204
 1 -0.47686904390439  2.81977602110211 -0.72072198369837
 1  4.84426041244124 -0.88904540124012 -0.00350766966697
 1 -0.04477340054005 -0.11729354225423 -0.12211960086009
 1  3.96705587348735  1.90063569976998 -0.27391961696170
 1  1.68605548074807  2.36779257115712 -0.39031172957296
 1  1.15454428922892 -1.26612321652165  0.52266126172617
 1  2.69059038383838 -1.77103340484048 -0.68919668966897
 1  2.96657335373537 -1.21763599259926  1.02691597819782

