%nproc=3
%Mem=2GB
# td=(NStates=1) CAM-B3LYP/6-31G(d,p) 

TD

0 1
<<<<<<< HEAD
 8 -11.60823749134913  0.15540618901890 -1.62409957355736
 8 -12.95617645344534 -2.60711901990199  1.46221190619062
 8  10.53421894179418 -1.15178506640664 -2.16556028232823
 8  14.42041540824082 -1.00064878637864 -0.15881036843684
 6 -10.97836600380038 -0.16122007670767 -0.35424484888489
 6 -11.46681297099710 -1.22468364826483 -1.31127996829683
 6 -11.97588963196320  0.33873055585559  0.85190484548455
 6 -12.83377858155816 -1.96670682858286 -1.00740237423742
 6 -13.44251270927093 -0.23754120172017  0.83300798869887
 6 -13.46426285978598 -1.75388692649265  0.43306207350735
 6 -10.64475006370637 -2.03514893239324 -2.13228554685469
 6 -9.49768921272127  0.22757989178918 -0.30147710581058
 6 -11.25693167056706 -0.02319791579158  2.25539060616062
 6 -11.99074945524552  1.91242634573457  0.79403749544955
 6 -8.53353677537754 -0.63831187238724  0.10477921692169
 6 -7.20762875247525 -0.43594544064406  0.16282398269827
 6 -6.37575159005901 -1.65983467226723  0.66849908620862
 6 -6.62260792249225  0.73778460836084 -0.17879643484348
 6 -5.17238718031803  1.06333837053705 -0.00453478367837
 6  11.91595084198420 -0.08962893339334  1.29173870197020
 6  11.71131842194220 -0.63944009920992 -1.37157103680368
 6  12.64318154625463 -1.37047127682768  1.44405913931393
 6  13.38285297199720 -1.87467200060006  0.20082404680468
 6  12.44183911861186 -1.94197870687069 -0.94952891539154
 6  11.09287617551755 -0.07880313241324  0.02484966526653
 6  11.04171557645765  0.25003164516452  2.52573491369137
 6  12.89891300800080  1.13961718251825  1.32803585458546
 6  12.44282058825883  0.28575744904490 -2.20965491329133
 6 -4.72620911661166  2.28658116411641 -0.31927677657766
 6  9.94935612311231  0.39310011281128  0.09386821012101
 6 -3.33331849024903  2.65364411811181 -0.42125238593859
 6  8.75351513751375  0.85865219901990 -0.11496583658366
 6 -3.01880356545655  4.11703316281628 -0.73886361846185
 6 -2.37280419551955  1.61078292699270 -0.20699323402340
 6  7.42847238973897  0.22761334933493  0.04772558845885
 6  7.53910864736474 -1.25452240434043  0.39408933183318
 6  6.21723307130713  0.80565749604960 -0.04684862086209
 6 -1.00550468196820  2.01251037473747 -0.10586876197620
 6  4.94084568736874  0.27712682878288  0.03048441724172
 6 -0.01711523252325  1.04334764466447 -0.05650475327533
 6  3.79951935963596  1.01548189858986 -0.13105057405741
 6  1.40221216201620  1.32004373207321 -0.06072845374537
 6  2.48711661216122  0.41140043974397  0.05783914181418
 6  2.25088495019502 -1.07421160146015  0.25893448704870
 1 -12.78893069386939 -2.86594957275728 -1.42336756075608
 1 -13.53295851955195 -1.66517050125013 -1.80282673737374
 1 -13.91665946814681 -0.09209214041404  1.82999568226823
 1 -14.02873226682668  0.34394952205221  0.05346301190119
 1 -14.55150245434543 -2.15049376277628  0.15131673597360
 1 -10.43003162006201 -3.06988377117712 -1.72334763016302
 1 -10.96329653855386 -2.18729352075208 -3.13744203040304
 1 -9.60500268376838 -1.52563177177718 -2.27090870337034
 1 -9.29616827162716  1.14367649864986 -0.89716352645265
 1 -10.17763909150915  0.46073733783378  2.38950469326933
 1 -11.98936429732973  0.30557725932593  3.16767511761176
 1 -11.19686037973797 -1.21004788128813  2.47171796149615
 1 -12.46922946544654  2.23713983598360 -0.18865564956496
 1 -12.66314255365537  2.35919149464946  1.66570028182818
 1 -10.97091737383738  2.34244483498350  0.85992028552855
 1 -11.96572964546455 -2.62689556315632  1.45636011491149
 1 -9.05043588548855 -1.48921727942794  0.65394449334933
 1 -5.84647409350935 -1.93629695479548 -0.17290533493349
 1 -5.79084149944994 -1.63076830943094  1.53063145934593
 1 -6.99546965756576 -2.66410868386839  0.88317446824682
 1 -7.06111742284228  1.66438476757676 -0.69958963546355
 1 -4.44707135183518  0.20349896829683  0.44423064736474
 1  13.43140881798180 -1.47813950135014  2.23642858345835
 1  11.92324750175018 -2.16217559755976  1.74060005970597
 1  13.78555091199120 -2.90563222822282  0.27179410531053
 1  12.81703914241424 -2.33526000450045 -1.92342543724372
 1  11.61359136733673 -2.56754587848785 -0.73199854195420
 1  11.67832744094409  0.36570693739374  3.29370440914091
 1  10.48909588728873  1.13910947404740  2.45989351355136
 1  10.28265588678868 -0.57817613211321  2.61102734393439
 1  13.85200210211021  1.20829945414541  0.65385945074507
 1  12.35528814201420  1.91327076487649  0.95476018171817
 1  13.20124596169617  1.20633511261126  2.42388887048705
 1  12.79695051455145 -0.24148075767577 -3.21424387628763
 1  11.52719978837884  1.07980007090709 -2.35458339323932
 1  13.30769160176017  0.75235128802880 -1.65962144754475
 1 -5.38459068296830  3.10488487528753 -0.55521693249325
 1  9.84358560916092 -0.50334899249925 -2.37117945374537
 1  15.10007285248525 -1.19158897329733  0.64888348764876
 1  8.42619447024702  1.97732005920592 -0.43993127032703
 1 -2.56087117131713  4.62671912161216  0.12578840854085
 1 -2.16384514881488  4.09841706650665 -1.45016812591259
 1 -3.90876726182618  4.80728891069107 -0.76897669916992
 1 -2.59743936403640  0.47710992299230 -0.22280523512351
 1  6.60766351625163 -1.75124468656866  0.20699318401840
 1  8.21822703720372 -2.08003272807281 -0.31006178027803
 1  7.93565348694870 -1.45352768116812  1.35257901880188
 1  6.32895804290429  1.82200600600060 -0.57493951365137
 1 -0.30449180618062  2.97590163366337  0.00638072657266
 1  4.87656364276428 -0.76480297699770  0.28463114421442
 1 -0.10901982518252 -0.17598941184118  0.13999661076108
 1  3.90334950285028  2.13606924312431 -0.12535476047605
 1  1.68181505670567  2.46357214911491 -0.08308100650065
 1  1.25585442024202 -1.41065766996700  0.08453744934494
 1  2.80557188198820 -1.52410871237124 -0.50285805580558
 1  2.66588328472847 -1.51814604360436  1.34282756935694
=======
>>>>>>> 6a1b998aacd80a23911c140f266e48a14f2d523d

