%nproc=3
%Mem=2GB
# td=(NStates=1) CAM-B3LYP/6-31G(d,p) 

TD

0 1
 8 -11.83662032963296  0.36735738413841 -1.51189835343534
 8 -12.89970080588059 -2.57380568856886  1.44868055305531
 8  10.49970549044905 -1.18359824772477 -2.02673639993999
 8  14.52080544724472 -0.90404912641264 -0.26524101150115
 6 -11.02152031923192 -0.05396935163516 -0.33067249164916
 6 -11.65962225192519 -1.06483766366637 -1.22529136943694
 6 -11.72400444344435  0.31464814761476  1.01343099809981
 6 -12.94638984268427 -1.74135429332933 -0.89589122312231
 6 -13.22301075907591 -0.12906035363536  1.02473716161616
 6 -13.52088852235224 -1.53679521732173  0.52109087638764
 6 -10.92946853555356 -1.87476289378938 -2.26122844114411
 6 -9.51495093889389  0.16225335913591 -0.51541849995000
 6 -10.96887286468647 -0.25950154615462  2.22588765586559
 6 -11.72554293459346  1.88943404650465  0.99417750945095
 6 -8.70851427312731 -0.84768280948095 -0.04283554455446
 6 -7.17737572717272 -0.64818666476648  0.02391009130913
 6 -6.44039805470547 -1.90664935373537  0.28810104640464
 6 -6.58401406310631  0.59265009490949 -0.08405696089609
 6 -5.22442238383838  0.95615765246525 -0.20665499569957
 6  11.98333758065807  0.04922495199520  1.28089761786179
 6  11.59729701980198 -0.69041519671967 -1.25190907060706
 6  12.80419764786479 -1.15969019871987  1.43111784518452
 6  13.45551023772377 -1.74990952435244  0.18201216561656
 6  12.50367530223022 -1.95341985098510 -0.88266222872287
 6  11.13634052195219 -0.05692094419442  0.00492767306731
 6  10.98137954285428  0.26095273727373  2.41861420162016
 6  12.98728184488449  1.20790401120112  1.31226427742774
 6  12.41188749494949  0.26622549584959 -2.10682463026303
 6 -4.72477897359736  2.26225873187319 -0.52197704660466
 6  9.86092728022802  0.35077588038804 -0.04730590729073
 6 -3.35041019941994  2.64407316101610 -0.60547080778078
 6  8.61526131213121  0.82253858765877 -0.07846218621862
 6 -3.03259494459446  4.11305276477648 -0.65166489858986
 6 -2.44099101420142  1.66990883958396 -0.48840137483748
 6  7.43180272277228  0.17746833483348  0.10449126502650
 6  7.47741247774777 -1.27141409350935  0.43806372927293
 6  6.27773912191219  0.81828875917592  0.17941400540054
 6 -1.01093522502250  1.87773689738974 -0.34926310141014
 6  4.93148475127513  0.28448756485649  0.25880724952495
 6 -0.01278479947995  0.87156046594659 -0.09698880168017
 6  3.79094850255025  0.90699104950495 -0.01710917991799
 6  1.38483042384238  1.22547427512751 -0.14904728562856
 6  2.45391329182918  0.47024632433243  0.18887224512451
 6  2.33445330703070 -1.02027620792079  0.56147474107411
 1 -12.91208300910091 -2.91597457525753 -1.14308953295330
 1 -13.71320654435443 -1.52054603880388 -1.56485293999400
 1 -13.68389619181918 -0.19651258245825  1.98999168186819
 1 -13.86118551215121  0.85284041114111  0.38939660526053
 1 -14.57215451955195 -1.73635234863486  0.54669627392739
 1 -10.50198881578158 -2.86084286708671 -1.97837313271327
 1 -11.46790699959996 -2.11395618701870 -3.09720800700070
 1 -10.14662684618462 -1.26094530313031 -2.75773738623862
 1 -9.06891554635464  1.10000213121312 -0.87191100120012
 1 -9.83042437003700 -0.11217995389539  2.25057079987999
 1 -11.53004836573657 -0.07733103150315  3.16150450055006
 1 -10.91328202190219 -1.39915679217922  2.28932972267227
 1 -12.33556609910991  2.19215533753375  0.05907912391239
 1 -12.33361960136014  2.30187576307631  1.94249796159616
 1 -10.72199248134813  2.25987657815782  1.01808610211021
 1 -12.01731480398040 -2.62016489008901  1.05344982388239
 1 -9.15576641854185 -1.61421977967797  0.62310140904090
 1 -5.90313976007601 -2.51512483758376 -0.67603564796480
 1 -5.77866028132813 -1.72230746334634  1.06481487768777
 1 -7.01866197679768 -2.72335460846085  0.55067121792179
 1 -7.27646895799580  1.51787011611161 -0.00801047754775
 1 -4.65364200890089 -0.13266464806481 -0.24812858855886
 1  13.38001367846785 -0.93612529992999  2.34870981158116
 1  11.98107328432843 -2.11482086208621  1.79875587528753
 1  13.81694405130513 -2.58092975797580  0.49348627452745
 1  13.02167960646065 -2.05888236673667 -1.84506760146015
 1  11.79608961716172 -2.76290541444144 -0.75078042014201
 1  11.64500410861086  0.57083745044504  3.38292333103310
 1  10.42888986668667  1.12780834393439  2.33442096629663
 1  10.22855047624762 -0.52623093759376  2.47234347554756
 1  13.79358626052605  0.79143776797680  0.68154221902190
 1  12.54221683488349  2.11204064186419  1.11241594729473
 1  13.24650048714871  1.37746222532253  2.38509499109911
 1  12.73012383188319 -0.46550315991599 -2.93691614351435
 1  11.93312038043804  0.95230732163216 -2.52487042194219
 1  13.33963479607961  0.64116016891689 -1.61426691209121
 1 -5.59887211111111  3.06396078287829 -0.48410982178218
 1  9.96470772137214 -0.47661631923192 -2.23123545934593
 1  15.25687853305330 -1.27007682208221  0.49493809310931
 1  8.49575142594260  1.75696802400240 -0.37943522072207
 1 -2.63002808700870  4.46267271697170  0.35074090379038
 1 -2.12223098739874  4.20356758155816 -1.33469657875788
 1 -3.94789117421742  4.76901508330833 -0.82241204270427
 1 -2.98189780988099  0.77287949995000 -0.57721067566757
 1  6.50540329022902 -1.98740830293029  0.41076356105611
 1  8.20402561706171 -1.93009773457346 -0.24227500160016
 1  8.04088401000100 -1.47605993439344  1.30011377227723
 1  6.34990013711371  1.88298210361036 -0.25720774047405
 1 -0.40361171817182  2.91145518901890 -0.35638555005501
 1  4.95530151655166 -0.77987448414842  0.41577425852585
 1 -0.30126905010501 -0.10975278817882  0.24764737583758
 1  3.92405157305731  2.00143577977798 -0.50250247524752
 1  1.69477635283528  2.29376516841684 -0.67181988038804
 1  1.33541237603760 -1.39827643184318  0.89908890449045
 1  2.65832715751575 -1.64479078057806 -0.27193496349635
 1  3.02242893929393 -1.29127335633563  1.32733602020202

