%nproc=3
%Mem=2GB
# td=(NStates=1) CAM-B3LYP/6-31G(d,p) 

TD

0 1
<<<<<<< HEAD
 8 -11.70488715631563  0.35565621402140 -1.45752291589159
 8 -13.00163099889989 -2.46627493549355  1.40235592059206
 8  10.62209772967297 -0.96070595849585 -2.05602932923292
 8  14.49719308600860 -1.06739546104610 -0.34197868526853
 6 -10.98447661486149 -0.08776273097310 -0.28439786418642
 6 -11.64869115881588 -1.07752893279328 -1.11848068836884
 6 -11.76904894789479  0.41304798759876  1.01032068706871
 6 -12.95844104780478 -1.78737889578958 -0.87570920492049
 6 -13.36500495849585  0.00665321772177  0.89594428232823
 6 -13.53167960146015 -1.44999653745375  0.55453422072207
 6 -10.85611119981998 -1.89441485898590 -2.18118043634363
 6 -9.58711815561556  0.17994512831283 -0.34454141224122
 6 -11.13190916831683 -0.09488508450845  2.17052211931193
 6 -11.80523090339034  1.96880198329833  0.94316240794079
 6 -8.65737915961596 -0.75445348654865 -0.02362362336234
 6 -7.26930492009201 -0.62718456455646  0.03317101740174
 6 -6.44474848974897 -1.85831452025203  0.50725296159616
 6 -6.58447410911091  0.58463929382938 -0.26624517971797
 6 -5.27346728832883  0.78977101380138 -0.32789711991199
 6  11.96119536643664  0.03017304680468  1.39644917301730
 6  11.60506779687969 -0.45738189338934 -1.15600948064806
 6  12.83421064916492 -1.21828605830583  1.53287802120212
 6  13.36220090679068 -1.78185271867187  0.17260122452245
 6  12.36000093479348 -1.81200570957096 -1.01258522102210
 6  11.03825071297130  0.10114486238624  0.10860804110411
 6  11.12274367926793  0.20659730173017  2.64700704090409
 6  12.96005912261226  1.23190641144114  1.16808985998600
 6  12.31745805200520  0.42811168446845 -2.07969191699170
 6 -4.75878237393739  2.09575208120812 -0.44172902180218
 6  9.83675486298630  0.51877268006801  0.11366018931893
 6 -3.39521467986799  2.44052280598060 -0.57181744244424
 6  8.67365715171517  0.94350068386839 -0.02833717371737
 6 -2.95154683978398  3.90333179267927 -0.78036776887689
 6 -2.33056997209721  1.55250709940994 -0.39853238793879
 6  7.47745728822882  0.25433602160216  0.12351316721672
 6  7.73917865436544 -1.35569252135214  0.30552047494749
 6  6.20464181218122  0.72610954125413  0.10531659565957
 6 -0.96849098059806  1.80449957365737 -0.39887806290629
 6  5.02610421322132  0.11880099619962  0.07604897369737
 6  0.03449992899290  0.82363567346735 -0.28897800060006
 6  3.79744915261526  0.81673202360236  0.07747027802780
 6  1.38860080088009  1.15553728142814 -0.05199758065807
 6  2.46898479897990  0.23652295199520  0.12569592749275
 6  2.36649651135114 -1.27488166846685  0.33110170377038
 1 -13.20445224602460 -2.89018199599960 -1.25978120212021
 1 -13.68764398809881 -1.14649863406341 -1.52930938563856
 1 -13.87367516971697  0.11672874167417  1.86086876957696
 1 -13.89494888848885  0.48124325142514  0.08017568316832
 1 -14.43990129422942 -1.54079279267927  0.64842644694469
 1 -10.65502411931193 -3.01493827662766 -1.82121741714171
 1 -11.40194040294029 -2.07675246664667 -3.01294958115812
 1 -9.92942512601260 -1.29256846544654 -2.37415902840284
 1 -9.24812346714672  1.20368249924993 -0.53084689478948
 1 -9.99224055165516 -0.03440217611761  2.12086782958296
 1 -11.66391175207521  0.42615931753175  3.01753010311031
 1 -11.26866756045604 -1.26046292279228  2.17665845554555
 1 -11.98162070457046  2.45029115111511  0.04400761676168
 1 -12.25492173157316  2.21894747024703  1.93655736753675
 1 -10.80021030313031  2.55492608310831  1.34365865936594
 1 -12.04159723222322 -2.46102897649765  1.29499397829783
 1 -9.08133897579758 -1.86811516921692  0.15357445634563
 1 -5.47061650775077 -2.01592491759176 -0.32562060646065
 1 -6.05135755105511 -1.61996722932293  1.67022541874187
 1 -7.10481059165917 -2.76927920092009  0.56981313211321
 1 -7.10665197629763  1.52493082218222 -0.58037771427143
 1 -4.46560320502050 -0.17411879347935 -0.13614739043904
 1  13.76579225632563 -1.00073176057606  2.13781872247225
 1  12.32439761676168 -2.16482586258626  2.13275927562756
 1  13.60436279317932 -2.92334399939994  0.35925285118512
 1  12.88228566706671 -2.15022150065007 -1.92904599929993
 1  11.49156916511651 -2.57921704560456 -0.96368171027103
 1  11.48448805700570 -0.08870850415042  3.52813785248525
 1  10.76469344704470  1.30623618671867  2.65711323552355
 1  10.27498511971197 -0.54762307680768  2.61712795399540
 1  13.51110801270127  0.95796442064206  0.25852991779178
 1  12.33837645084509  2.09601903970397  1.11599630533053
 1  13.58968480558056  1.33952843194319  2.01359784138414
 1  12.74383520302030  0.05044843524352 -2.92896534843484
 1  11.81365843424342  1.31905399629963 -2.21515945084508
 1  13.32490332293229  0.84266031893189 -1.81310679607961
 1 -5.36281850575058  2.73620800760076 -0.38116952775278
 1  10.12213346394640 -0.10616927452745 -2.38101043684368
 1  14.87719056425643 -0.76702651705171  0.52097069636964
 1  8.42948479927993  1.84545687288729 -0.51816909410941
 1 -2.64704978917892  4.44118056775678  0.24795062476248
 1 -1.76912567686769  4.11917914271427 -1.39119222832283
 1 -3.69076546164616  4.52623080488049 -1.26445624712471
 1 -2.66375599569957  0.51062327432743 -0.31056401100110
 1  6.83855660556056 -1.93055261736174  0.21691417611761
 1  8.49219443394339 -1.72384710951095 -0.46378715281528
 1  8.13140306190619 -1.66348867726773  1.48207196809681
 1  6.34440958805881  1.92580638603860  0.07566554685469
 1 -0.60974233123312  2.82821686518652 -0.42123203470347
 1  4.88714470087009 -0.96640313701370  0.15125780688069
 1 -0.34746366956696 -0.25109692259226 -0.22135952485248
 1  3.84076324422442  1.95686132233223  0.14734250925092
 1  1.70377725292529  2.21405719761976 -0.30574327272727
 1  1.28208704350435 -1.45268187238724  0.29004800040004
 1  2.84388571337134 -1.68369467096710 -0.62123989398940
 1  2.66595329172917 -1.56005023402340  1.24611789838984
=======
>>>>>>> 6a1b998aacd80a23911c140f266e48a14f2d523d

