%nproc=3
%Mem=2GB
# td=(NStates=1) CAM-B3LYP/6-31G(d,p) 

TD

0 1
 8 -11.81074774237424  0.46445709410941 -1.41316848044804
 8 -12.98397923372337 -2.48476678467847  1.36896258125813
 8  10.78036355625563 -0.93057294519452 -2.17090081638164
 8  14.43484685138514 -0.96335505700570  0.00062557515752
 6 -11.05233340054005 -0.02354630933093 -0.31414083848385
 6 -11.77577386708671 -0.95420660056006 -1.32220106040604
 6 -11.68407045004500  0.37786446924692  0.99393904890489
 6 -13.18724392809281 -1.56221637953795 -0.90226186018602
 6 -13.11219967796780  0.05483803620362  1.00424511241124
 6 -13.55309174267427 -1.30926246404640  0.60694946224622
 6 -11.11938752745275 -1.82666808430843 -2.36311863016302
 6 -9.65218466226623  0.06657379117912 -0.40192715081508
 6 -10.97267324472447 -0.21494709070907  2.24444951205120
 6 -11.53722410271027  2.00855595869587  1.11213930563056
 6 -8.73017643934393 -0.84633267446745  0.04935367436744
 6 -7.27475546514651 -0.66928877497750  0.14880258055806
 6 -6.41094510941094 -1.83204189298930  0.30757299359936
 6 -6.63054871657166  0.62269309920992 -0.05434398959896
 6 -5.25647558915892  0.79749178587859 -0.15345967616762
 6  11.88845809270927  0.20708073757376  1.38501802990299
 6  11.81728901900190 -0.45159131433143 -1.29621350105011
 6  12.66454368246825 -1.23212744244424  1.51747648104810
 6  13.38608329502950 -1.76628116151615  0.32448641304130
 6  12.47831276597660 -1.75493000200020 -0.85436939943994
 6  11.02131901980198  0.15584033193319  0.03938111841184
 6  10.88292969786979  0.38044468646865  2.50999333953395
 6  12.92193531023102  1.31476469726973  1.28368141914191
 6  12.76152245844584  0.45436430973097 -1.96109005680568
 6 -4.67217371307131  2.04485699169917 -0.27279212811281
 6  9.92760394789479  0.62498330113011 -0.07230840754075
 6 -3.30112527092709  2.40469922362236 -0.50525078577858
 6  8.60548033403340  0.95919225302530 -0.17136147614762
 6 -2.98135982108211  3.86272773227323 -0.94023375547555
 6 -2.35813272837284  1.36667851655166 -0.29340187488749
 6  7.43208275077508  0.13272386038604 -0.11814099819982
 6  7.54520925742574 -1.43231018311831  0.18144806770677
 6  6.17464881288129  0.68774570487049 -0.10401433743374
 6 -1.01962609410941  1.62622174587459 -0.41619979507951
 6  4.96043764656466  0.05752486858686  0.01870323912391
 6  0.01728820782078  0.60573388328833 -0.16460556335634
 6  3.77196660436044  0.78123847424742  0.05027755875588
 6  1.35920786158616  0.95133686138614 -0.25712809370937
 6  2.39302720322032  0.11891119081908  0.05824918281828
 6  2.39181904360436 -1.39501368166817  0.54922351595160
 1 -13.23312511331133 -2.48017099489949 -1.02262748674867
 1 -14.08109333303330 -0.97017100130013 -1.35437189188919
 1 -13.46195399759976  0.21952902170217  2.04782746544654
 1 -13.55700509410941  0.71815694279428  0.30623828942894
 1 -14.56260356445645 -1.39557827122712  0.73541514581458
 1 -10.71702031893189 -2.65413219601960 -2.15640093549355
 1 -11.49754996389639 -1.81187597899790 -3.19305759195920
 1 -10.25532771627163 -1.16501571017102 -2.70790240274027
 1 -9.06291494629463  0.99796192719272 -0.87754156425643
 1 -10.03506483408341  0.17208847294730  2.13941968476848
 1 -11.39131449234923  0.25081178277828  3.30579892999300
 1 -10.88205889958996 -1.35363223972397  2.17498828852885
 1 -11.74199674217422  2.36907302930293 -0.01174795879588
 1 -12.21364760416042  2.42557813331333  1.77711142294229
 1 -10.51894217631763  2.07075766626663  1.45561985548555
 1 -12.01939501200120 -2.25386826042604  1.15534001290129
 1 -9.00624146604661 -1.86160451815182  0.51506060496050
 1 -6.05111455755576 -2.29912323742374 -0.68926697109711
 1 -5.55518793409341 -1.64903013561356  1.01305970217022
 1 -6.91350146074607 -2.67083935693569  0.47376352715272
 1 -7.26812812391239  1.40303863296330  0.05328565206521
 1 -4.59206585128513 -0.17303868546855 -0.59977375307531
 1  13.84167984508451 -0.99698138553855  2.18459339993999
 1  11.98293347034704 -2.00696007600760  1.97216321602160
 1  13.68447080398040 -2.78632029702970  0.58650557645765
 1  13.31393883238324 -2.15154163266327 -1.69173226792679
 1  11.71344135233523 -2.48036716061606 -0.57878322042204
 1  11.38444805300530  0.40567093379338  3.37437247594759
 1  10.46265324302430  1.37105266836684  2.55571309550955
 1  10.15167278847885 -0.57896621112111  2.59377561876188
 1  13.56473337523752  1.30283890809081  0.45736980178018
 1  12.30532314551455  2.20440987878788  1.27594229992999
 1  13.54373021012101  1.22529700880088  2.26760324192419
 1  12.94436525602560  0.00499388978898 -3.06305875777578
 1  12.24043111151115  1.72121421232123 -1.93249118401840
 1  13.85414624722472  0.38253430633063 -1.53705919131913
 1 -5.16124834873487  2.71365575237524 -0.27920933173317
 1  10.05493674427443 -0.29782844044404 -2.21550388618862
 1  15.00097294249425 -0.90601041544154  0.75813441274127
 1  8.35262711351135  2.02208453565357 -0.23409068626863
 1 -1.93993907810781  4.23123957365737 -0.22424659495950
 1 -2.55906467076708  4.10434765956596 -1.93983709280928
 1 -3.95293167826783  4.34957313911391 -0.71666146764676
 1 -2.66634625472547  0.36473868586859 -0.17074002860286
 1  6.55765851575157 -1.85937549964997  0.20304278897890
 1  8.24428964346435 -1.98941366616662 -0.54338511261126
 1  7.81499142074207 -1.46187851625163  1.17100086098610
 1  6.21041618871887  1.83130693609361 -0.16857887758776
 1 -0.59169052605261  2.54976902040204 -0.76917682918292
 1  5.00857684408441 -0.90712720942094  0.30946362746275
 1 -0.29389831303130 -0.40994280718072  0.18721133223322
 1  3.67537670557056  1.77757339353935 -0.38516074107411
 1  1.68826570177018  1.96918271017102 -0.55674837323732
 1  1.39142797759776 -1.48157476167617  0.60508950455046
 1  2.89752107690769 -1.97762406390639 -0.20189795979598
 1  2.84342103850385 -1.59200342934293  1.52078536513651

