%nproc=3
%Mem=2GB
# td=(NStates=1) CAM-B3LYP/6-31G(d,p) 

TD

0 1
 8 -11.84815148274827  0.34553520192019 -1.41528869246925
 8 -12.97698853465347 -2.56625493349335  1.23103878887889
 8  10.61631715161516 -1.01580146804680 -2.11911563786379
 8  14.50646401310131 -1.09878860036004 -0.09530401780178
 6 -11.08922708990899 -0.14039799449945 -0.22318174257426
 6 -11.74502079177918 -1.06800798069807 -1.23082192249225
 6 -11.91263330633063  0.25213189598960  1.02430208520852
 6 -13.11440664436444 -1.77735789368937 -1.14767640164016
 6 -13.29081753975398 -0.22180962856286  0.87569225712571
 6 -13.65184161766177 -1.67216875467547  0.38043681098110
 6 -10.81956754545455 -1.75140055755576 -2.21173349164916
 6 -9.63328277207721  0.19658679247925 -0.28802576067607
 6 -11.23050902830283 -0.15702129812981  2.38525359245925
 6 -11.97751813211321  1.87932303540354  1.07535562726273
 6 -8.73300672237224 -0.67512555375538  0.13551229022902
 6 -7.25632362196220 -0.46673851995200  0.28575627592759
 6 -6.41872588748875 -1.67910659945995  0.74363659996000
 6 -6.66094175587559  0.72107293719372 -0.24913346854685
 6 -5.21607154875488  0.89582161886189 -0.12062639283928
 6  12.06417566446645  0.06534656415642  1.40404993309331
 6  11.70173746384638 -0.65790194539454 -1.14821870157016
 6  12.61374860296030 -1.30239446914692  1.55209994339434
 6  13.41984667136714 -1.87713224662466  0.26709067346735
 6  12.32117705240524 -1.90616512551255 -0.88283224572457
 6  11.16986387428743  0.11179592749275  0.09328650895090
 6  11.11898330323032  0.27916455845585  2.56338867906791
 6  13.05301841854185  1.29649287008701  1.22278532953295
 6  12.49662596879688  0.27414628792879 -2.13151709950995
 6 -4.60266676237624  2.05613811981198 -0.50185503440344
 6  9.93467465496550  0.64066486928693 -0.02118329502950
 6 -3.22463762216222  2.43570232393239 -0.65598585928593
 6  8.60282006800680  1.03950028382838 -0.11118545854585
 6 -2.91004268936894  3.95717717721772 -0.80062979507951
 6 -2.19656657175718  1.54152600130013 -0.38633116781678
 6  7.44265380788079  0.18042863086309 -0.08325750985099
 6  7.68260299679968 -1.24597154925493  0.13933385628563
 6  6.22306365436544  0.76796372667267 -0.13246718271827
 6 -0.78820295179518  1.88784790849085 -0.30409858495850
 6  5.01355295809581  0.19909902600260  0.06292766156616
 6  0.10009648864887  0.87391070097010 -0.07994709750975
 6  3.73929333703370  0.84016436683668 -0.10805827482748
 6  1.41071301210121  1.20718244594459 -0.16106848774878
 6  2.43251115161516  0.27744704440444  0.01580493839384
 6  2.33344320602060 -1.17720190049005  0.29426802040204
 1 -12.80119191999200 -2.80990396819682 -1.21995721972197
 1 -13.71458668236824 -1.37649163336334 -1.83021947664767
 1 -13.97020482268227 -0.12399533073307  1.79950263296330
 1 -13.81894128772877  0.29681480858086  0.22322998859886
 1 -14.64518182228223 -1.70511922532253  0.41984358865887
 1 -10.39136775367537 -2.82806958975898 -1.82348764416442
 1 -11.41890209910991 -1.81515630703070 -3.16862514871487
 1 -9.84064624812481 -1.32677188578858 -2.58102971547155
 1 -9.50608926372637  1.22921505250525 -0.79697350745075
 1 -10.30951227882788  0.32381364546455  2.46238198099810
 1 -11.96728208910891  0.12794949654965  3.23112146224623
 1 -11.08806950065006 -1.34253112961296  2.50208099779978
 1 -12.29360190269027  2.34322044404440  0.20550376637664
 1 -12.85106134553455  2.23023859935994  1.78286199799980
 1 -11.03392367446745  2.26356694719472  1.48125241874187
 1 -11.97248032053205 -2.49350222382238  1.10611509040904
 1 -9.15671651355136 -1.69247760546055  0.73018211711171
 1 -5.75403484958496 -2.19179250435043 -0.22716076047605
 1 -5.80248266356636 -1.63532876547655  1.51101949814981
 1 -7.03104321492149 -2.38489076207621  1.11991814261426
 1 -7.22143345444544  1.37186551565157 -0.60602027852785
 1 -4.70991763646365 -0.13910529212921  0.31633785808581
 1  13.49757543464346 -1.25287697509751  2.34419936053605
 1  11.86904208120812 -2.02789216921692  2.02201820152015
 1  13.66619897679768 -2.93142480748075  0.43290021592159
 1  12.86208364686469 -2.47368384688469 -1.71301439613961
 1  11.55786579477948 -2.73776290019002 -0.46415175727573
 1  11.73304291249125 -0.09266890019002  3.47330236893689
 1  10.69177615531553  1.17436299939994  2.92157968216822
 1  10.37289491069107 -0.57481579607961  2.50089633083308
 1  13.63030993289329  1.03247187138714  0.23527759255926
 1  12.64717733093309  2.23726316411641  1.31611631733173
 1  13.56130196729673  1.31955643474347  2.11344782638264
 1  12.73822464196420 -0.22171878147815 -2.88960141204120
 1  11.88420548894890  1.16167825872587 -2.04907284218422
 1  13.38004883748375  0.50854690759076 -1.68975446084608
 1 -5.26880910481048  2.95987037383738 -0.69709111991199
 1  10.12254350495050 -0.13260191779178 -2.10763309910991
 1  15.10143298849885 -1.08596841124112  0.67967656695670
 1  8.42114396519652  2.11358368556856 -0.09502677987799
 1 -2.49030411461146  4.25749219891989  0.08064389408941
 1 -2.37571633593359  4.28263548834884 -1.72064517361736
 1 -3.57905429052905  4.63893207500750 -0.96486628812881
 1 -2.62745236533653  0.56998921092109 -0.07906086068607
 1  6.69734248414842 -1.66629619171917 -0.37208472377238
 1  8.49929514401440 -1.75855057985799 -0.60305107920792
 1  8.19944986658666 -1.52574490289029  1.20247400830083
 1  6.37594274137414  1.90639444484448 -0.16025804550455
 1 -0.27604896189619  2.95103914741474 -0.40104001550155
 1  5.10054604100410 -0.95042153885389  0.21276395749575
 1 -0.12338126132613 -0.16856866976698 -0.01798918781878
 1  3.90065923382338  1.89367500370037 -0.21011323632363
 1  1.84564143934393  2.35815160706071 -0.41597429582958
 1  1.18883771857186 -1.52258886308631  0.58864786038604
 1  2.70915224002400 -1.89105540704070 -0.43708147814781
 1  2.90536723312331 -1.28920314931493  1.47629091569157

