%nproc=3
%Mem=2GB
# td=(NStates=1) CAM-B3LYP/6-31G(d,p) 

TD

0 1
<<<<<<< HEAD
 8 -11.78555522312231  0.40763141154115 -1.45856301990199
 8 -13.16889772557256 -2.62102041004100  1.25412109710971
 8  10.53766928682868 -1.19371925982598 -1.97785151145115
 8  14.37101046774677 -0.94258297979798 -0.15151963936394
 6 -11.07410557775778 -0.06312026672667 -0.26365578997900
 6 -11.69393568326833 -1.07557873777378 -1.25729456975698
 6 -11.76024806780678  0.28022470527053  1.03765342034203
 6 -13.07020222392239 -1.68108826672667 -0.99705133913391
 6 -13.28531698969897 -0.17347479507951  0.96643133103310
 6 -13.56554298779878 -1.50988252605261  0.43035180248025
 6 -10.81217680638064 -1.81676709420942 -2.28394071237124
 6 -9.50352979677968  0.05843297709771 -0.32456941504150
 6 -11.12991896929693 -0.33595919191919  2.30512557965797
 6 -11.79379976027603  1.77692279537954  1.18119621132113
 6 -8.65182860456046 -0.77031507270727  0.12121086008601
 6 -7.25348333793379 -0.55654750085009  0.07660536083608
 6 -6.31690570547055 -1.71113980278028  0.29514175047505
 6 -6.61716737843784  0.72133296319632 -0.15145370057006
 6 -5.33324326592659  0.97124916161616 -0.11203553375338
 6  11.95423467036704  0.14599462896290  1.31275080318032
 6  11.65428271837184 -0.77171332653265 -1.19188306800680
 6  12.66575380348035 -1.20823505320532  1.58235296869687
 6  13.38968365506551 -1.83203773717372  0.34923888828883
 6  12.42614754945495 -1.96431094009401 -0.81689565206521
 6  11.14645153305331 -0.00428568066807  0.02913009330933
 6  10.97985939083908  0.36403304530453  2.47055939613961
 6  12.98072118881888  1.34474769556956  1.17074012501250
 6  12.50781708790879  0.11230010331033 -2.06244019181918
 6 -4.71031752745275  2.19983248924892 -0.31453630253025
 6  9.94300548804880  0.54320512331233 -0.05514669136914
 6 -3.29921507990799  2.52207096079608 -0.47253751445145
 6  8.71163094909491  0.99014534833483 -0.34061840184018
 6 -2.92541422652265  3.99925138463846 -0.79344907700770
 6 -2.30896781188119  1.60424227292729 -0.23398593329333
 6  7.50911045354535  0.19937052505251 -0.11583076717672
 6  7.73528826532653 -1.26018297039704  0.37992791569157
 6  6.22699404740474  0.74827175747575 -0.13904784078408
 6 -0.92056618811881  1.86865598929893 -0.30256843194319
 6  5.00851245404540  0.19999911601160  0.14810617941794
 6  0.02053853285329  0.92189549944994 -0.08460756355636
 6  3.79590899859986  0.90363071347135 -0.03189065806581
 6  1.42166410721072  1.20408213591359 -0.18397077797780
 6  2.48335623612361  0.32616191589159  0.10981433933393
 6  2.33574343604360 -1.10957513781378  0.27308590219022
 1 -13.03228502930293 -2.71462444024402 -1.29694491849185
 1 -13.78123334703470 -1.27010099429943 -1.88376483118312
 1 -13.71666946914692  0.03363043184318  1.86940962366237
 1 -13.66429582318232  0.50552567966797  0.08829649524952
 1 -14.64010131423142 -1.73115182858286  0.20302190649065
 1 -10.23956257315731 -2.63764054685469 -1.71062635803580
 1 -11.35840604950495 -2.17212200360036 -3.09919820602060
 1 -9.97043922742274 -1.11674088268827 -2.58568018051805
 1 -9.30925958075808  1.07476960796080 -0.66054986508651
 1 -9.95601692929293 -0.08396713261326  2.46213195599560
 1 -11.53631899279928  0.03529023062306  3.28258660876088
 1 -11.06427712141214 -1.48791566806681  2.30182097179718
 1 -12.02419496199620  2.16200232223222  0.14595781178118
 1 -12.45946218561856  2.32956853235323  1.82149586138614
 1 -10.83233351545154  2.21775236573657  1.60543483698370
 1 -12.30957402990299 -3.02451532513251  0.78194267316732
 1 -8.96164700660066 -1.60794915261526  0.60759985888589
 1 -5.43743318941894 -2.06299962506251 -0.23357140154015
 1 -5.65751816711671 -1.88678391099110  1.28215661186119
 1 -6.97196730733073 -2.69009128212821  0.47527367816782
 1 -7.24849616071607  1.59956828592859 -0.46070574707471
 1 -4.51443808850885  0.19558817721772  0.13192941724172
 1  13.45927160426043 -1.28359004640464  2.31609655025503
 1  11.82778795579558 -1.86433581358136  1.79232523222322
 1  13.80892324922492 -2.77502916791679  0.63507043294329
 1  12.88318575707571 -2.42464894339434 -1.78474156885689
 1  11.62931293949395 -2.87577670157016 -0.48133347544754
 1  11.68493810201020  0.48639900660066  3.31156619531953
 1  10.41273825152515  1.20967653075308  2.37640516471647
 1  10.25772339353935 -0.39786810131013  2.31715795699570
 1  13.79460636253625  1.24732335653565  0.33252731753175
 1  12.48750136333633  2.41288072587259  1.09423412911291
 1  13.57788362546255  1.54304878397840  2.07687416901690
 1  12.75721654115411 -0.60878748834883 -3.07771022292229
 1  12.00577764616462  1.11456354725473 -2.33266120102010
 1  13.35524635723572  0.29973602650265 -1.57212269766977
 1 -5.21475369926993  3.05313970077008 -0.43500491129113
 1  10.22451370197020 -0.28843750135013 -2.51729406520652
 1  15.24645749094909 -1.07036685108511  0.39532813211321
 1  8.56568841964197  2.13123545074507 -0.67774505170517
 1 -2.30336542074207  4.31846829652965  0.11876770647065
 1 -2.16401516581658  3.98391561636164 -1.67297040614061
 1 -3.92346873197320  4.53635181698170 -0.97502730423042
 1 -2.69229884998500  0.58253046504650 -0.05282823742374
 1  6.77059980988099 -1.71176073817382  0.45500798549855
 1  8.54003921842184 -2.00767549234924 -0.17963873797380
 1  7.89550947254726 -1.38964129252925  1.54387814871487
 1  6.17191233833383  1.86235004040404 -0.37875989568957
 1 -0.58916027302730  2.86453049654965 -0.44002391389139
 1  5.02203819021902 -0.90220671737174  0.39873255435544
 1 -0.51181010421042 -0.15599741264126  0.31812442354235
 1  3.90077924582458  1.95007064326433 -0.29976220122012
 1  1.72570944614461  2.20084587648765 -0.25755845424543
 1  1.20084891969197 -1.45165176937694  0.62783177877788
 1  2.42684400920092 -1.61480778227823 -0.84439220922092
 1  2.79642633903390 -1.62866709570957  0.98770205680568
=======
>>>>>>> 6a1b998aacd80a23911c140f266e48a14f2d523d

