%nproc=3
%Mem=2GB
# td=(NStates=1) CAM-B3LYP/6-31G(d,p) 

TD

0 1
 8 -11.72979964756476  0.30555120352035 -1.30376754035404
 8 -12.94151498729873 -2.53947225522552  1.37709339433943
 8  10.65689120902090 -1.15134502240224 -1.98002172847285
 8  14.54394776147615 -0.90407912941294  0.01574708730873
 6 -11.04020218741874 -0.10654460916092 -0.12597202160216
 6 -11.69861615131513 -1.12321350125013 -1.15277411771177
 6 -11.75788783178318  0.32366904970497  1.12756241124112
 6 -13.00095529922992 -1.81940209810981 -0.86098773277328
 6 -13.13887234523452 -0.12879032663266  1.03206789468947
 6 -13.46762319581958 -1.54170570837084  0.47129589688969
 6 -10.78957454615462 -1.77803322082208 -2.16881920022002
 6 -9.53751319511951  0.11026816061606 -0.26677363546355
 6 -11.15006098349835 -0.23535913191319  2.37920298739874
 6 -11.66584696499650  1.81087619071907  1.10120821252125
 6 -8.62991641334133 -0.77982602380238  0.09757849684968
 6 -7.19737772737274 -0.62918476457646  0.15387308760876
 6 -6.27606162106211 -1.77480616941694  0.37979021532153
 6 -6.52993865556556  0.60946177607761 -0.28223677887789
 6 -5.21603154475448  0.95121715841584 -0.15823015321532
 6  11.83278252515252 -0.03032300280028  1.44411393949395
 6  11.69388667876788 -0.66464261946195 -1.16334021372137
 6  12.74014124222422 -1.28229245894589  1.56495122852285
 6  13.47658234493449 -1.88421295469547  0.33983794819482
 6  12.53570850555055 -1.88292280128013 -0.86614057655766
 6  11.09027591549155 -0.05215046714671  0.14724190449045
 6  10.82376378127813  0.00566720872087  2.67874021422142
 6  12.70443356005600  1.23101632243224  1.50269332033203
 6  12.54410071627163  0.30892976627663 -1.78393234103410
 6 -4.79189568526853  2.17660016601660 -0.54752960186019
 6  9.92135332283228  0.47192799559956  0.11390021332133
 6 -3.46428158655866  2.56992574627463 -0.59246950765076
 6  8.71471125712571  0.93302963676368 -0.15307964796480
 6 -3.09617130223022  4.09879133863386 -0.65683541564156
 6 -2.35543245834583  1.68123997269727 -0.44215675037504
 6  7.47094663716372  0.18886947494749 -0.12643182728273
 6  7.56495123162316 -1.31708866096610  0.17560748364836
 6  6.23946529452945  0.83532046234623 -0.26842077807781
 6 -1.08526265776578  1.94856398009801 -0.49487766286629
 6  4.89900150295029  0.15078419451945 -0.20956958815882
 6  0.00799727872787  0.99535284518452 -0.34585368816882
 6  3.81679108680868  0.84699504990499 -0.42713018201820
 6  1.39777171797180  1.27081880958096 -0.43128550945095
 6  2.45370327082708  0.36697599729973 -0.28477511961196
 6  2.16823668536854 -1.03724790509051  0.03277187078708
 1 -12.88847064786479 -2.84964794259426 -1.05685090909091
 1 -13.89001422512251 -1.29803378757876 -1.44487094179418
 1 -13.80696849904990  0.09721679047905  1.95168785148515
 1 -13.74491388498850  0.27102222932293  0.20929859545955
 1 -14.47559486358636 -1.58933764716472  0.77768937323732
 1 -10.27511612851285 -2.67232401520152 -1.58757405280528
 1 -11.24910511941194 -1.95403019441944 -3.00510879707971
 1 -10.03291547504750 -1.07482669126913 -2.41556316881688
 1 -9.29690834563456  1.04323645464546 -0.81664547464746
 1 -10.00637196479648  0.05945720982098  2.68953469626963
 1 -11.91514687558756 -0.05484878327833  3.13582193229323
 1 -11.14755544924492 -1.22396927342734  2.48139892959296
 1 -11.87584012651265  2.26724284628463  0.25408862486249
 1 -12.51201744114412  2.14508008350835  1.68654236603660
 1 -10.70644092619262  2.21251184168417  1.50914520802080
 1 -12.05898897139714 -2.67291016461646  1.32339681858186
 1 -8.79922076397640 -1.84972333003300  0.25172427132713
 1 -5.80417986408641 -1.99287261236124 -0.59745779017902
 1 -5.35922833813381 -1.40664589718972  1.13555195139514
 1 -6.71349145974597 -2.59930220322032  0.86366251705171
 1 -7.26272758385839  1.45454378347835 -0.56389606610661
 1 -4.42842948764876  0.18116673507351  0.28741496579658
 1  13.34591026812681 -1.18067975537554  2.35960090069007
 1  12.17950312731273 -2.01796117611761  1.74342034173417
 1  13.82812516941694 -2.81313297829783  0.44104103000300
 1  13.18640607910791 -2.23151963046305 -1.66005910061006
 1  11.82117212541254 -2.64068319221922 -0.84299964206421
 1  11.34753436163616  0.01565193189319  3.70113515221522
 1  10.26436341404140  0.84290985408541  2.55229275347535
 1  9.98951657285729 -0.86802511701170  2.46131237243724
 1  13.40819772167217  1.11870049424942  0.58974303910391
 1  12.18361097429743  2.25859529732973  1.47288199389939
 1  13.15988182528253  1.09093357245725  2.50000648224822
 1  13.03248406790679  0.09357274767477 -2.83304575647565
 1  11.95009207760776  1.16572866376638 -2.07697563246325
 1  13.48455928852885  0.71941799469947 -1.31823730913091
 1 -5.60568279217922  2.97924231103110 -0.89032044284428
 1  10.09383063366337 -0.34226288388839 -2.29442177797780
 1  15.04128697389739 -0.54907472187219  0.97769636893689
 1  8.51745359615962  2.00541286848685 -0.25111238843884
 1 -2.45439052325233  4.28953540324032  0.13276910661066
 1 -2.55683444774477  4.18711593639364 -1.61695480458046
 1 -4.04972135723572  4.79502768456846 -0.72634243574357
 1 -2.44560418051805  0.46512872487249 -0.38478143274327
 1  6.66728947884789 -1.91873143524352  0.19772225692569
 1  8.19617483198320 -1.71604632943294 -0.39315008910891
 1  7.92012193379338 -1.30123245164516  1.14697845874587
 1  6.26129127622762  1.79881368676868 -0.36701872157216
 1 -0.75064642164216  2.97144118761876 -0.58777868936894
 1  4.84896088248825 -0.87024352105211  0.28558123922392
 1 -0.32832175537554  0.00016820392039 -0.18663605250525
 1  3.88704787268727  1.89644528072807 -0.42930515551555
 1  1.77541441664166  2.39249504140414 -0.63678637703770
 1  1.18399723452345 -1.22653925812581  0.36784578017802
 1  2.49683100790079 -1.59394569606961 -0.84682245224522
 1  2.66129282568257 -1.15835006400640  0.93853714031403

