%nproc=3
%Mem=2GB
# td=(NStates=1) CAM-B3LYP/6-31G(d,p) 

TD

0 1
 8 -11.73614028162816  0.18820946934693 -1.53754091769177
 8 -13.16422725852585 -2.49464777277728  1.28260394539454
 8  10.62816833673367 -1.21557144504450 -2.02077580388039
 8  14.51193456015602 -0.94304302580258 -0.22034652205221
 6 -11.06848501570157 -0.18850280498050 -0.32233165756576
 6 -11.69235552525253 -1.23153433333333 -1.17752659295930
 6 -11.81015305830583  0.38219490229023  0.91383103810381
 6 -13.02657786148615 -1.81577173507351 -1.03333496749675
 6 -13.32037049504951 -0.03435088268827  0.84571925982598
 6 -13.57683411691169 -1.50519205700570  0.39415818311831
 6 -10.82115770447045 -2.03126854435444 -2.10675299359936
 6 -9.54292373617362  0.13673080688069 -0.34297125522552
 6 -11.13606958435843 -0.13483907990799  2.25497056415642
 6 -11.71057143744374  1.84511961506151  1.00493858555856
 6 -8.59845326702670 -0.72378041924192  0.09094783378338
 6 -7.19995798539854 -0.47554940104010  0.22273997429743
 6 -6.28644265916592 -1.62952164096410  0.47827006330633
 6 -6.63355901760176  0.73368419831983 -0.12095065026503
 6 -5.27110705230523  0.92565460216022 -0.14219855005501
 6  11.94728397529753  0.10462049154915  1.34682421052105
 6  11.69941723182318 -0.65855201040104 -1.21541542124212
 6  12.73300052815281 -1.16717094679468  1.50391512491249
 6  13.44905959265927 -1.81347588098810  0.25489945434543
 6  12.48795373007301 -1.98540304930493 -0.85476943944394
 6  11.09185607350735 -0.00093534563456  0.04362154245425
 6  10.91407281218122  0.21779842184218  2.56157849804981
 6  12.90170328702870  1.27700092089209  1.40720377137714
 6  12.58278458465847  0.36518539183918 -1.96430037783778
 6 -4.69605610131013  2.14710721672167 -0.38625347424743
 6  9.90208139563956  0.58286908970897 -0.06596777347735
 6 -3.32985814421442  2.60181893559356 -0.34612487318732
 6  8.66465625162516  0.91702803660366 -0.27102144214421
 6 -2.95457714281428  4.07011847134713 -0.61525125722572
 6 -2.30470738583858  1.71785363406341 -0.13260579527953
 6  7.53302284478448  0.05502609060906 -0.07827701180118
 6  7.54159889638964 -1.35380233233323  0.27479740264026
 6  6.26525787378738  0.67583451375138 -0.32031596759676
 6 -0.99330346184618  1.89109823352335 -0.20380855595560
 6  4.93689529232923  0.18246736283628 -0.06365499669967
 6  0.01525800480048  0.95260857075708 -0.03608271107111
 6  3.76530593829383  0.77853820422042 -0.25780324932493
 6  1.34008594939494  1.18535026272627 -0.09169155005501
 6  2.41760966146615  0.32024132383238 -0.05587222932293
 6  2.33507336903690 -1.12720690099010  0.25962455605561
 1 -12.94284608540854 -2.93052603040304 -1.10115533953395
 1 -13.56845206890689 -1.60146413061306 -1.82751920662066
 1 -13.81435923812381  0.01260832963296  1.89775245794579
 1 -13.80847024062406  0.55795092219222  0.09469713531353
 1 -14.50563786788679 -1.63544225762576  0.31642324662466
 1 -10.66031464836484 -2.86720350315032 -1.36298159355936
 1 -11.28717892679268 -2.28186297769777 -3.02867115331533
 1 -9.88503068656866 -1.44398360696070 -2.44141575407541
 1 -9.20029868466847  1.20472260326033 -0.56552036213621
 1 -10.29233056065607  0.45769703380338  2.60205594839484
 1 -12.05200056095610 -0.16822012041204  2.96786513661366
 1 -10.85479617331733 -1.26802367886789  1.93799458915892
 1 -12.17905044754475  2.49292541454145  0.12904612061206
 1 -12.29005524492449  2.17935351085109  1.71769548134814
 1 -10.55595587768777  2.13535412591259  1.32683697719772
 1 -12.19904297679768 -2.62159503310331  1.20723520242024
 1 -9.06350719261926 -1.71759011671167  0.48883798269827
 1 -5.55810525662566 -2.02545587068707 -0.23341138553855
 1 -5.77659007430743 -1.44457969056906  1.45537393359336
 1 -6.91632174277428 -2.52718499149915  0.85346149694969
 1 -7.24285559665967  1.51203953305331 -0.15616529302930
 1 -4.76076272097210  0.04344296269627  0.14156038033803
 1  13.48283396049605 -1.15259694709471  2.32290723132313
 1  12.00046522352235 -2.10091947194719  1.83897989768977
 1  13.78180053695369 -2.89917158215822  0.52094902080208
 1  13.12097953645364 -2.08295477397740 -1.88267136183618
 1  11.86885689388939 -3.01759088298830 -0.78743408550855
 1  11.44126373457346  0.01832219891989  3.37507254595460
 1  10.26780375807581  1.16935249834983  2.68538606280628
 1  10.17558517971797 -0.57707602210221  2.54636087728773
 1  13.56457335923592  1.27943656785679  0.56367043184318
 1  12.24719733293329  2.29950938873887  1.32939764546455
 1  13.37908374547455  1.27577205630563  2.38432491409141
 1  12.60435125462546 -0.01600821042104 -3.01695414731473
 1  12.07812488088809  1.33866595749575 -2.04049198409841
 1  13.57408824142414  0.52094814771477 -1.57089257465747
 1 -5.45700792469247  3.03164755155516 -0.61705311611161
 1  9.89792104270427 -0.63849250685069 -2.08057039283928
 1  15.34679752495249 -0.64195400980098  0.38929752905290
 1  8.26257810861086  1.99878220542054 -0.71491876907691
 1 -2.61934701890189  4.21705815551555  0.44965079477948
 1 -1.83539230353035  4.40694791959196 -1.31242435153515
 1 -3.69093547864786  4.66528471027103 -1.12488228972897
 1 -2.55792541264126  0.72023423542354 -0.06740969556956
 1  6.66539928982898 -1.84270383248325  0.09799228392839
 1  8.53658887338734 -1.74060878567857 -0.40822159625963
 1  8.03048296989699 -1.40609293769377  1.22067582848285
 1  6.26151129822982  1.78995280068007 -0.50485250495050
 1 -0.55905726272627  2.93533757725773 -0.18368828032803
 1  4.74052003840384 -0.75807230393039  0.24181686278628
 1 -0.15855477867787 -0.02296410931093  0.31453406450645
 1  3.74796396429643  1.92955859205921 -0.61604382938294
 1  1.74324119931993  2.17335312721272 -0.08630132853285
 1  1.31015985078508 -1.57793439763976  0.33335233083308
 1  2.93608493329333 -1.77495379687969 -0.45117288728873
 1  2.85040173657366 -1.34553878287829  1.26779006560656

