%nproc=3
%Mem=2GB
# td=(NStates=1) CAM-B3LYP/6-31G(d,p) 

TD

0 1
 8 -11.76208287588759  0.42791343974397 -1.51225838943894
 8 -12.89650048584858 -2.50868917691769  1.39211489648965
 8  10.60537605750575 -1.00903079097910 -2.12467619391939
 8  14.54821818851885 -1.11673039453945 -0.00029451685169
 6 -11.06353452065206 -0.13979793449345 -0.34524394879488
 6 -11.79534582428243 -0.95674685458546 -1.25629446974697
 6 -11.63678572157216  0.28248493129313  1.11977163216322
 6 -13.17414261796180 -1.65431558945895 -0.95896753075308
 6 -13.14033249124913 -0.00237768536854  1.06373106100610
 6 -13.55521195469547 -1.52723426122612  0.54426319361936
 6 -11.06355194389439 -1.79676509400940 -2.35808812711271
 6 -9.59100854465446  0.09273640744074 -0.35268222632263
 6 -10.91665764316432 -0.22604820082008  2.27946301340134
 6 -11.60618099839984  1.81634673777378  1.13837192889289
 6 -8.63836725842584 -0.85815385658566 -0.01185244624462
 6 -7.22813080268027 -0.70777262336234  0.11060876117612
 6 -6.37887190209021 -1.87744643344334  0.32963519981998
 6 -6.65061072277228  0.55227605750575 -0.22261081628163
 6 -5.33260320192019  0.84180621732173 -0.18365269546955
 6  11.86700594749475  0.14938496799680  1.31156068416842
 6  11.72319961006101 -0.66835299049905 -1.19289316901690
 6  12.60390761886189 -1.29525375507551  1.49015374877488
 6  13.39320400710071 -1.92897743114311  0.33800776517652
 6  12.39492442714271 -2.00699520852085 -0.89530349284929
 6  11.09421630953095  0.05404015191519  0.00086726702670
 6  10.89682108700870  0.39892653465347  2.44060640084008
 6  12.95779889658966  1.17592081288129  1.36678972997300
 6  12.57866417261726  0.28006687998800 -1.87908185598560
 6 -4.75327182288229  2.05959846584658 -0.49677452635264
 6  9.88516970447045  0.51714251705171 -0.09927110381038
 6 -3.41942710111011  2.44027278097810 -0.44946520722072
 6  8.65248503450345  0.97523385718572 -0.18640298029803
 6 -3.06105779087909  3.80800225972597 -0.87136686878688
 6 -2.33366028112811  1.58927077577758 -0.10231276597660
 6  7.46174571707171  0.22651323932393 -0.01377056115612
 6  7.56664140064006 -1.21670862296230  0.30281020392039
 6  6.28972032003200  0.77317424772477 -0.18584252025203
 6 -0.98136226772677  1.86755587928793 -0.17356553165317
 6  4.94037564036404  0.28202731883188 -0.01661029222922
 6  0.02761924092409  0.90310362026203 -0.09440854365437
 6  3.83793320102010  0.93376372677268 -0.22742021102110
 6  1.38065000580058  1.25750747844784 -0.09956233713371
 6  2.57212511301130  0.42387168686869 -0.00843748584858
 6  2.34871473317332 -1.03408758905891  0.43338193179318
 1 -13.28330013081308 -2.71222420022002 -1.07074229822982
 1 -13.87244246794679 -1.33551753595360 -1.64365081978198
 1 -13.40500830303030  0.19273634243424  2.04221690439044
 1 -13.70293968756876  0.63804893199320  0.35135280088009
 1 -14.53391069516952 -1.72581129452945  0.59270087438744
 1 -10.76748536543654 -2.83559034183418 -2.10515581098110
 1 -11.76212642154215 -1.91571636303630 -3.26166445264526
 1 -10.19153133663366 -1.33907311591159 -2.51311292379238
 1 -9.31482013681368  0.73820595159516 -1.01618542864286
 1 -9.79381070867087  0.02124338843884  2.32552829562956
 1 -11.48851421232123 -0.22349564796480  3.19541789188919
 1 -11.02758345204520 -1.42866974347435  1.96281707140714
 1 -12.08793133563356  2.34243036503650  0.31549476547655
 1 -12.12445868526853  2.44479005450545  2.07966167796780
 1 -10.32248253035304  2.10489107960796  1.21717601110111
 1 -12.03618669116912 -2.53537641124112  1.06337081598160
 1 -9.01897273917392 -1.66304466216622  0.55142424132413
 1 -5.93468291439144 -2.42249557465747 -0.56924496889689
 1 -5.50551296659666 -1.63588882148215  1.05157355355536
 1 -6.92887299789979 -2.53564583758376  0.84124027482748
 1 -7.34137544864486  1.39370769986999 -0.36971664816482
 1 -4.64981162586259  0.02499111751175 -0.16015979167917
 1  13.19246492359236 -1.16790847824783  2.29708464906491
 1  11.92544772177218 -1.92148152815282  1.93332933263326
 1  13.60464282118212 -3.01146281128113  0.52929985588559
 1  12.96878431693169 -2.14946142464246 -1.69152224692469
 1  11.63510351855186 -2.72412153605361 -0.57174251635164
 1  11.32775238343834  0.39369973667367  3.42598763746375
 1  10.54051102880288  1.34742030513051  2.22694021822182
 1  10.08362598379838 -0.17180549504951  2.50464670587059
 1  13.81997889978998  0.97174579877988  0.66012007680768
 1  12.30641325452545  2.03495293309331  1.04647935363536
 1  13.33168900600060  1.39240371947195  2.27071355295530
 1  12.92618343784378 -0.01889849944994 -3.00182263416342
 1  12.12123919231923  1.25205729662966 -2.14838277317732
 1  13.52924375697570  0.51376742964296 -1.32877836323632
 1 -5.45895811971197  3.07479186598660 -1.06838824962496
 1  10.00385163576358 -0.20060871847185 -2.25190752655266
 1  15.05241808700870 -0.89716953135314  0.92485108440844
 1  8.57444929572957  2.09351167836784 -0.58653593079308
 1 -2.41731681588159  4.37619406910691 -0.07719188948895
 1 -2.53842260656066  3.89130635543554 -1.79040214931493
 1 -3.97039342444244  4.39727790959096 -0.94800460196020
 1 -2.55155477557756  0.45373758575858  0.22033907930793
 1  6.57899064896490 -1.65879544164416  0.12865535023502
 1  8.53292850735073 -1.59749447424742 -0.19214998909891
 1  7.82268218981898 -1.47275960436044  1.35287904880488
 1  6.19503465056506  1.84459826522652 -0.34725674537454
 1 -0.64715607260726  2.92896694019402 -0.32917282878288
 1  4.77033301970197 -0.74151064776478  0.22512519361936
 1 -0.36813573677368 -0.01988380128013  0.50684329542954
 1  4.07487665556556  1.94720035623562 -0.73157538253825
 1  1.52365924112411  2.28558435033503 -0.37123982238224
 1  1.26001483628363 -1.14906151035104  0.94183317891789
 1  2.53753507830783 -1.45973227472747 -0.69381715171517
 1  3.14376107250725 -1.49618384738474  1.11136442304230

