%nproc=3
%Mem=2GB
# td=(NStates=1) CAM-B3LYP/6-31G(d,p) 

TD

0 1
<<<<<<< HEAD
 8 -11.81013768136814  0.33717436583658 -1.49089625322532
 8 -13.21619245504550 -2.38769707770777  1.41944762976298
 8  10.56841236113611 -1.02579246714671 -2.14720844714471
 8  14.55058842554255 -0.92353107460746 -0.24900938833883
 6 -11.07590575777578 -0.10915487018702 -0.37391681608161
 6 -11.66065235493549 -1.13121430133013 -1.29701854215422
 6 -11.82042408540854  0.34034071687169  0.95306496149615
 6 -13.02074727842784 -1.79153931183118 -0.91174280828083
 6 -13.30353881188119 -0.00898834643464  0.86267095499550
 6 -13.68990542404240 -1.42332387018702  0.43636240354035
 6 -10.78881447014702 -1.91176659415942 -2.23774609290929
 6 -9.64127357115712  0.24317145094509 -0.41284824292429
 6 -11.07580355775577 -0.19888548454846  2.19542460956096
 6 -11.67426780708071  1.85754085718572  0.95285337703770
 6 -8.72440586228623 -0.67062510371037 -0.10049131013101
 6 -7.31317930753075 -0.53232507860786  0.16214391469147
 6 -6.42042605750575 -1.66764545334533  0.47796003230323
 6 -6.68058372007201  0.63361419131913 -0.12697125232523
 6 -5.27341728332833  0.81510354705471 -0.22448677887789
 6  12.09173842074208  0.07475750525053  1.30240976907691
 6  11.61866915701570 -0.53662981818182 -1.32865674537454
 6  12.83965119321932 -1.23173740344034  1.38663339673967
 6  13.38518320502050 -1.75754028742874  0.14105807020702
 6  12.40176511121112 -1.87491200020002 -1.00587454995500
 6  11.13522040994099 -0.01226647874788  0.02102928322832
 6  11.23256466136614  0.39089573157316  2.54149648984898
 6  13.12222533923392  1.22700592139214  1.13305635663566
 6  12.48606491269127  0.46888576187619 -2.10509445724572
 6 -4.69722621832183  2.06260876687669 -0.51677652655266
 6  9.91487267476748  0.47061786458646  0.00026885018502
 6 -3.32707786618662  2.37918667236724 -0.51793205390539
 6  8.65868565456546  0.93699003280328  0.00191585158516
 6 -3.11343302840284  3.90711217071707 -0.80939067116712
 6 -2.32325924102410  1.47556940564056 -0.35461799649965
 6  7.49668921142114  0.05506609460946  0.13418423432343
 6  7.56082081858186 -1.37882483458346  0.34537446034603
 6  6.21241258925893  0.68009493979398  0.04813087708771
 6 -0.94768890039004  1.79244836853685 -0.19078725382538
 6  4.94492609540954  0.13902301840184  0.27168853765377
 6  0.09224570357036  0.88964227412741 -0.04821392419242
 6  3.81060046774677  0.82045239563956  0.15604813581358
 6  1.49428136893689  1.08844057175718  0.02538015711571
 6  2.46790469096910  0.25765506520652  0.16614997289729
 6  2.28251811351135 -1.16097027732773  0.58534712831283
 1 -13.13906570737074 -2.92169514731473 -1.00108533253325
 1 -13.73567879157916 -1.43693767796780 -1.78779523422342
 1 -13.78068587078708  0.25778284708471  1.87474015671567
 1 -13.66200559415942  0.58611373847385  0.08743640924092
 1 -14.79710701480148 -1.42848156155616  0.27329893419342
 1 -10.76837545444544 -2.89506628942894 -1.84598989438944
 1 -11.62306251515152 -2.05586037743774 -3.06458474467447
 1 -9.87821000450045 -1.51128033663366 -2.55940755325533
 1 -9.38041669646965  1.11120325132513 -0.78465227532753
 1 -10.03609493709371  0.09533079717972  2.08839458225823
 1 -11.67374273517352  0.24973167476748  3.02271062116212
 1 -11.07247794149415 -1.36462333883388  2.26318710841084
 1 -11.91985452795280  2.24565068706871  0.09926314231423
 1 -12.23075931533153  2.36265184068407  1.81011472327233
 1 -10.59074935703570  2.13066365686569  1.07641193469347
 1 -12.41536460896089 -2.59125199879988  1.10084456335634
 1 -9.12974381628163 -1.50696905460546  0.29407850675067
 1 -5.39919936603660 -1.87522084718472 -0.26370441484148
 1 -5.90055247054705 -1.75477070967097  1.42885128132813
 1 -7.03839394999500 -2.71108338133813  0.58860501130113
 1 -7.39095040614061  1.49789811891189 -0.11708138463846
 1 -4.74716136083608  0.06887550595059  0.07327355165517
 1  13.59914559165917 -1.34320600800080  2.01625656625663
 1  12.17268244524453 -1.99400878087809  1.63169916961696
 1  13.74719707660766 -2.70778244324432  0.31082800870087
 1  13.01370880938094 -2.12421890039004 -2.11858495319532
 1  11.64065407360736 -2.71607073097310 -0.78719406150615
 1  11.86882649084909  0.39983034973497  3.35452049074908
 1  10.68167514521452  1.21344690779078  2.42096962116212
 1  10.55698331953195 -0.38280659515952  2.65309155035504
 1  13.88248515041504  1.09886851105110  0.40920498529853
 1  12.85584819801980  2.27809724752475  0.72840754645465
 1  13.71163700080008  1.56786126522652  1.87621410301030
 1  12.91114193369337  0.10802419281928 -2.79974242614261
 1  11.69064613301330  1.31959405030503 -2.40962889778978
 1  13.16261709430943  1.09232528542854 -1.32072755815582
 1 -5.31773399729973  3.00181456825683 -0.66690810161016
 1  10.08440969156916 -0.17647630523052 -2.17640997679768
 1  15.20022286748675 -1.12563237763776  0.69204780408041
 1  8.48103995479548  1.89541186838684 -0.39163644084408
 1 -2.47532261646165  4.37259370907091  0.08571440114011
 1 -2.44460322462246  3.93829105390539 -1.75924903400340
 1 -4.05540192529253  4.42954113591359 -0.97134693619362
 1 -2.72832245234523  0.48265047704771 -0.38928188278828
 1  6.65735848574858 -1.96821638373837  0.66316880158016
 1  8.09337455195520 -1.87534225902590 -0.34399517361736
 1  8.28542846444645 -1.41834416281628  1.22427618851885
 1  6.15444059115912  1.82068587398740  0.22135011531153
 1 -0.64531588858886  2.73766781028103 -0.16218613011301
 1  4.95950193659366 -0.93509000570057  0.45800848194819
 1 -0.15771469466947 -0.14282609550955  0.36404901600160
 1  3.92014118201820  1.78985462166217 -0.10347257225723
 1  1.64102097729773  2.27221301320132 -0.22230492889289
 1  1.25930476527653 -1.43532013621362  0.61607060266026
 1  2.89176050085009 -1.97030333183318 -0.11776954695470
 1  2.61180787718772 -1.44327855685569  1.52676596319632
=======
>>>>>>> 6a1b998aacd80a23911c140f266e48a14f2d523d

