%nproc=3
%Mem=2GB
# td=(NStates=1) CAM-B3LYP/6-31G(d,p) 

TD

0 1
<<<<<<< HEAD
 8 -11.76272293989399  0.20644129252925 -1.49906707030703
 8 -13.08876971277128 -2.32714102210221  1.39982566756676
 8  10.58164368426843 -1.12198208610861 -2.06379010531053
 8  14.52070543724372 -1.11640036153615 -0.27964245164516
 6 -11.02372053925392 -0.14567852255226 -0.34912433683368
 6 -11.71362765246525 -1.11816299619962 -1.26281512181218
 6 -11.60523256625662  0.30300698349835  1.03337299229923
 6 -13.15028023172317 -1.63366352425243 -0.95613724772477
 6 -13.20080853885389  0.04974752715272  0.95088977687769
 6 -13.56955338883888 -1.40734227202720  0.37776654395440
 6 -11.02981857055706 -1.93557897539754 -2.20984330263026
 6 -9.50787023082308  0.04599173297330 -0.37927488558856
 6 -10.90785676307631 -0.31822741874187  2.15333040014001
 6 -11.53693407370737  1.82422752585258  1.23527161886189
 6 -8.60358378007801 -0.82043008420842 -0.05082634363436
 6 -7.19021701130113 -0.56750859695970  0.01363906420642
 6 -6.39509352425242 -1.95197388618862  0.08764100040004
 6 -6.60243590529053  0.67725855575558 -0.16503505870587
 6 -5.12292223382338  0.79947198389839 -0.40420475067507
 6  12.06176542344234  0.20315034453445  1.28785831393139
 6  11.62505979607961 -0.68808496369637 -1.25738961866187
 6  12.73788101620162 -1.18307253695370  1.54380911431143
 6  13.35055974267427 -1.81355588898890  0.24535850025003
 6  12.45080001470147 -1.86878138713871 -0.81019498199820
 6  11.09607649554956 -0.02280753285329  0.07576475677568
 6  11.25698710361036  0.46421306330633  2.58160050025003
 6  13.14023714041404  1.41865508630863  1.02886593759376
 6  12.42367867406741  0.24823369666967 -2.03379732753275
 6 -4.75096159185919  2.20284279027903 -0.38082293119312
 6  9.84392558005801  0.42142294509451  0.02734155745575
 6 -3.41904706310631  2.48512726642664 -0.43927418811881
 6  8.65499528552855  0.91581791559156 -0.08493283328333
 6 -3.01525321042104  3.98366982648265 -0.71336106820682
 6 -2.33185010011001  1.59071091979198 -0.29123165786579
 6  7.41251079357936  0.21427201520152 -0.01819100320032
 6  7.60513525002500 -1.26925387748775  0.17349727262726
 6  6.14063541154115  0.81312824312431 -0.01781571757176
 6 -0.97959209070907  1.82051117481748 -0.21276945204520
 6  4.91322292509251  0.18589770587059  0.11915328412841
 6  0.00162664166417  0.91086439633963  0.01930282748275
 6  3.69646905460546  0.84968531893189  0.10432296329633
 6  1.30511245204520  1.22228395609561 -0.02792517341734
 6  2.32628052855285  0.24359365906591  0.25284864276428
 6  2.18883874557456 -1.10937511781178  0.52756134973497
 1 -13.37710951175118 -2.58172114991499 -1.12826805080508
 1 -13.79614483818382 -0.97715169936994 -1.58507496219622
 1 -13.38355615781578  0.23105017381738  1.98245092779278
 1 -13.39911930553055  0.61482660976098  0.25773343894389
 1 -14.74103140724072 -1.41629034243424  0.49258086238624
 1 -10.95221383828383 -3.05423220602060 -1.75835113051305
 1 -11.54749495839584 -2.07487227862786 -3.12213049924992
 1 -10.01519370287029 -1.56688589718972 -2.30517212971297
 1 -9.14255291009101  0.88497062806281 -0.89837364746475
 1 -9.84791611921192  0.06731799589959  2.35270101290129
 1 -11.47518287918792  0.02019872147215  3.12289063916392
 1 -10.83382407610761 -1.42325920242024  2.08826961666167
 1 -11.84586712921292  2.56017213921392  0.38931214721472
 1 -12.23750999039904  2.21150672617262  1.93459717151715
 1 -10.47899818191819  2.14346493699370  1.52321661516152
 1 -12.13325639813981 -2.50598347194720  1.21298577747775
 1 -8.82007284918492 -1.81012937063706  0.22619171807181
 1 -5.90165961206121 -1.96697002210221 -0.93601164556456
 1 -5.52990540584058 -2.06493172577258  0.83532192839284
 1 -7.10766087668767 -2.75115738873887  0.37726387718772
 1 -7.31441275237524  1.58066639573957 -0.23620329682968
 1 -4.67159380408041 -0.14125550715071 -0.64855863156316
 1  13.50091576867687 -1.20603229062906  2.38049298989899
 1  12.04607978497850 -1.98446782678268  1.76305230493049
 1  13.60861321822182 -2.77584924992499  0.53364028992899
 1  12.82457989648965 -2.36947342584258 -1.69162225692569
 1  11.70758076627663 -2.82481160506051 -0.20264560666067
 1  11.85393500170017  0.78695906260626  3.51437647634764
 1  10.62741971967197  1.37074263736374  2.51233875807581
 1  10.57240486168617 -0.43700201470147  2.71622786398640
 1  13.65893279517952  1.16775539973997 -0.05811174637464
 1  12.56929954315432  2.24951438923892  1.04285899159916
 1  13.98012384948495  1.42203668276828  1.85008148974897
 1  12.80973179267927 -0.20377698729873 -2.95278773067307
 1  11.97900496889689  1.27318940984098 -2.41632956785679
 1  13.33755458805881  0.40958701160116 -1.64884036943694
 1 -5.57418964286429  2.90338472527253 -0.48039945074507
 1  9.84963621422142 -0.49014767236724 -2.17209954575458
 1  15.02352519771977 -1.05963577797780  0.57624622392239
 1  8.42278412921292  1.81694402160216 -0.12052933013301
 1 -2.58038312251225  4.18462491219122  0.36069189888989
 1 -2.42368113241324  4.11996922172217 -1.69007211631163
 1 -3.88404478957896  4.79647782958296 -0.92866266776678
 1 -2.54677429752975  0.72730494249425  0.22640968636864
 1  6.69464221412141 -1.78169773187319  0.01293377807781
 1  8.38737395189519 -1.72534725952595 -0.34022479657966
 1  7.90867078867887 -1.36324865326533  1.26550031093109
 1  6.14686983408341  1.75507931333133  0.06834481478148
 1 -0.73515487248725  2.87768181168117 -0.63220313181318
 1  5.02485847224722 -0.84184068076808  0.13146582768277
 1 -0.52968189138914 -0.02326413931393  0.44343695479548
 1  3.80166933483348  1.98376401260126 -0.28313053805381
 1  1.74304117931793  2.18933472537254 -0.38861155955596
 1  1.21354018881888 -1.43816042024202  0.34841383698370
 1  2.92297362216222 -1.83517981948195 -0.00603837383738
 1  2.28643533993399 -1.24241847084708  1.64774806140614
=======
>>>>>>> 6a1b998aacd80a23911c140f266e48a14f2d523d

