%nproc=3
%Mem=2GB
# td=(NStates=1) CAM-B3LYP/6-31G(d,p) 

TD

0 1
 8 -11.83100976857686  0.19888053645365 -1.49082624622462
 8 -12.92900373617362 -2.72936124412441  1.38175386038604
 8  10.61367688758876 -1.10497038493849 -2.07055078137814
 8  14.44940830753075 -0.92791151265127 -0.03166765416542
 6 -11.03690185738574 -0.13916787148715 -0.34212363676368
 6 -11.68344463416341 -1.11919309920992 -1.23184202450245
 6 -11.74166620962096  0.25881256405641  0.98848850385039
 6 -12.88737394109411 -1.88269842774277 -0.90707234123412
 6 -13.14703316131613 -0.28817626522652  1.06806149404941
 6 -13.41352778627863 -1.68603014081408  0.53571233853385
 6 -10.72651824052405 -1.99485490299030 -2.05193751205120
 6 -9.59306875067507  0.24731186498650 -0.36943390149015
 6 -11.02986896429643 -0.23015861186119  2.17540260736074
 6 -11.77564794509451  1.82958806190619  1.04576266796680
 6 -8.60404382608261 -0.54503254445445  0.02947168616862
 6 -7.15904389398940 -0.45474732083208  0.10022772307231
 6 -6.25192920782078 -1.51021971077108  0.46866910321032
 6 -6.63590925262526  0.88508933883388 -0.22006056125613
 6 -5.27525746734673  1.00611264796480 -0.20105443564356
 6  11.84150339723973 -0.10584055455546  1.34940446854685
 6  11.73766105620562 -0.72180833603360 -1.25940982068207
 6  12.63698092619262 -1.39352358205821  1.53669840324032
 6  13.37184187088709 -1.84637917131713  0.24869883428343
 6  12.46905183988399 -2.03076758575858 -0.96351031353135
 6  11.11596848474847 -0.05754100620062 -0.03071589128913
 6  10.93237464236424  0.09267590959096  2.63253559375938
 6  12.85985910261026  1.17529074987499  1.36779983098310
 6  12.54389069526953  0.29203807710771 -2.03113706150615
 6 -4.79340583628363  2.32469497549755 -0.39760460936094
 6  9.88011919941994  0.52954375717572 -0.08065924262426
 6 -3.48909406780678  2.67414616831683 -0.42030229092909
 6  8.68014780078008  0.97751408520852 -0.09932427242724
 6 -3.01945363046305  3.99025048454845 -0.81708144024402
 6 -2.36520343544354  1.69718156685669 -0.32378491319132
 6  7.39143868636864  0.12306289428943 -0.01431061516152
 6  7.58651338783878 -1.25596254835484  0.25559548244824
 6  6.27828917691769  0.79866679697970 -0.18424236023602
 6 -0.97775190669067  1.93999312301230 -0.57632580768077
 6  4.96689829262926  0.25657477357736 -0.04761339253925
 6  0.00641712071207  1.03324663456346 -0.27562666546655
 6  3.83380278797880  0.93158350875088 -0.03131060006001
 6  1.35932787358736  1.25288701640164 -0.16772915381538
 6  2.42891079157916  0.36581588128813  0.02436579447945
 6  2.18432829452945 -1.09927410771077  0.35458405200520
 1 -12.80398219901990 -2.92210518831883 -1.13987921192119
 1 -13.82137736143614 -1.72598658285829 -1.64146060076008
 1 -13.57070487268727 -0.18171110231023  2.17242992569257
 1 -13.78299769336934  0.36705183228323  0.58450611621162
 1 -14.62570987508751 -1.72622133553355  0.47146875117512
 1 -10.35855447234723 -2.90049683248325 -1.56756205160516
 1 -11.40281048994900 -2.13895868726873 -3.02770105630563
 1 -10.08625080858086 -1.25694490309031 -2.31068268076808
 1 -9.54441309610961  1.09881201220122 -1.02066587668767
 1 -10.00890221782178  0.37439870397040  2.31401714451445
 1 -11.76485184608461 -0.15641894029403  3.10398874897490
 1 -10.67770846454645 -1.36949382588259  2.28016880658066
 1 -12.25845838833883  2.39827594959496  0.24327754375438
 1 -12.33376961636164  2.16703227872787  1.95755946774677
 1 -10.74559484158416  2.32864345484548  1.20871516501650
 1 -11.99596266876688 -2.93863673727373  1.23967844674467
 1 -8.91474231613161 -1.65630398809881  0.40369946884689
 1 -5.22767221332133 -1.46483980908091 -0.23654169856986
 1 -5.62582499779978 -1.12332756535654  1.41663005920592
 1 -6.84103421402140 -2.38649092209221  0.58372452325233
 1 -7.37751906300630  1.73139146824682 -0.41738141464146
 1 -4.45024166886689  0.26822544094409 -0.06734050975098
 1  13.18320399749975 -1.42695438283828  2.41935687628763
 1  11.73793897089709 -2.25363474347435  1.94981098079808
 1  13.88613096999700 -2.89116078107811  0.57420434633463
 1  13.13946138463846 -2.57693417191719 -1.60536363106311
 1  11.76692670087009 -2.94524364826483 -0.71543688578858
 1  11.60374998319832 -0.27641727502750  3.50495553425342
 1  10.33770074777478  1.03558912201220  2.49049657385739
 1  10.10970859205921 -0.68514682918292  2.60703694489449
 1  13.56230313221322  1.36220484468447  0.49297336213621
 1  12.20624323752375  2.19598903670367  1.56816152185219
 1  13.42643848094809  1.12951743084308  2.41546802840284
 1  12.80701152065207 -0.10223683328333 -2.95014746664666
 1  12.08332540094009  1.36383847474747 -2.26569450435044
 1  13.42698353095309  0.71969802270227 -1.57780326572657
 1 -5.45733795769577  3.18439282608261 -0.50895230603060
 1  10.07420867146715 -0.32525118271827 -2.04070640644064
 1  15.09302214741474 -0.99435925032503  0.66250484978498
 1  8.57909976077608  2.01173350055005 -0.42777005420542
 1 -2.45159024322432  4.47790424012401  0.13403923362336
 1 -2.08806757105711  4.10001722652265 -1.46963007210721
 1 -3.79755614071407  4.63759194099410 -1.20640044154415
 1 -2.54730435053505  0.75741795379538  0.02494954035404
 1  6.74765751565157 -1.94715427752775  0.36773925862586
 1  8.38311352585258 -1.59622434723472 -0.45063583768377
 1  7.87309723132313 -1.35566789518952  1.15750951185119
 1  6.43055820292029  1.96595040044004 -0.22119413911391
 1 -0.77524888188819  3.07363140664066 -0.87613752525253
 1  4.92360834723472 -0.79073557025703  0.16156883798380
 1 -0.60786971017102  0.06431461856186  0.06150876197620
 1  3.81360052795279  2.05581121732173 -0.05881810681068
 1  1.67381425662566  2.22989878177818 -0.35948864726473
 1  1.11097993279328 -1.45011161536154 -0.04388539293929
 1  2.91104242904290 -1.66531283278328 -0.33465123512351
 1  2.29923662006201 -1.26157038603860  1.42622590919092

