%nproc=3
%Mem=2GB
# td=(NStates=1) CAM-B3LYP/6-31G(d,p) 

TD

0 1
 8 -11.77361402900290  0.42899354775478 -1.34797196079608
 8 -13.02585342114211 -2.47914622262226  1.29697538253825
 8  10.60651617151715 -0.90683057095710 -1.94033776007601
 8  14.47428079477948 -0.90753947544754  0.02590810341034
 6 -11.04846301350135 -0.05690964566457 -0.28958838323832
 6 -11.73711000070007 -0.98486966686669 -1.19058789908991
 6 -11.70448249124912  0.39311599439944  1.17097675267527
 6 -13.10211541524152 -1.56216637453745 -0.93656529052905
 6 -13.31805026302630 -0.02827027462746  1.15455014291429
 6 -13.62778921242124 -1.42486402420242  0.54266303360336
 6 -10.97909349804980 -1.73382880038004 -2.21364368266827
 6 -9.61226066986699  0.13739087288729 -0.40416737483748
 6 -10.96078205560556 -0.26035163116312  2.20907597469747
 6 -11.62724310461046  1.96023112621262  1.27314540624062
 6 -8.74504792649265 -0.80852889408941  0.08191693069307
 6 -7.30820881048105 -0.61803364946495  0.02550025032503
 6 -6.38424243914391 -1.86652534133413  0.31408364466447
 6 -6.66134179587959  0.63813464336434 -0.12982153735374
 6 -5.25983592519252  0.88116015271527 -0.07190152035204
 6  11.87171641854185  0.17116714621462  1.41854138223822
 6  11.70998828892889 -0.54697085228523 -1.15911979167917
 6  12.61688891699170 -1.17219144884488  1.65637037043704
 6  13.38800348704871 -1.69906443984398  0.40963492789279
 6  12.35688062276228 -1.88902341134113 -0.74482844534453
 6  11.12499938783878  0.13915866376638  0.15688286858686
 6  11.04014541944194  0.42030867286729  2.63795613581358
 6  12.91240435713571  1.37808102890289  1.38917196819682
 6  12.49603590979098  0.43164203750375 -1.94576852465247
 6 -4.64432092779278  2.09642214821482 -0.40953580248025
 6  9.86738792629263  0.63602440524052  0.02246106940694
 6 -3.35986114451445  2.36820557425743 -0.49777003770377
 6  8.68016780278028  0.99513584738474 -0.21298563856386
 6 -2.92939462456246  3.94795625512551 -0.69223895599560
 6 -2.28212512761276  1.46331818051805 -0.40736327102710
 6  7.52387192969297  0.10885147314731 -0.08122730683068
 6  7.82816755325533 -1.42529948204820  0.28806872977298
 6  6.18758010601060  0.55122205250525 -0.30767470347035
 6 -0.89097322882288  1.70070919461946 -0.51502967806781
 6  4.93791539433943 -0.10926181008101 -0.19450808200820
 6  0.10122660166017  0.78081139103910 -0.35000410321032
 6  3.81828123582358  0.58452880328033 -0.27506497549755
 6  1.41272321312131  0.98037976567657 -0.34977735863586
 6  2.48294619511951  0.13270256995700 -0.19599624172417
 6  2.26118598029803 -1.38139231953195 -0.03945535193519
 1 -13.10459226002600 -2.61988496629663 -1.14408963296330
 1 -13.88341356505651 -1.08109209340934 -1.63336979167917
 1 -13.78331613381338  0.02181925072507  2.26709939263926
 1 -13.68744813841384  0.93955908300830  0.51708937453745
 1 -14.70672797689769 -1.62613132653265  0.66882848714871
 1 -10.78056667356736 -2.86586336913691 -2.07052234763476
 1 -11.60189039793979 -1.83445823722372 -3.00075836203620
 1 -10.12189437293729 -1.30172938153815 -2.46674828732873
 1 -9.17223587838784  1.09256138713871 -0.75269908000800
 1 -10.10861218881888  0.14637590169017  2.36605234803480
 1 -11.57801316221622 -0.21110440884088  3.23864221432143
 1 -10.83081377507751 -1.29365624212421  1.94447523722372
 1 -12.40485302780278  2.50720684268427  0.56007922392239
 1 -11.90583682308231  2.12201777727773  2.41065477727773
 1 -10.55585586768677  2.26361695219522  1.19771406490649
 1 -11.98036110861086 -2.26489936353635  1.39920439933993
 1 -9.26934777667767 -1.92741109880988  0.55504460336034
 1 -5.69519896599660 -2.04195752085209 -0.41979002340234
 1 -5.83474588988899 -1.64482971557156  1.29554795099510
 1 -7.00222033263326 -2.70474274727473  0.35151130193019
 1 -7.30194150525052  1.63419174827483 -0.26320599709971
 1 -4.40988763346335  0.13716233463346  0.25709193349335
 1  13.38471414851485 -1.17750943834383  2.53115805640564
 1  11.86692186918692 -1.90091947194720  1.83146914661466
 1  13.76154851175117 -2.83949561456146  0.54605153105311
 1  12.83758119661966 -2.28463494199420 -1.62706580128013
 1  11.54378438663866 -2.61004012791279 -0.41319666176618
 1  11.63714332253225  0.42749311601160  3.38883392209221
 1  10.58953593129313  1.48150371347135  2.73042056625663
 1  10.11827944914491 -0.26963527802780  2.87535377657766
 1  13.45036193809381  1.18377700190019  0.34797886268627
 1  12.24178679187919  2.26328576637664  1.02029673537354
 1  13.59449528662866  1.54277875697570  2.24672115371537
 1  12.68826964646465  0.00245363576358 -2.94462691459146
 1  11.98457552595259  1.34837692859286 -2.20713864876488
 1  13.52001283388339  0.70971702460246 -1.62101758715872
 1 -5.50222244614461  2.88597298409841 -0.48192960376038
 1  10.03439469006901 -0.23991264886489 -2.12212454825483
 1  15.12640548574857 -0.90254006840684  0.74792339163916
 1  8.31057290809081  1.85161748894890 -0.45960323752375
 1 -2.07843292749275  4.20277672737274  0.12673850355035
 1 -2.53295205950595  4.20290751555155 -1.69730283938394
 1 -3.76297268236824  4.63823200500050 -0.54783458495850
 1 -2.50555017511751  0.42758497049705 -0.40563351795180
 1  6.80476322622262 -1.93309287138714  0.71926441114111
 1  8.30773598809881 -1.72478720352035 -0.71568234233423
 1  8.49884980658066 -1.39638196659666  1.12432619351935
 1  5.99461460856086  1.77759156455646 -0.52893491319132
 1 -0.45663702070207  2.81339538303830 -0.35705561706171
 1  4.93552953935394 -1.11288778547855 -0.29743706260626
 1 -0.26297522072207 -0.35632744564456 -0.35059244814481
 1  3.86749591749175  1.64988062426243 -0.48329055405541
 1  1.77711458665867  1.99272506440644 -0.42241493989399
 1  1.22534136893689 -1.52394899909991  0.49037803340334
 1  2.57355868066807 -1.86886318781878 -1.08121589158916
 1  3.16264296069607 -1.72671690069007  0.70615390199020

