%nproc=3
%Mem=2GB
# td=(NStates=1) CAM-B3LYP/6-31G(d,p) 

TD

0 1
 8 -11.65413208080808  0.35238588698870 -1.50776794039404
 8 -12.90205104090409 -2.60726903490349  1.28440412541254
 8  10.56467198709871 -1.33974386228623 -1.91333505980598
 8  14.48726209290929 -0.93565228672867 -0.11860634803480
 6 -11.06859502670267 -0.09021297599760 -0.31847127152715
 6 -11.61121741144114 -1.03698487838784 -1.27426626692669
 6 -11.77971001400140  0.40750743354335  0.92753240824082
 6 -12.97032223592359 -1.76576673457346 -0.99278091209121
 6 -13.27201565956596 -0.17949539713971  0.96326101400140
 6 -13.50458689218922 -1.63704524232423  0.43750251755176
 6 -10.84117970667067 -1.93595901340134 -2.23302562086209
 6 -9.57177662146215  0.13247038083808 -0.27431438953895
 6 -11.05410138753875 -0.17525312131213  2.15071013811381
 6 -11.88905928622862  1.89118422152215  1.00056814851485
 6 -8.66630005170517 -0.80092813401340  0.05768450745074
 6 -7.19489747934794 -0.69695154125413 -0.01839413911391
 6 -6.37441145604560 -1.86380506930693  0.41277351365137
 6 -6.63847950965097  0.65078590849085 -0.23725228042804
 6 -5.23807374897490  0.87721975867587 -0.27784211441144
 6  12.00978022492249 -0.00111008150815  1.28832836093609
 6  11.65632292239224 -0.83391954715472 -1.28758263796380
 6  12.82898012611261 -1.22326655635564  1.40790552395240
 6  13.43501818851885 -1.83595812921292  0.29061302570257
 6  12.53474840954095 -1.98316282528253 -0.93419738223822
 6  11.18452534043404 -0.05897114921492  0.05753293359336
 6  11.11552295719572  0.33670031203120  2.56422876307631
 6  12.90627374407441  1.35108832963296  1.14987803880388
 6  12.51487779397940  0.20418929222922 -2.16979092689269
 6 -4.80191668736874  2.18953145914591 -0.28917376627663
 6  9.93335452295230  0.39900070287029 -0.06250742744274
 6 -3.40547570597060  2.56081483518352 -0.39076933763376
 6  8.73325311131113  0.89652598639864 -0.19229356935694
 6 -3.06948863396340  3.99636109560956 -0.63940367246725
 6 -2.34353126822682  1.70623247194719 -0.25247778247825
 6  7.40037958045805  0.16769735773577 -0.00522970707071
 6  7.56560129662966 -1.34124107620762  0.14124404730473
 6  6.18755010301030  0.82880981128113 -0.16110004600460
 6 -1.01696582808281  1.96218534223422 -0.23653182828283
 6  4.94099570237024  0.26171528762876  0.04139550835084
 6 -0.00891441244124  1.08584189408941  0.05598649584959
 6  3.75173458115812  0.96878722912291 -0.08933640264026
 6  1.37203914471447  1.39483121082108  0.03444106320632
 6  2.43412131263126  0.44494379407941  0.14820817871787
 6  2.23461332303230 -0.98871305160516  0.61663025662566
 1 -12.97557935873587 -2.75790876867687 -1.27075229922992
 1 -13.83167839153915 -1.30695467966797 -1.55583203790379
 1 -13.62388019021902  0.03158022682268  2.01925460816082
 1 -13.79211860546055  0.52953808090809  0.40036770237024
 1 -14.56985428952895 -1.82166087948795  0.31667327162716
 1 -10.58933755065507 -2.90292707550755 -1.89461475687569
 1 -11.57453766266627 -2.14875966736674 -3.00679896609661
 1 -9.99315149864987 -1.40349955855586 -2.80355196769677
 1 -9.26612526732673  1.08162029302930 -0.67788159825983
 1 -9.94728605620562  0.28290955505551  2.16386212901290
 1 -11.62760812171217  0.06480318191819  3.13143149324932
 1 -11.12016270997100 -1.19888676517652  2.37930872057206
 1 -12.24175671817182  2.24087020902090  0.02376559255926
 1 -12.59340557995800  2.12101767726773  1.74291800360036
 1 -10.89827010911091  2.45278586908691  1.40852514601460
 1 -11.93520659315932 -2.37782065566557  1.23370784968497
 1 -9.07266810871087 -1.84113247094709  0.16202530143014
 1 -5.94978442454245 -2.16733005810581 -0.53414145854585
 1 -5.74253666896690 -1.55888112071207  1.33168156435644
 1 -7.09349946054605 -2.73899617261726  0.70237638843884
 1 -7.42850416151615  1.39715804490449 -0.29562923942394
 1 -4.60794743944394  0.10850946934693  0.00612683698370
 1  13.46423210031003 -1.33308499589959  2.31032597319732
 1  11.93596877387739 -1.98581796179618  1.75924192389239
 1  13.71247360426043 -2.89736140114011  0.52315924182418
 1  13.19065650415041 -2.39427590609061 -1.94676777147715
 1  11.87032704090409 -2.83335245914591 -0.81557689978998
 1  11.68782839103910  0.42344271097110  3.51821686038604
 1  10.63831080878088  1.22925848894889  2.33972149634963
 1  10.30864848604860 -0.37171548604860  2.64345058625863
 1  13.60180708260826  1.38836746094609  0.44007807260726
 1  12.29166177937794  2.32416185398540  1.28855356105611
 1  13.39292512961296  1.56276075517552  2.18933541514151
 1  12.78725954545455 -0.49194580418042 -3.16982943484348
 1  11.84627169556956  1.00809290019002 -2.39609754465446
 1  13.33638447104710  0.63938999189919 -1.78635412081208
 1 -5.45163738763876  3.03418780558056 -0.41194260506051
 1  10.00519176977698 -0.60084874247425 -1.97847018281828
 1  15.12177502270227 -0.67023683808381  0.59403800310031
 1  8.66551840264026  1.90347267446745 -0.40758803600360
 1 -2.62582766696670  4.35926237593759  0.25916174587459
 1 -2.50739950425043  3.99994721952195 -1.66694980408041
 1 -4.13184957005701  4.53320150195020 -0.64664446594659
 1 -2.56801642174217  0.57523973597360  0.12416946234623
 1  6.65733848374837 -1.84150371247125 -0.15260277557756
 1  8.27202241674167 -1.82758748354835 -0.31748252235224
 1  7.92114203580358 -1.43305563396340  1.32368612951295
 1  6.31912705980598  1.96636044144414 -0.44457647734773
 1 -0.77812916991699  2.98796283978398 -0.41844175567557
 1  4.89598558495850 -0.80076657335734  0.25856853795380
 1 -0.40718964216422 -0.05788760166017  0.23167577867787
 1  3.92366153405340  2.03916955315532 -0.44311653665367
 1  1.57192406760676  2.43562935483548 -0.60077277567757
 1  1.20658949374937 -1.05432203640364  1.06097509310931
 1  2.55008633343334 -1.84862116361636 -0.12208997899790
 1  2.93208990539054 -1.27823205220522  1.46964025062506

