%nproc=3
%Mem=2GB
# td=(NStates=1) CAM-B3LYP/6-31G(d,p) 

TD

0 1
<<<<<<< HEAD
 8 -11.84351101870187  0.37783843224322 -1.47291445504550
 8 -13.12346318211821 -2.41933024102410  1.36526221122112
 8  10.70626614651465 -1.08085797369737 -2.11280500680068
 8  14.49435280198020 -1.01249997149715  0.05591110371037
 6 -11.12453062026203 -0.15411936663666 -0.26593601800180
 6 -11.64275056475647 -1.05039621952195 -1.31896073637364
 6 -11.79191123412341  0.25013169596960  1.00118977397740
 6 -13.02835803950395 -1.81604176207621 -1.04295592959296
 6 -13.25816427442744 -0.13654110171017  0.92819750765077
 6 -13.59085551905190 -1.52992453025303  0.43473224052405
 6 -10.75085067376738 -1.76484190169017 -2.22379469776978
 6 -9.60635007880788  0.13185031883188 -0.36145310341034
 6 -11.11210718811881 -0.29678527452745  2.19943501060106
 6 -11.72354273457346  1.82030713381338  1.00118821052105
 6 -8.71849527122712 -0.73343138433843  0.15040377937794
 6 -7.16452444204420 -0.50969281538154  0.20286798709871
 6 -6.44854886978698 -1.74993368216822  0.66279851615162
 6 -6.58697435913591  0.70482131203120 -0.16932548774877
 6 -5.20245018661866  0.91458349504950 -0.04209854005401
 6  11.86153540044004  0.15829585908591  1.35771529962996
 6  11.71016830693069 -0.70719687488749 -1.24456833653365
 6  12.73238046614662 -1.11790602030203  1.65081981538154
 6  13.36700138683868 -1.72932746614661  0.39495345974597
 6  12.41296623132313 -1.98182269126913 -0.80025398789879
 6  11.11301818971897 -0.05452070417042  0.04541172147215
 6  10.90160156505651  0.36217285928593  2.48767110731073
 6  12.82650576727673  1.43098631943194  1.27577062806281
 6  12.56029233543354  0.30229910321032 -2.05429937773777
 6 -4.67287378307831  2.20019252525252 -0.34585943484348
 6  9.93463465096510  0.45441624442444 -0.07138831553155
 6 -3.28284344274427  2.59964871857186 -0.27895815651565
 6  8.71645143114311  0.84519085288529 -0.28776311631163
 6 -2.91127281238124  4.03572503200320 -0.62374210631063
 6 -2.39370628572857  1.57423927262726 -0.23997653235324
 6  7.42408195069507  0.06954754275428 -0.17751693579358
 6  7.65248998549855 -1.45600255235524  0.12989291219122
 6  6.25152650065006  0.75782271257126 -0.21812574857486
 6 -0.95325945744574  1.76666579027903 -0.27620579567957
 6  4.91296289908991  0.24010312641264 -0.12563119431943
 6  0.04619109810981  0.87842115201520 -0.05609471227123
 6  3.73874328202820  0.89013936433643 -0.20696816581658
 6  1.43611555235524  1.12581430913091 -0.14603698459846
 6  2.47173507400740  0.29048834853485 -0.20368701080108
 6  2.31257111881188 -1.20197437773777  0.03774236783678
 1 -12.74508630943094 -3.01655463326333 -1.27059228322832
 1 -13.72102732643264 -1.31211519571957 -1.79849630433043
 1 -13.75089289148915 -0.13551648284829  1.89549223192319
 1 -13.64692408600860  0.63440856795680  0.17540520612061
 1 -14.64612191629163 -1.59289800320032  0.37800940524052
 1 -10.50276889378938 -2.70230701350135 -1.58266356175618
 1 -11.47253746264626 -1.95654044544454 -3.04464275047505
 1 -9.93861604510451 -1.18289749834983 -2.77837945044504
 1 -9.32770142494249  1.04097622862286 -0.76783059315932
 1 -10.14378570617062  0.11235249934994  2.53834957775778
 1 -11.65060042094209  0.05252195379538  3.06748509860986
 1 -10.95740643434343 -1.29553643014301  2.29610039973997
 1 -12.14208675117512  2.14954107610761  0.14470768676868
 1 -12.42743898329833  2.36387196269627  1.74657836963696
 1 -10.66888717081708  2.23571416191619  1.07861215471547
 1 -12.20134320682068 -2.49621249484948  1.07998247714772
 1 -8.94272511441144 -1.85162352005201  0.53807290619062
 1 -5.81151059715972 -2.32470579567957 -0.20040808520852
 1 -5.59353176847685 -1.68420365296530  1.46390478667867
 1 -6.89716982758276 -2.47343961696170  1.11402755355536
 1 -7.24942625372537  1.55519384848485 -0.51813148964896
 1 -4.53598024272427  0.08777739613961  0.28848507280728
 1  13.49831550865087 -0.83246493389339  2.29730467106711
 1  12.07505268226823 -1.78635801580158  2.35647164686469
 1  13.59774213111311 -2.80940260526053  0.63997092299230
 1  12.98583602210221 -2.62366884538454 -1.61020411511151
 1  11.58844885308531 -2.84842396629663 -0.47152249434944
 1  11.48102771097110  0.29572993969397  3.42148718741874
 1  10.45144212191219  1.37221278437844  2.57882540674067
 1  10.37150477167717 -0.60092840734073  2.30384662586259
 1  13.53040994289429  1.35055367956796  0.46686075087509
 1  12.32748536173617  2.38800823862386  1.36496120182018
 1  13.49525536263626  1.40847532663266  2.29925640724072
 1  12.65069588908891 -0.24128073767377 -2.97109956185619
 1  11.90335740414041  1.33291538243824 -2.15271320622062
 1  13.62390322292229  0.54360041294129 -1.57410289568957
 1 -5.34841706560656  3.04645903270327 -0.39995140594059
 1  10.03968521912191 -0.38546720432043 -1.98461079687969
 1  14.86017886308631 -0.56983679807981  0.99205780508051
 1  8.69100095089509  1.82146447364736 -0.58421569876988
 1 -2.12821790599060  4.05439188888889  0.17553338303830
 1 -2.46964572887289  3.99908713351335 -1.60062317141714
 1 -3.68023440854085  4.64629281108111 -0.52084188568857
 1 -2.62441206130613  0.34832704470447 -0.18333128772877
 1  6.92450520042004 -1.99133869596960 -0.26531404670467
 1  8.64161937643764 -1.68636336113611 -0.45144591869187
 1  7.83967388898890 -1.48876120452045  1.25854961586159
 1  6.47469261636164  1.75768957435744 -0.49792181188119
 1 -0.68904026102610  2.89058310181018 -0.33667357885789
 1  4.81686767316732 -0.90874737143714 -0.01146846574657
 1 -0.33935285848585 -0.07120893379338  0.34508711981198
 1  3.73832300020002  1.90710634683468 -0.28532075707571
 1  1.78925580078008  2.20458625052505 -0.19170186858686
 1  1.31443027782778 -1.56632323652365 -0.40185118951895
 1  3.25782710751075 -1.74903120462046 -0.38163593359336
 1  2.33696039243924 -1.34241847084708  1.14378766536654
=======
>>>>>>> 6a1b998aacd80a23911c140f266e48a14f2d523d

