%nproc=3
%Mem=2GB
# td=(NStates=1) CAM-B3LYP/6-31G(d,p) 

TD

0 1
<<<<<<< HEAD
 8 -11.66968363596360  0.27838848724872 -1.45323248684868
 8 -13.07226806260626 -2.57642595059506  1.39205489048905
 8  10.65714123402340 -0.92574246214621 -2.12221594789479
 8  14.43908727542754 -0.97165588708871 -0.10405489288929
 6 -11.06069423662366 -0.13985794049405 -0.28917834223422
 6 -11.70058634833483 -1.07804898479848 -1.14955379567957
 6 -11.72644468746875  0.46816349914991  0.99456911191119
 6 -13.19985518921892 -1.66987714561456 -0.87370900490049
 6 -13.23192165016502 -0.02040948854885  0.92932762066207
 6 -13.53526996049605 -1.48921045884588  0.56632539983998
 6 -10.92520810951095 -1.90462588008801 -2.12951526982698
 6 -9.61006044984499  0.04482161596160 -0.46232319041904
 6 -11.13261923932393 -0.10212580858086  2.24185925302530
 6 -11.78422880318032  1.99027413051305  1.03215130683068
 6 -8.64525794749475 -0.71228927012701  0.08429716871687
 6 -7.24435242484248 -0.62768461456146  0.08806650695070
 6 -6.45860987588759 -1.88569725852585  0.53812604890489
 6 -6.57558322002200  0.54789561946195 -0.09239779497950
 6 -5.20937087868787  0.81628366506651 -0.29172350255025
 6  11.83273252015202 -0.00339030953095  1.40932046014601
 6  11.72067935803580 -0.54084023922392 -1.24198807850785
 6  12.57572480058006 -1.36767099679968  1.48920365376538
 6  13.27319200590059 -1.81845637903790  0.26877084148415
 6  12.39487442214221 -1.85964047304730 -0.89089305180518
 6  11.14693158105811  0.15222997089709  0.05399257955796
 6  10.88642004690469  0.12271891389139  2.59828216841684
 6  12.87895101180118  1.24350757155716  1.53252630363036
 6  12.64083038923892  0.43924279757976 -2.08444239203920
 6 -4.66295279097910  2.10773327932793 -0.56950179907991
 6  9.92206339383939  0.70132093489349 -0.08591976867687
 6 -3.32366752515252  2.44791354505451 -0.65651591229123
 6  8.67943772977298  1.01808814261426 -0.14850919091909
 6 -2.97983966906691  3.90055151465147 -0.80735046714671
 6 -2.31673858895890  1.51423327202720 -0.40721325602560
 6  7.55017455995600  0.18733932193219 -0.03014219831983
 6  7.75202993949395 -1.33670062216222 -0.04898497559756
 6  6.31251259925993  0.72318924922492 -0.08935287128713
 6 -0.87476160766077  1.81581070477048 -0.32166034113411
 6  5.03481508430843  0.19907902400240  0.08713008180818
 6  0.08673515251525  0.86058936883688 -0.08787789058906
 6  3.81370077777778  0.79743009340934  0.04628715971597
 6  1.42769471027103  1.24832656035604 -0.13645602650265
 6  2.50536843734373  0.34287358705871  0.10921427932793
 6  2.20768062976298 -1.23310749104910  0.26497509110911
 1 -13.24884668546855 -2.62345532333233 -1.36363158715872
 1 -13.82353757745775 -1.23035701990199 -1.61241769646965
 1 -13.66935473767377  0.28027509630963  1.98775145784578
 1 -13.80071946554656  0.57205233233323  0.17217488308831
 1 -14.52050935503550 -1.40451916531653  0.66684828912891
 1 -10.76646526342634 -2.87081386418642 -1.71181647704770
 1 -11.73478368726873 -2.16115090649065 -2.84062234843484
 1 -9.94668685218522 -1.36895610421042 -2.41478309080908
 1 -9.36522517731773  0.88684081508151 -0.91855566566657
 1 -10.07438876647665  0.10672193629363  2.29716545934593
 1 -11.56576193709371  0.19674637623762  3.15558390849085
 1 -11.31196188988899 -1.24326120262026  2.33351414111411
 1 -11.85072761526153  2.46304242624262  0.11831504750475
 1 -12.38984522392239  2.20348592409241  1.82927663946395
 1 -10.65928621072107  2.44592518301830  1.15942023552355
 1 -12.11687475997600 -2.47293016661666  1.20584506340634
 1 -9.00910175207521 -1.68741709940994  0.42144124302430
 1 -5.59258870497050 -2.40433375847585  0.03754571017102
 1 -5.92537495279528 -1.54854008660866  1.49582797899790
 1 -7.16260637123712 -2.56770904390439  0.98259441024102
 1 -7.02279359045905  1.45847417651765 -0.46689636613661
 1 -4.30353699839984 -0.03475485708571 -0.12861663736374
 1  13.44948062516252 -1.03108479587959  2.28531347194719
 1  11.96001117811781 -2.18382776277628  2.01592759245925
 1  13.59824218111811 -2.82448411341134  0.56915384128413
 1  12.98520595909591 -2.43236971547155 -1.73266636133613
 1  11.63456346454645 -2.59160828472847 -0.67985332743274
 1  11.42477208540854  0.23604397109711  3.53482852155216
 1  10.51755873357336  1.15239080218022  2.55512303650365
 1  10.35368298949895 -0.84412272677268  2.56222246344634
 1  13.62991989388939  1.20267889208921  0.65434949974997
 1  12.38172078527853  2.17935737353735  1.44368907460746
 1  13.59488532563256  1.10783526262626  2.42303878547855
 1  12.66461728122812 -0.17848445804580 -2.84876732863286
 1  11.91296836523652  1.34203629452945 -1.99853778867887
 1  13.50956178877888  0.55659171207121 -1.59070455585559
 1 -5.34535675957596  2.89870425722572 -0.94992640344034
 1  9.87222847344735 -0.14961361896190 -1.99301163696370
 1  15.02460530573057 -1.23602341674167  0.69035763506351
 1  8.42190404120412  2.01556388358836 -0.50445772297230
 1 -2.48273335753575  4.28850530023002  0.04897072677268
 1 -2.30814957925793  4.22380960576058 -1.51178428752875
 1 -3.91376776187619  4.63894207600760 -0.66338614011401
 1 -2.55411503160316  0.41075328732873 -0.36567952255226
 1  6.69928267816782 -1.87152671477148 -0.33110062536254
 1  8.39407462196220 -1.65253997879788 -0.78285906000600
 1  8.30612053365337 -1.65517784618462  0.99026278717872
 1  6.34877002410241  1.71283508890889 -0.02724474417442
 1 -0.77594895189519  3.02947699119912 -0.34746465796580
 1  5.05937192359236 -1.01235773247325  0.33527620872087
 1 -0.46579550275028 -0.16434824772477  0.09282189328933
 1  3.93545271317132  1.81515715191519 -0.14753697869787
 1  1.82708958415842  2.18407419931993 -0.43219591799180
 1  1.21768060286029 -1.49822642684268  0.44271326692669
 1  2.73975530033003 -1.63376967846785 -0.64893266326633
 1  2.85013170957096 -1.56105033403340  1.25898918551855
=======
>>>>>>> 6a1b998aacd80a23911c140f266e48a14f2d523d

