%nproc=3
%Mem=2GB
# td=(NStates=1) CAM-B3LYP/6-31G(d,p) 

TD

0 1
<<<<<<< HEAD
 8 -11.67455412301230  0.16248689708971 -1.55239240284028
 8 -13.31817265306531 -2.30127843584358  1.47554323932393
 8  10.62654817471747 -0.82391227912791 -2.11625535183518
 8  14.43873724042404 -1.05574429592959 -0.13274776217622
 6 -11.07769593679368 -0.18544249894989 -0.26858628302830
 6 -11.64572086178618 -1.24442562246225 -1.20596943724372
 6 -11.84073611661166  0.33655033783378  0.87090674567457
 6 -13.06548175187519 -1.75598575647565 -0.84216585058506
 6 -13.27273573157316  0.12180473287329  0.73198788668867
 6 -13.67245367886789 -1.33563510131013  0.41262002930293
 6 -10.93605919461946 -2.05676109360936 -2.12294461276128
 6 -9.59494893869387 -0.04721758795880 -0.33154011211121
 6 -11.15354133153315 -0.12204780078008  2.21364643174317
 6 -11.58815919621962  1.93932903600360  0.85827391909191
 6 -8.63959738143814 -0.82839088028803  0.10469920892089
 6 -7.16712470207021 -0.59830167626763  0.04047174747475
 6 -6.33933794869487 -1.79722841164116  0.42041427772777
 6 -6.63132879457946  0.57053788368837 -0.08782733793379
 6 -5.29195913751375  0.90854289098910 -0.10554488468847
 6  11.90733998089809  0.07010704020402  1.37962749084909
 6  11.66415370547055 -0.52551870707071 -1.19967384708471
 6  12.72135936403640 -1.27032126182618  1.39519425282528
 6  13.30635532223222 -1.84828936233623  0.19277324172417
 6  12.45743067776778 -1.93489799879988 -0.99602356485649
 6  11.11638852675267  0.01711645954595  0.06297347764776
 6  11.11420282518252  0.19012565456546  2.57502984318432
 6  13.08340145684569  1.17323054385439  1.27978102910291
 6  12.65128143434343  0.53067194049405 -1.94338828662866
 6 -4.75220171587159  2.11329383538354 -0.41553640254025
 6  9.95997718521852  0.55713651645164 -0.04379555625563
 6 -3.36466162456246  2.53225197889789 -0.39537979867987
 6  8.69962974897490  0.94734106790679 -0.15055939593959
 6 -3.09126081118112  3.95470693019302 -0.71986171827183
 6 -2.35055197029703  1.55343719241924 -0.16801933663366
 6  7.47756729922992  0.09346993499350  0.07283809970997
 6  7.60989572607261 -1.35366231833183  0.33792371527153
 6  6.32888423642364  0.72638956925693 -0.05055899189919
 6 -0.89244337583758  1.80523964766477 -0.19275745084508
 6  4.98501010381038  0.15905502160216  0.06612798159816
 6  0.04842132113211  0.91048435833583 -0.07038614141414
 6  3.87071647934793  0.85297564796480 -0.09494696369637
 6  1.35826776757676  1.17421914961496 -0.15367774867487
 6  2.44645254575458  0.23233253295330 -0.11226786888689
 6  2.25732559425943 -1.12117629792979  0.14965355895590
 1 -13.03527532833283 -2.83438641644164 -0.94641986598660
 1 -13.61917714141414 -1.25106909110911 -1.55022147684768
 1 -13.77740554275428  0.36136320512051  1.71762444514451
 1 -13.69165855945595  0.84622975007501 -0.07123945834583
 1 -14.81184848894890 -1.26623533693369  0.50408201250125
 1 -10.27729634653465 -2.83758054085409 -1.48709400480048
 1 -11.67233744264426 -2.20970576197620 -2.68592687888789
 1 -10.14613679717972 -1.50445965456546 -2.63034464696470
 1 -9.28158681348135  0.83122525352535 -0.73942775287529
 1 -10.20438176577658  0.35256652075207  2.41109685248525
 1 -11.79467482838284  0.08963566516652  3.03862221232123
 1 -10.90477117081708 -1.31839871637164  2.36173696339634
 1 -12.12008455095510  2.36860298229823 -0.10301708570857
 1 -11.99267550695069  2.49998557405741  1.80712442424242
 1 -10.44684496659666  2.06467705820582  0.94551884538454
 1 -12.42215528802880 -2.27813068666867  1.41459593849385
 1 -8.87370821272127 -1.69228758645865  0.73528262716272
 1 -5.54022346844684 -2.23837716281628 -0.24113215761576
 1 -5.67692010731073 -1.60772600520052  1.16846524272427
 1 -7.01071118171817 -2.56559883288329  0.64345049584959
 1 -7.29920123122312  1.43249157825783 -0.18784846134613
 1 -4.73483012771277  0.02568118651865  0.13753997829783
 1  13.47033271037104 -1.18589027642764  2.24791973257326
 1  11.89874505150515 -1.91152053205321  1.76178217791779
 1  13.61230358725873 -2.76376804180418  0.43457038293829
 1  12.90525796429643 -2.26500297879788 -1.93941703640364
 1  11.62419242744275 -2.59790891479148 -0.87467280938094
 1  11.75810541874188  0.19060942764276  3.40105514421442
 1  10.65191216891689  1.16378194129413  2.50404792899290
 1  10.27045466666667 -0.50956927142714  2.50598683988399
 1  13.70989789168917  1.09429805400540  0.41235530033003
 1  12.66536915011501  2.40235967376738  1.42594730043004
 1  14.03465930303030  1.05288976807681  1.97764424602460
 1  12.97618843834383  0.32014540494049 -3.10802325422542
 1  12.04266133453345  1.58007009790979 -2.18713664856486
 1  13.46143697629763  0.85329138203820 -1.28519400480048
 1 -5.48735095899590  3.01659604640464 -0.59081049184918
 1  9.84861611221122 -0.18679733733373 -2.04469680548055
 1  15.06423926912691 -1.03900371477148  0.68723732303230
 1  8.71152300310031  2.01839416661666 -0.34286156335634
 1 -2.48589367356736  4.60369681938194  0.00459628932893
 1 -2.40767953225323  3.99517674247425 -1.63858696779678
 1 -4.04820120522052  4.32928110991099 -0.80500030153015
 1 -2.52992261236124  0.58755096709671  0.12381942734273
 1  6.60701345124513 -1.75184474657466  0.33992647734773
 1  8.27266248074807 -1.65848057285729 -0.49233000710071
 1  8.03997391899190 -1.37539986838684  1.28038179907991
 1  6.34993014011401  1.76641044644464 -0.14672669236924
 1 -0.62805416241624  2.79438348184818 -0.51399131063106
 1  5.19312529892989 -1.03009950665067  0.22132481358136
 1 -0.33157208040804  0.00648883598360 -0.28347573647365
 1  3.70451961986199  1.80860649684968 -0.21393361836184
 1  1.86720359555956  2.08917470937094 -0.20566326472647
 1  1.06898573337334 -1.58195479967997  0.64687368296830
 1  2.64866619141914 -1.92014831633163 -0.49512728272827
 1  2.72746944334433 -1.47170139913991  1.11545483208321
=======
>>>>>>> 6a1b998aacd80a23911c140f266e48a14f2d523d

