%nproc=3
%Mem=2GB
# td=(NStates=1) CAM-B3LYP/6-31G(d,p) 

TD

0 1
 8 -11.76659332693269  0.38169881828183 -1.35558272187219
 8 -12.91024185998600 -2.60028833683368  1.36688237323732
 8  10.62342786268627 -1.04946483438344 -1.92642636893689
 8  14.43676704340434 -1.16221494299430  0.05147065966597
 6 -11.06583475067507 -0.13797775247525 -0.23873329772977
 6 -11.75605189488949 -1.07292847274727 -1.27032587288729
 6 -11.80733277627763  0.27622430523052  1.12041169616962
 6 -13.13075827952795 -1.65906606450645 -0.96149778377838
 6 -13.30815927392739 -0.18690613821382  1.11179586748675
 6 -13.54957139063906 -1.65656719451945  0.54872363966397
 6 -10.98338392709271 -1.81502692019202 -2.30894321262126
 6 -9.59093853765376  0.24695182898290 -0.30296725482548
 6 -11.12877885528553 -0.38317391339134  2.32376744384438
 6 -11.66614699499950  1.81054615771577  1.28860695239524
 6 -8.66396981868187 -0.67471551275128  0.05059379837984
 6 -7.21406939653965 -0.51651349744974  0.04107180748075
 6 -6.41384539943994 -1.82660134893489  0.24484672097210
 6 -6.51989765146515  0.68606943684368 -0.14743329852985
 6 -5.09980992259226  0.98518055475548 -0.19011334153415
 6  11.92705195209521  0.10157018651865  1.27578710681068
 6  11.70039732983298 -0.61888804400440 -1.11261514121412
 6  12.56752398049805 -1.32877710741074  1.58635336873687
 6  13.28634332103210 -1.82060659405941  0.37815177957796
 6  12.35289022372237 -1.91234574357436 -0.77770173267327
 6  11.06531341924192  0.01402615051505 -0.03438625832583
 6  11.01559296419642  0.47477411941194  2.55772811301130
 6  12.91430454715472  1.32602582338234  1.31624467546755
 6  12.66038234443444  0.34516338963896 -1.92109605740574
 6 -4.65032152785278  2.23354586058606 -0.47852270117012
 6  9.90749193669367  0.55185598839884  0.01247007030703
 6 -3.28917407580758  2.52535128882888 -0.47284754545455
 6  8.65429521552155  0.97589392319232 -0.18914325432543
 6 -2.93155484058406  3.96914837433743 -0.75846557865787
 6 -2.37329424452445  1.65387723642364 -0.29005153985399
 6  7.50085962846285  0.16792738073807  0.05625644154415
 6  7.61823656015602 -1.25685263736374  0.46578650155015
 6  6.13870521852185  0.72541947224722 -0.20823475947595
 6 -0.96009014051405  1.86844596829683 -0.41472964806481
 6  4.95108671147115  0.13660277637764 -0.23934256545655
 6  0.08070454945495  0.89132244214421 -0.29476857965797
 6  3.77930733843384  0.83094344474447 -0.30893836283628
 6  1.42732467326733  1.19812153985399 -0.34629701060106
 6  2.48263616411641  0.30497979767977 -0.14585122722272
 6  2.33292315401540 -1.20783496379638  0.08600719431943
 1 -13.22097389818982 -2.81102408020802 -1.29709493349335
 1 -13.98930415411541 -1.13463744794480 -1.58304475917592
 1 -13.68091589378938 -0.19207213841384  2.03626630933093
 1 -13.84222361596160  0.53630875797580  0.56001366696670
 1 -14.66830413451345 -1.90914962836284  0.81614321862186
 1 -10.91785040194019 -2.90474725752575 -2.09236453185319
 1 -11.44668487738774 -1.68963375477548 -3.23503178937894
 1 -10.00068225172517 -1.37072628122812 -2.39731134363436
 1 -9.39556821162116  1.30804293529353 -0.50905471557156
 1 -10.02600392799280  0.14619588368837  2.23521926472647
 1 -11.66069143004300 -0.05536883528353  3.27397574767477
 1 -11.07283797749775 -1.39978685518552  2.41837262696270
 1 -12.08978152065207  2.25265138713871  0.47340055605561
 1 -12.32050829022902  2.26213178867887  1.90046375817582
 1 -10.73200348244825  2.24158474897490  1.32680697419742
 1 -11.95245831833183 -2.84235710931093  1.11893637253725
 1 -8.96196703860386 -1.57645600330033  0.25366446534653
 1 -5.72543198929893 -2.25846917201720 -0.53804184858486
 1 -5.72367478277828 -1.67891312391239  1.09166756295630
 1 -7.03879398999900 -2.62423469646965  0.72874902570257
 1 -7.09785109620962  1.48367669676968 -0.35908558505851
 1 -4.40070671537154  0.09522814121412  0.21323754805481
 1  13.21108678577858 -1.23425511291129  2.48720366096610
 1  11.67217239423942 -1.90968034803480  1.82727872757276
 1  13.74384674157416 -2.97667933293329  0.49097602350235
 1  12.96836427492749 -2.30740721922192 -1.58979207390739
 1  11.58241825002500 -2.73648277217722 -0.81537687978798
 1  11.62509211741174  0.51345171187119  3.33435847454746
 1  10.51019799749975  1.42669823292329  2.35513303750375
 1  10.31713933513351 -0.36799511401140  2.60249649084908
 1  13.77212411431143  1.28838746294629  0.52315638043804
 1  12.33399601280128  2.27521695949595  1.34920962666267
 1  13.40231606870687  1.36344082318232  2.16401288288829
 1  13.06486730623062 -0.41069767936794 -2.74960741264126
 1  11.98879594799480  1.18606069696970 -2.19770770567057
 1  13.60149098169817  0.69826587948795 -1.37100258565857
 1 -5.28005022892289  3.06850123692369 -0.77573898469847
 1  10.07300855145515 -0.40263892149215 -2.27192952875287
 1  15.00367321252125 -1.20826064046405  0.71678027732773
 1  8.45233708450845  1.93405573277328 -0.44934221142114
 1 -2.16140122432243  4.48844529422942 -0.09968413871387
 1 -2.46625538983898  4.19090631543154 -1.77767087618762
 1 -3.79030541564156  4.60774895669567 -0.45510531203120
 1 -2.44877449754976  0.50633284528453 -0.29080203480348
 1  6.80687343724372 -2.02635219731973  0.53866635133513
 1  8.30362557705770 -1.78820354515452 -0.21515228932893
 1  7.99369929152915 -1.27407973637364  1.60696445734573
 1  6.16345149224922  1.76150995639564 -0.85878789848985
 1 -0.64948630563056  2.86657070057006 -0.50875078657866
 1  4.89020500690069 -0.95234173087309 -0.17904522342234
 1 -0.36590551375138 -0.06501831473147  0.18283089418942
 1  3.76970613851385  1.94016965316532 -0.35770799579958
 1  1.58273514871487  2.20811660356036 -0.69863256165617
 1  1.27569640444044 -1.60455705990599  0.23538253385338
 1  2.92511383618362 -1.74436073757376 -0.62647041704170
 1  2.87617431383138 -1.86172040104010  0.95584887148715

