%nproc=3
%Mem=2GB
# td=(NStates=1) CAM-B3LYP/6-31G(d,p) 

TD

0 1
 8 -11.72727939553955  0.29933058145815 -1.42657982158216
 8 -13.05333616941694 -2.52584089208921  1.38956464146415
 8  10.55670119001900 -0.99627951585159 -2.12406613291329
 8  14.48478184488449 -0.98224694619462 -0.14342883028303
 6 -11.01213938113811 -0.13844779947995 -0.22695211961196
 6 -11.70083637333733 -1.08471965186519 -1.24867370767077
 6 -11.80778282128213  0.33001968476848  0.96203585858586
 6 -12.97392259595960 -1.79271942984298 -0.91846348034803
 6 -13.33764222222222 -0.07712516011601  0.81441612951295
 6 -13.54896132963296 -1.48515005280528  0.41169993729373
 6 -10.75602119081908 -1.77735315281528 -2.19439175747575
 6 -9.50615005880588  0.05227236103610 -0.31738869696970
 6 -11.18337431483148 -0.10441603760376  2.34385945304530
 6 -11.79141952225222  1.89859496259626  1.02547063876388
 6 -8.58096151785178 -0.70747878907891  0.12003074207421
 6 -7.22911090069007 -0.50669251535154  0.20066776707671
 6 -6.22398641354135 -1.74374306310631  0.46685892219222
 6 -6.58344400610061  0.66906773667367 -0.18244679987999
 6 -5.18336827842784  0.90171220792079 -0.20270460066007
 6  11.92522176907691  0.01789181868187  1.26709623772377
 6  11.57230452055206 -0.61615777097710 -1.24582846254625
 6  12.67867509560956 -1.39289351905191  1.51271600500050
 6  13.33083777047705 -1.81086561996200  0.22735670007001
 6  12.29880481518152 -1.89793430243024 -0.82480644314431
 6  11.04100098799880 -0.02406765886589  0.07704488478848
 6  11.03630503540354  0.17371401340134  2.50802314251425
 6  13.07995111181118  1.12916613741374  1.24317736873687
 6  12.45727203340334  0.53923279657966 -2.04252820062006
 6 -4.69975647134713  2.17772027802780 -0.45524037293729
 6  9.89672085958596  0.41726252905290  0.03679250255026
 6 -3.27294245264526  2.48678743244324 -0.63211347204720
 6  8.65350513651365  1.02296863066307 -0.17555189518952
 6 -2.94228591369137  3.89457091659166 -1.01317104920492
 6 -2.28665558065807  1.51638348704870 -0.28751128582858
 6  7.44369391189119  0.27889847784778 -0.01322050615062
 6  7.59867460396040 -1.21830878297830  0.14168409130913
 6  6.17649899789979  0.90987791809181  0.02418848284828
 6 -1.00854498599860  1.68040716441644 -0.40511868696870
 6  4.93910551335134  0.22090120622062  0.15590695949595
 6 -0.01705522652265  0.82174548444844 -0.06757586038604
 6  3.65684509220922  0.92778312871287  0.10124265526553
 6  1.36959890069007  1.08378010571057 -0.04240662156216
 6  2.45683358385839  0.31064036373637  0.11496485438544
 6  2.44185404710471 -1.21913609390939  0.34444303790379
 1 -12.91964376517652 -2.84284726252625 -1.02796802080208
 1 -13.69178440214021 -1.51064504870487 -1.79456591129113
 1 -13.87121492369237  0.01768883768377  1.77828051075107
 1 -13.90459985358536  0.63301842894289  0.25536320192019
 1 -14.59724702880288 -1.50814952835284  0.29650125442544
 1 -10.32350096699670 -2.76130291309131 -1.88306360176018
 1 -11.31917212611261 -1.83077786918692 -3.21652993919392
 1 -9.88686086958696 -0.97128633723372 -2.23637525002500
 1 -9.39482813761376  1.05658778977898 -0.81695550565056
 1 -10.18431975957596  0.42029329342934  2.49092483528353
 1 -11.74392975387539  0.17137383898390  3.02247059715972
 1 -11.01180187388739 -1.23759063556356  2.41489227892789
 1 -11.96575911841184  2.26540266226623  0.11370458645865
 1 -12.37782402180218  2.11955753125313  1.82830654245425
 1 -10.75085536763676  2.27875846634664  1.26864115761576
 1 -12.02464553705370 -2.55103797739774  1.30351483038304
 1 -8.92841368326833 -1.82114047174717  0.33458255715572
 1 -6.26076552265226 -2.47552087718772 -0.81380942534253
 1 -5.19057147244724 -1.33017825042504  0.71772016821682
 1 -6.58519863046305 -2.63623589658966  1.48380453125313
 1 -7.26222753385338  1.48508683778378 -0.36223590009001
 1 -4.33663030773077  0.16317493589359 -0.05171894759476
 1  13.45910158725873 -1.02218390579058  2.22778771937194
 1  11.90409558655866 -2.09685906590659  2.07437343704370
 1  13.94897725462546 -2.86940860586059  0.23245017091709
 1  12.65681311981198 -2.51039751825183 -1.65853894859486
 1  11.61603161136114 -2.59351847574757 -0.54501984408441
 1  11.70551015921592  0.16513688038804  3.33922896159616
 1  10.18515549324932  0.95927149024902  2.63328085228523
 1  10.26509413061306 -0.84781309580958  2.45994223542354
 1  13.83814071597160  0.97723634783478  0.57158122292229
 1  12.84889750295030  2.26148558635864  1.13166787248725
 1  13.38329416651665  0.99523400250025  2.44307078867887
 1  12.66263708320832  0.06667005740574 -2.95219767166717
 1  11.94544161256126  1.47314940584058 -2.23925186008601
 1  13.36376720932093  0.83136918981898 -1.68166365176518
 1 -5.32712493639364  2.97714210101010 -0.72957436823682
 1  9.94832608320832 -0.15535419301930 -2.03606594239424
 1  15.01543438863886 -1.01095090949095  0.82768136743674
 1  8.53508535933593  2.13642596979698 -0.12240951815182
 1 -2.44828991319132  4.37767421712171 -0.10868503880388
 1 -2.30549931423142  4.00606783158316 -1.82269537863786
 1 -3.71819820492049  4.66693487528753 -1.08051785328533
 1 -2.52980260036004  0.44863707570757 -0.00467342194219
 1  6.69473222312231 -1.70906046814681  0.42592507720772
 1  8.09961517601760 -1.74931965676568 -0.83811458555856
 1  8.55442536413641 -1.22738506690669  0.83639740064006
 1  6.03290843794379  2.04635844124412 -0.32704472417242
 1 -0.54139549654965  2.68163220672067 -0.62810272177218
 1  4.98021400780078 -0.85630212691269  0.05808848994899
 1 -0.39194811801180 -0.19712152505251  0.31389400050005
 1  3.94464363226323  1.95132076827683 -0.05044726972697
 1  1.50473734893489  2.21134692659266 -0.28487118551855
 1  1.37552638743874 -1.68587519171917  0.30556955255526
 1  3.21321264606461 -1.84144044554455 -0.38525629562956
 1  2.74121081748175 -1.50199442844284  1.47462074867487

