%nproc=3
%Mem=2GB
# td=(NStates=1) CAM-B3LYP/6-31G(d,p) 

TD

0 1
<<<<<<< HEAD
 8 -11.51011767936794  0.21123177157716 -1.58211537513751
 8 -13.07516835263526 -2.46037434543454  1.31164684968497
 8  10.63858937883788 -1.05073496139614 -2.08705243154315
 8  14.34562792949295 -1.19752847434743 -0.00674516191619
 6 -11.02686085328533 -0.14318827352735 -0.39035846024602
 6 -11.53603989368937 -1.21337251715172 -1.22523136343634
 6 -11.75745778877888  0.36008269106911  0.94573422842284
 6 -12.94334953865387 -1.81767192509251 -0.95953758775878
 6 -13.20103856185619 -0.09051649924993  0.86334102200220
 6 -13.50832726622662 -1.52631416921692  0.48791755905591
 6 -10.71014660336034 -2.01484690219022 -2.23142546084608
 6 -9.55207465126513  0.10378751255126 -0.25175213331333
 6 -11.13052903030303 -0.15789138513851  2.22121718881888
 6 -11.79332971327133  1.90357546064606  0.93337142884288
 6 -8.66044946664666 -0.78838687988799  0.22112085108511
 6 -7.07211520112011 -0.52020386648665  0.18021572187219
 6 -6.24874888978898 -1.82032072087209  0.46463870017002
 6 -6.64864052575258  0.70798162806281 -0.08586714191419
 6 -5.23086302790279  1.02502453915392 -0.19106343654365
 6  11.97347659455946  0.14551458095810  1.34239376747675
 6  11.58570586068607 -0.56801295649565 -1.28178205790579
 6  12.55885311341134 -1.23564779447945  1.56427116051605
 6  13.23150783748375 -1.90801533493349  0.34756872127213
 6  12.33534846954695 -1.92146665566557 -0.86331029352935
 6  11.00286717461746  0.11430617851785  0.00261744204420
 6  10.94490589548955  0.52899954195420  2.52666500670067
 6  12.87304042074207  1.27313053385339  1.12609566056606
 6  12.60238654485449  0.34477335063506 -2.01324527232723
 6 -4.70073656935693  2.30120262626263 -0.28172302120212
 6  9.85789697719772  0.61172197499750 -0.06187736443644
 6 -3.34732989138914  2.65296405010501 -0.37634789548955
 6  8.55345513151315  0.93935026882688 -0.23148748874887
 6 -2.99356104120412  4.05214667416742 -0.46451618371837
 6 -2.29567648274827  1.66218806750675 -0.34776731143114
 6  7.45715525802580  0.05255584358436 -0.13704288838884
 6  7.70083481998200 -1.38420537263726  0.24594451735174
 6  6.16294764276428  0.60822775307531 -0.16728066406641
 6 -0.93664779627963  1.94089321302130 -0.20489866496650
 6  4.89188079087909 -0.02221310521052 -0.02044067526753
 6  0.05099157815782  0.96868017791779 -0.01929103190319
 6  3.83422282998300  0.75308565896590 -0.12735020402040
 6  1.42706464726473  1.25010673837384 -0.08770115101510
 6  2.44172207270727  0.33831313101310  0.08156151405141
 6  2.21250111181118 -1.21643582388239  0.13674226782678
 1 -12.86219802060206 -2.84222720052005 -1.09549477347735
 1 -13.56209143284328 -1.39826381058106 -1.69214566926693
 1 -13.82017982018202  0.02340940974097  2.04382706540654
 1 -13.80642003560356  0.48081320842084  0.20925859145915
 1 -14.53504080818082 -1.76571528492849  0.39982158645865
 1 -10.49574819171917 -3.01366814961496 -1.98754404980498
 1 -11.13962417131713 -2.02255704710471 -3.26756504270427
 1 -9.80978316181618 -1.36734594319432 -2.39142075457546
 1 -9.22752140694070  1.37128925992599 -0.39105291539154
 1 -10.13272460006001  0.36538780288029  2.20103584638464
 1 -11.80573593449345 -0.04768806720672  3.09787813791379
 1 -11.04920561426142 -1.32446932343234  2.17084787448745
 1 -12.39022156465647  2.43597971997200  0.11018423442344
 1 -12.23148938833883  2.35538111361136  1.80204391619162
 1 -10.94531481358136  2.49704029452945  1.17324161766177
 1 -12.17928100060006 -2.71323419701970  1.21591607050705
 1 -8.83839468136814 -1.87524588228823  0.46940603950395
 1 -5.66841628772877 -2.32093541864186 -0.46534457885789
 1 -5.43521593689369 -1.56276150875087  1.33252164836484
 1 -6.93347345794580 -2.57015928892889  0.98611476227623
 1 -7.37306861796180  1.49632796189619 -0.33587326382638
 1 -4.75282192689269  0.25345396379638  0.16145236953695
 1  13.39434511161116 -1.14367605500550  2.38741368196820
 1  11.81429660666067 -2.03444282428243  1.98082408210821
 1  13.53891624852485 -2.95438710371037  0.47323424932493
 1  12.85290272877288 -2.25676215471547 -1.62822591729173
 1  11.53772378057806 -2.84187331123112 -0.70757609970997
 1  11.66348595679568  0.36658702540254  3.30737577627763
 1  10.64076105380538  1.51450701380138  2.17481500570057
 1  10.16540416161616 -0.18561687618762  2.52245848704870
 1  13.76812371427143  1.24301292549255  0.42617668246825
 1  12.12055466866687  2.14152359015902  0.91603630933093
 1  13.23031886898690  1.40311479057906  2.25734221582158
 1  12.90439125862586 -0.28650526012601 -2.85736818871887
 1  12.10942801120112  1.23519561046105 -2.54446238113811
 1  13.43812464506451  0.46745279817982 -1.39693517891789
 1 -5.74043626752675  2.99750413721372 -0.39532094289429
 1  10.18267951855186 -0.36331498909891 -2.41240357615762
 1  14.98628147334733 -1.13304311871187  0.76696529582958
 1  8.27478932973297  2.00563289048905 -0.53806108330833
 1 -2.31184626882688  4.47369381908191  0.21410724042404
 1 -2.55724448874887  4.28013523832383 -1.55788889798980
 1 -3.82202858795880  4.74751293309331 -0.44877467896790
 1 -2.52135175527553  0.64470668266827 -0.67424037863786
 1  6.90316306620662 -2.14112367446745  0.34589707440744
 1  8.37353256775678 -1.78316304110411 -0.32299307340734
 1  8.12702262386239 -1.53233556195620  1.14910867176718
 1  6.21089623672367  1.67999180458046 -0.46095811551155
 1 -0.64240559755976  3.01977602110211 -0.09105901740174
 1  4.80307629402940 -1.04376087278728 -0.06446376527653
 1 -0.26528545174518 -0.04675648854885  0.22152476357636
 1  4.02342151005100  1.73505914211421 -0.28164038903890
 1  1.76423329852985  2.28091388328833 -0.30858355675568
 1  1.17196603140314 -1.21322792699270  0.20224922052205
 1  2.57995932073207 -1.75299160066007 -0.73914168416842
 1  2.69237593399340 -1.72042627162716  1.00741402800280
=======
>>>>>>> 6a1b998aacd80a23911c140f266e48a14f2d523d

