%nproc=3
%Mem=2GB
# td=(NStates=1) CAM-B3LYP/6-31G(d,p) 

TD

0 1
 8 -11.71793846144614  0.19780042844284 -1.66588375197520
 8 -13.13766460226023 -2.35121342934293  1.52992867786779
 8  10.49631515141514 -1.03019290719072 -2.00424415071507
 8  14.51423479017902 -0.84983370487049 -0.49103359075908
 6 -11.09745791299130 -0.15472942764276 -0.41467089148915
 6 -11.67460375007501 -1.17996917681768 -1.25144398469847
 6 -11.74255629862986  0.42857954075408  0.84520417541754
 6 -13.00830603430343 -1.83840399829983 -0.87159879387939
 6 -13.24066252425242 -0.00417786538654  0.72317700560056
 6 -13.60839727322732 -1.46477801560156  0.47149591689169
 6 -10.86381196989699 -2.13220863836384 -2.11091340964096
 6 -9.55764520832083  0.07718485228523 -0.46778373647365
 6 -11.09750572797280 -0.02628822482248  2.12349741684168
 6 -11.79786016631663  1.92078718181818  0.76893498519852
 6 -8.70431385308531 -0.68570661186119  0.10732947194719
 6 -7.19584757435744 -0.48077992409241  0.21327902820282
 6 -6.50725474037404 -1.75114380318032  0.69687192349235
 6 -6.56494215591559  0.59992082198220 -0.23514206940694
 6 -5.17267720932093  0.84846688338834 -0.14891922212221
 6  11.95975522242224 -0.03679364986499  1.31179070717072
 6  11.50802809290929 -0.58137429262926 -1.26943082278228
 6  12.88259548764876 -1.25455968566857  1.40459519291929
 6  13.50329501620162 -1.61672620602060  0.07511147554755
 6  12.45348028272827 -1.79194370337034 -1.03511747424742
 6  11.04009089698970 -0.03204845694569  0.11296847714771
 6  11.17434883978398 -0.01391474947495  2.57258959915992
 6  12.84749786648665  1.27669088988899  1.34253730473047
 6  12.36859316551655  0.48719759305931 -2.05107905570557
 6 -4.71721821752175  2.17627013301330 -0.45767061596160
 6  9.83499468696870  0.44118492129213  0.13501232453245
 6 -3.39216437483748  2.56611536523652 -0.47218747944794
 6  8.65377516351635  0.83889022282228 -0.05071941194119
 6 -3.11394307940794  4.01337279677968 -0.47795752785279
 6 -2.33625054015402  1.69704155285529 -0.34867740244024
 6  7.47802734523452  0.14559514751475  0.17139795569557
 6  7.65529026552655 -1.40588754085409  0.45796571947195
 6  6.30116146414641  0.68153508380838 -0.01533546954695
 6 -0.91593572507251  1.89188831253125 -0.18268644374437
 6  5.01947355015502  0.05741485758576  0.20056142494249
 6  0.08280475947595  0.99014232413241 -0.11085018781878
 6  3.79467887558756  0.77720807120712 -0.00235770477048
 6  1.49727166796680  1.13019474717472 -0.18633101400140
 6  2.47735563606361  0.24196349604960 -0.01051769386939
 6  2.37089695139514 -1.19607378767877  0.36011460506051
 1 -12.75123692449245 -2.89857283508351 -1.03366859085909
 1 -13.80126535023502 -1.44684866906691 -1.58997545224522
 1 -13.84111191339134  0.37398446724672  1.74632731543154
 1 -13.69643903750375  0.64586971407141 -0.13430576497650
 1 -14.63711101520152 -1.54265297869787  0.37806941124112
 1 -10.48773739063906 -2.98028481128113 -1.59812510791079
 1 -11.39943015191519 -2.52930772217222 -3.07564585078508
 1 -9.93427561106111 -1.80097930653065 -2.40138175067507
 1 -9.16445510031003  1.08618074907491 -1.05748955905591
 1 -10.04028535613561  0.54211547564756  2.37956369916992
 1 -11.70699606050605  0.23111981358136  2.95875422552255
 1 -10.98221891559156 -1.00483736023602  2.05039582928293
 1 -12.14682722522252  2.26056217821782 -0.26604338833883
 1 -12.37916415581558  2.47347292279228  1.58810252205221
 1 -10.84749503160316  2.42776336683668  0.82262655615561
 1 -12.12930600310031 -2.48718159175918  1.21602608150815
 1 -9.21577241914192 -1.48237659535954  0.68962806170617
 1 -5.92652209830983 -2.34847817291729 -0.25772381678168
 1 -5.38784119941994 -1.74311954455446  1.29103749994999
 1 -7.02759286988699 -2.37857013001300  1.34457060786079
 1 -7.41833314441444  1.39211754085409 -0.19668934543454
 1 -4.48060470517052  0.27300591899190  0.38952517681768
 1  13.76090176727673 -1.04324601200120  1.95803074367437
 1  12.32379755675568 -2.10820020002000  1.72175817551755
 1  13.89237159405941 -2.64769643464346  0.12260918681868
 1  12.86304374287429 -2.07216369486949 -2.10118321302130
 1  11.66230623882388 -2.64389351325132 -0.80333567566757
 1  11.96782639083908  0.05965633233323  3.45034007270727
 1  10.28571554925492  0.74783034613461  2.63176070027003
 1  10.75280290149015 -1.10510882538254  2.68665490669067
 1  13.58733563546355  1.32708133233323  0.42983704850485
 1  11.92804541774177  2.22125156295630  1.40104481018102
 1  13.66178201530153  1.37816229532953  2.14760124172417
 1  12.70564138363836  0.13464685508551 -3.05399785168517
 1  11.63191025942594  1.35328741964196 -2.03772170707071
 1  13.40624145674567  0.80287634053405 -1.70169565496550
 1 -5.32332455635563  2.83214760156016 -0.74731614241424
 1  9.97232848344835 -0.26443510111011 -2.18274060986099
 1  15.08731157635764 -0.72489230363036  0.20643924322432
 1  8.52723457425743  1.87399972717272 -0.30179745694569
 1 -2.73662874707471  4.51557800750075  0.36236206590659
 1 -2.43958272257226  4.17335456025603 -1.36110922002200
 1 -3.97066345144514  4.57151533333333 -0.62898269976998
 1 -2.61163078317832  0.57838005000500 -0.62367532213221
 1  6.69774252415242 -2.01195075717572  0.18426091079108
 1  8.21480669516952 -1.84494921972197 -0.41954272837284
 1  8.01633155475548 -1.51331365976598  1.27123088398840
 1  6.28176332343234  1.84214802020202 -0.17273929362936
 1 -0.66752810981098  2.99507355085509 -0.23286319781978
 1  5.11980796719672 -1.03933042974297  0.33284596569657
 1 -0.38373729692969 -0.00438225112511  0.10230284138414
 1  3.73625279317932  1.86983261946195 -0.21151337633763
 1  1.94387126232623  2.29390518241824 -0.16004870327033
 1  1.24978381318132 -1.54634123832383  0.44357335293529
 1  3.00911223602360 -1.82289859135914 -0.29559732973297
 1  2.52188888528853 -1.29177340634063  1.37865115171517

