%nproc=3
%Mem=2GB
# td=(NStates=1) CAM-B3LYP/6-31G(d,p) 

TD

0 1
 8 -11.61002767036704  0.21333198159816 -1.57349451305131
 8 -12.78559939573957 -2.45887419541954  1.54661034603460
 8  10.55599111901190 -0.92625251315132 -2.06774050035003
 8  14.49126249294929 -1.06920564206421  0.03380889348935
 6 -10.96629479667967 -0.12818677337734 -0.27482690709071
 6 -11.56710300000000 -1.22523370327033 -1.22139097939794
 6 -11.86352839583958  0.34537121992199  0.93575323032303
 6 -12.93763896759676 -1.85906606450645 -0.81232286628663
 6 -13.30143860186019 -0.13141058865887  0.88744343224322
 6 -13.49410584408441 -1.58520005780578  0.56447521482148
 6 -10.61341693039304 -1.99024444194419 -2.14860717901790
 6 -9.49489893369337  0.11250838463846 -0.27428438653865
 6 -11.03893987138714 -0.03854945094509  2.28973404050405
 6 -11.76960734103410  1.94024912801280  0.89970806250625
 6 -8.59375279697970 -0.78539658085809  0.10885962496250
 6 -7.12366035563556 -0.65242708880888  0.25319301960196
 6 -6.31436545144514 -1.78455714451445  0.37337957425743
 6 -6.57285294699470  0.64545537543754  0.03286473127313
 6 -5.21944188578858  0.90139217591759 -0.22514684488449
 6  11.84919416631663 -0.05701567206721  1.45695522362236
 6  11.60692798289829 -0.58189434463446 -1.17551143084308
 6  12.49202643074307 -1.44267849754976  1.57843257665767
 6  13.25282996969697 -1.89989452285228  0.28933289768977
 6  12.36438137283728 -1.84138864786479 -0.98786274877488
 6  11.09028591649165  0.04739948784879  0.06868404870487
 6  10.93930533543354  0.22570921292129  2.62382472267227
 6  12.98162127882788  1.19081230203020  1.43882693369337
 6  12.44089039523952  0.36786565986599 -1.91911585938594
 6 -4.73149964566457  2.19192169816982 -0.25513036193619
 6  9.84427561506151  0.52136293909391  0.06586540984098
 6 -3.43985914431443  2.59228798249825 -0.49339960066007
 6  8.60724051005100  0.91923825762576 -0.19824416441644
 6 -3.12823450855086  4.02585404490449 -0.63100283238324
 6 -2.26514342944294  1.70372222092209 -0.46914944964496
 6  7.42684222672267  0.12249283728373  0.03940475637564
 6  7.56615135163516 -1.43155010711071  0.08664858775878
 6  6.17174852285229  0.76106303660366 -0.17799173517352
 6 -0.94274840634063  2.07780690439044 -0.40553872897290
 6  4.91516311911191  0.20276939303930 -0.15035366656666
 6  0.05961244024402  1.06104941484148 -0.13980308310831
 6  3.73039244694469  0.94417476787679 -0.28750621962196
 6  1.32181412221222  1.25670739843984 -0.29223160406041
 6  2.46672457295730  0.33874317401740 -0.25339198129813
 6  2.22312217391739 -1.08887306760676  0.03955254885489
 1 -12.85527732853285 -2.88686166396640 -1.04545976997700
 1 -13.69954517821782 -1.64444842904290 -1.47942439713971
 1 -13.70656845904590  0.09297636643664  1.89750243294329
 1 -13.77800719431943  0.61904703180318  0.12100976657666
 1 -14.52973027712771 -1.71368008140814  0.63424502880288
 1 -10.54145276217622 -3.14437121992199 -1.57139243464346
 1 -11.29986019491949 -2.09089388078808 -3.21067935413541
 1 -9.71258344184418 -1.51021022962296 -2.45289690219022
 1 -9.11725037983799  0.93304543554355 -0.59903371347135
 1 -10.12427375497550  0.50842210631063  2.38207395019502
 1 -11.43088844974497  0.28028473007301  3.15065341544154
 1 -10.87847854155415 -1.16942381888189  2.31708249794979
 1 -11.87652019451945  2.32137825982598 -0.17958474247425
 1 -12.71533777317732  2.03681925742574  1.56383009480948
 1 -10.85279556165617  2.31140173067307  1.40567486098610
 1 -11.82590566306631 -2.20795366896690  1.44300877977798
 1 -8.93575441734173 -1.74061241894189  0.32511161006101
 1 -5.78907835393539 -2.10480380548055 -0.66528457285729
 1 -5.30212262756276 -1.72078731133113  1.04475287148715
 1 -6.81433154375437 -2.57819009200920  0.63241939273927
 1 -7.39311062216222  1.54263259235924  0.20727105060506
 1 -4.55500214491449  0.03832245064506 -0.64862863856386
 1  13.01307698479848 -1.73619530693069  2.52109705030503
 1  11.61104628162816 -2.22020140014001  1.56226222592259
 1  13.53109546644664 -2.97528919391939  0.62178910481048
 1  13.09323676217622 -2.30820729922992 -1.79829292399240
 1  11.59330933913391 -2.60110923482348 -0.80529587168717
 1  11.41081068926893 -0.16270590389039  3.60629566826683
 1  10.68391536923692  1.22031759485949  2.80463798799880
 1  9.80688831003100 -0.40326864136414  2.60553679487949
 1  13.74968187008701  1.06070469466947  0.57905196999700
 1  12.26420903410341  2.00522996079608  1.36392109780978
 1  13.47458329542954  0.97912239133913  2.40202668426843
 1  12.95442626212621 -0.01317792739274 -2.82791524342434
 1  11.94474154255426  1.33199529042904 -2.17198513341334
 1  13.29955078767877  0.65215126802680 -1.27202268766877
 1 -5.49255147904791  2.88799318611861 -0.28062947374737
 1  10.16263751435144 -0.03951260886089 -2.08273060886089
 1  15.20664350955095 -1.17847766216622  0.71810040934093
 1  8.57244909570957  1.99056138333833 -0.35797307450745
 1 -2.75588067226723  4.59977642734273  0.22080791049105
 1 -2.38605737003700  4.12886011081108 -1.41421453055306
 1 -4.16661304640464  4.57363554535454 -1.07728753025302
 1 -2.42729234933493  0.67561977397740 -0.11759471407141
 1  6.52520527042704 -1.88605816791679 -0.11292880818082
 1  8.30066528102810 -1.80502522732273 -0.56417719181918
 1  7.80709063066307 -1.75550787918792  1.12020578147815
 1  6.34331947904790  1.81385519091909 -0.21949396909691
 1 -0.54605596259626  3.07509155265527 -0.41741165266527
 1  5.11150713711371 -0.72146864356436  0.11381406250625
 1 -0.64325324852485  0.05077326442644  0.00722333343334
 1  3.87982715061506  1.95275091129113 -0.42457468246825
 1  1.63472034723472  2.27630342224222 -0.35541824022402
 1  1.24834366916692 -1.42422902710271 -0.03039404380438
 1  2.98692001680168 -1.67088338983898 -0.57439520952095
 1  2.53952064846485 -1.28620284928493  1.07870115671567

