%nproc=3
%Mem=2GB
# td=(NStates=1) CAM-B3LYP/6-31G(d,p) 

TD

0 1
 8 -11.70763743134313  0.28919956835684 -1.38251541514151
 8 -13.05997683348335 -2.61121942994299  1.42044772977298
 8  10.63488900880088 -0.91393128102810 -2.01330505680568
 8  14.51111447814782 -0.98191691319132 -0.04331881928193
 6 -10.97243541074107 -0.16145009970997 -0.23766319071907
 6 -11.74636092579258 -1.04253543344334 -1.20097893819382
 6 -11.71184322732273  0.33830051285129  1.08056771177118
 6 -13.08601380508051 -1.65884604250425 -0.87335896989699
 6 -13.18195665366537 -0.01510895849585  1.02855754365437
 6 -13.46286271977198 -1.45788732653265  0.56720548784878
 6 -10.91123671237124 -1.71590700820082 -2.26189850815082
 6 -9.58011745554555  0.10993812761276 -0.36887384548455
 6 -11.11249722712271 -0.33084868086809  2.30817588468847
 6 -11.50214059435944  1.83668877197720  1.13730182188219
 6 -8.68712213391339 -0.71691973317332  0.01623036203620
 6 -7.24391238083808 -0.53304515061506  0.07750545084508
 6 -6.36275028992899 -1.65364405320532  0.32421465776578
 6 -6.68218388008801  0.73603443334333 -0.17290584578458
 6 -5.27451739333933  0.96236827352735 -0.30286461666167
 6  11.98288753565357  0.04560458995900  1.40818034613461
 6  11.69714700480048 -0.50779693489349 -1.21788566826683
 6  12.51772900100010 -1.34597882758276  1.53060779417942
 6  13.37922260896090 -1.76722125552555  0.32342630703070
 6  12.48262319701970 -1.83613812281228 -1.00031399389939
 6  11.10616750465046  0.06844159205921  0.05669284958496
 6  10.98770017491749  0.28793543554355  2.56820916111611
 6  12.99865298199820  1.24399762056206  1.31781483248325
 6  12.59710601680168  0.44029290259026 -1.94250819861986
 6 -4.74981147684769  2.14383688968897 -0.51164601350135
 6  9.85034622212221  0.60049085188519  0.02621144444444
 6 -3.39029418781878  2.46328508220822 -0.63416367706771
 6  8.60140992699270  0.96445277907791 -0.11611595159516
 6 -2.97721940704070  3.83548500800080 -1.02451218331833
 6 -2.34884179927993  1.50894274297430 -0.23022555725573
 6  7.43486302880288  0.11969255725573  0.06209702560256
 6  7.71930666716672 -1.43221017311731  0.13693361626163
 6  6.14825617361736  0.58405533583358 -0.14771870787079
 6 -1.00507463896390  1.91775089878988 -0.36060423552355
 6  4.87713931673167  0.04571368746875  0.03475484428443
 6 -0.00415393639364  0.89435274517452 -0.17061616441644
 6  3.74905431313131  0.70759110951095 -0.19992746174617
 6  1.46053799459946  1.10927265496550 -0.24137651855186
 6  2.40637853835383  0.22291159085909 -0.06888353045305
 6  2.22779264096410 -1.14224840514051  0.39449804340434
 1 -12.85978777957796 -2.66316929472947 -1.01359658365837
 1 -13.85548077177718 -1.40768475267527 -1.77292374707471
 1 -13.74974277647765  0.17272434123412  2.03919660236024
 1 -13.65673506710671  0.57650277737774  0.23634129972997
 1 -14.45349265336534 -1.56787550095009  0.59567117141714
 1 -10.39573819071907 -2.75219200200020 -1.99835513091309
 1 -11.51891210011001 -1.99144393579358 -3.04769305550555
 1 -10.13423560706071 -1.26945615421542 -2.63845545804580
 1 -9.42632128692869  1.15391752275228 -0.80748455855585
 1 -10.08516984458446  0.11160242434243  2.49120486328633
 1 -11.64050941184118 -0.09457275567557  3.13532188228823
 1 -10.99140983468347 -1.35264214071407  2.39117990769077
 1 -11.86937948044804  2.30417653965397  0.30961417741774
 1 -11.76147238663866  2.33469904540454  2.14153786558656
 1 -10.49441972407241  1.84286487698770  1.19453374687469
 1 -12.14211728422842 -2.77762063566357  1.30789526842684
 1 -8.89049989188919 -1.77392575027503  0.31676077497750
 1 -5.31722116821682 -1.72294561966197 -0.45546359075908
 1 -5.79555197049705 -1.83633886648665  1.42207060326033
 1 -6.91141125172517 -2.56795906890689  0.41399755055506
 1 -7.09811112221222  1.72888121722172 -0.15819549604961
 1 -4.66745339003900  0.13199181758176 -0.41541531723172
 1  13.20963664076408 -1.08190987838784  2.37613255385539
 1  11.61154633163316 -2.00685006500650  1.82286828652865
 1  13.70589294619462 -2.73500516551655  0.41470839673967
 1  12.68895633413341 -2.35823230173017 -1.92742583728373
 1  11.56680668886889 -2.40562968686869 -0.53192853495350
 1  11.68381798999900  0.09474984168417  3.59276431513151
 1  10.61179815751575  1.19126468956896  2.57697522172217
 1  9.96144376557656 -0.49175749024902  2.63854009520952
 1  13.63060996289629  1.16941556575658  0.47305136993699
 1  12.40331294449445  2.23418285608561  1.36865157085709
 1  13.56363220032003  1.45345982508251  2.32679916151615
 1  12.85974679417942  0.09990338073807 -3.03652610451045
 1  12.04311137953795  1.43005509640964 -2.06949488438844
 1  13.53522435503550  0.57168322122212 -1.47218270367037
 1 -5.40904312821282  3.11990637743774 -0.73472488328833
 1  10.04563581418142 -0.24971362896290 -2.16070840664066
 1  15.13672651785178 -1.14437425182518  0.80833943324332
 1  8.46321817261726  2.01280360756076 -0.31680895809581
 1 -2.21330641484148  4.37198364806481 -0.14012818311831
 1 -2.42848161246125  4.07424464926493 -1.91885499459946
 1 -3.97698408350835  4.47999618141814 -0.93681348284829
 1 -2.57719733983398  0.47965017701770  0.23933097849785
 1  6.76479922982298 -2.06945650775077  0.07402988768877
 1  8.45443065756576 -1.79650437523752 -0.54265503960396
 1  8.04464438603860 -1.84467679607961  1.24365812671267
 1  6.30634578167817  1.56110991639164 -0.49869188888889
 1 -0.58743010001000  3.02661670517052 -0.47788770027003
 1  4.89950593699370 -1.04727122382238  0.34837751885189
 1 -0.33773269646965 -0.09815162806281  0.08960157125713
 1  4.03255242314231  1.79223485968597 -0.48721094609461
 1  1.57332420762076  2.12569836173617 -0.41658435683568
 1  0.97105594039404 -1.46327293149315  0.51776077167717
 1  2.49218054285429 -1.89268557005701 -0.30268803880388
 1  2.78486518291829 -1.23084731373137  1.36090937753775

