%nproc=3
%Mem=2GB
# td=(NStates=1) CAM-B3LYP/6-31G(d,p) 

TD

0 1
 8 -11.72215888348835  0.18160880928093 -1.59111627522752
 8 -13.26632746854686 -2.33359166716672  1.47455314031403
 8  10.58888440834083 -0.96407629552955 -2.06929065536554
 8  14.47290065676568 -0.98079680118012 -0.09343383078308
 6 -11.00681884908491 -0.13516747144714 -0.31183060746075
 6 -11.63392968266827 -1.18284946484648 -1.20411925222522
 6 -11.82553459645965  0.45385206800680  0.85967562256226
 6 -13.05420062376238 -1.71733189108911 -0.94681631563156
 6 -13.36880533853385  0.08717126952695  0.72713740164016
 6 -13.59155558905891 -1.41544308210821  0.40785955325533
 6 -10.78608419711971 -2.06569198669867 -2.14612693099310
 6 -9.52331177497750  0.03546067986799 -0.36674363246325
 6 -11.11423740114011 -0.18900449644964  2.17448251535154
 6 -11.63880426072607  1.90429553265327  0.97526561826183
 6 -8.57162058375838 -0.76400444164416  0.21400013901390
 6 -7.16229421902190 -0.52150399649965  0.11656935723572
 6 -6.38875289018902 -1.69544823362336  0.64187642394239
 6 -6.70205586728673  0.72503333323332 -0.03805236043604
 6 -5.35373531513151  0.96876891359136 -0.17761209140914
 6  11.95813506040604  0.08104813431343  1.39403893199320
 6  11.68529581968197 -0.53239939513951 -1.22307618731873
 6  12.69909713781378 -1.21122535223522  1.59284401780178
 6  13.28034272097210 -1.77046157955796  0.20265422982298
 6  12.36011094579458 -1.87010151915192 -0.98801276377638
 6  11.11532842074207  0.06862161006101  0.04635181548155
 6  10.98764016891689  0.27132377437744  2.52435477567757
 6  12.99021213791379  1.24749797059706  1.39537258825883
 6  12.52565887208721  0.42052092539254 -1.95326927472747
 6 -4.68715521122112  2.13741624762476 -0.31777662656266
 6  9.94221540904091  0.47364816761676  0.05391421472147
 6 -3.28528368676868  2.46203495719572 -0.38445870657066
 6  8.70052983898390  0.95804213801380 -0.21719605960596
 6 -2.89039072417242  3.88230969046905 -0.54287401950195
 6 -2.31928884398440  1.46131798049805 -0.27053958865887
 6  7.46189573207321  0.12421300930093 -0.11821100520052
 6  7.65384012051205 -1.36848380048005  0.02799272217222
 6  6.28780012801280  0.73742067236724 -0.06670060606061
 6 -0.95119925142514  1.76595571927193 -0.19093726882688
 6  5.01389299209921  0.11485060116012 -0.15465409660966
 6  0.02953943294329  0.80892420232023 -0.01999110191019
 6  3.78971837953795  0.79339969036904 -0.26665413441344
 6  1.37032897369737  1.12960468816882 -0.15379776067607
 6  2.44552245274527  0.26299559925993 -0.09845648774877
 6  2.27815767746775 -1.22049622992299  0.26840543414341
 1 -12.96065786658666 -2.68466144394439 -1.14209943394339
 1 -13.83864908860886 -1.38252223642364 -1.73011946664667
 1 -13.81990979317932  0.37355442424242  1.80375305800580
 1 -13.84911430503050  0.44914004110411 -0.07982031643164
 1 -14.70847815191519 -1.58317703110311  0.52866447074707
 1 -10.89343796069607 -2.97459424222422 -1.60297559295930
 1 -11.19942015091509 -1.95837062846285 -3.25081336753675
 1 -9.77633981748175 -1.59136834543454 -1.99063067556756
 1 -9.29424807960796  0.85542767376738 -1.16998080818082
 1 -10.02133346094609  0.27718898299830  2.07012275507551
 1 -11.50324568546855  0.34852155375538  2.80962931303130
 1 -11.12518321202120 -1.32693957045705  2.28610940064006
 1 -12.02627517001700  2.46021214321432  0.22944616061606
 1 -12.02869910931093  2.25979155465546  2.05818953075308
 1 -10.42621290339034  1.96594718521852  1.13289758325833
 1 -12.48580165266527 -2.68972184578458  1.17533201210121
 1 -8.89568040994099 -1.73138149584958  0.61947104600460
 1 -5.74704415051505 -2.04878820392039 -0.17940598499850
 1 -5.85815823112311 -1.50777601020102  1.40347874407441
 1 -6.91518162876288 -2.62875514851485  0.75180133093309
 1 -7.39098040914091  1.59110743984398 -0.32787246374637
 1 -4.81753839853985  0.00900951935194 -0.06516029172917
 1  13.36345202230223 -0.78285997339734  2.25314025462546
 1  12.01130630763076 -2.08816819681968  1.97216321602160
 1  13.76194855175518 -2.83877554255425  0.39366629252925
 1  13.04104154265426 -2.08171464996500 -1.78748184288429
 1  11.60660066826683 -2.65262438633863 -0.92180752285229
 1  11.33608321652165 -0.02205183848385  3.69786482518252
 1  10.59555653335334  1.25703126622662  2.30585811001100
 1  10.01303892509251 -0.40475879037904  2.44621086228623
 1  13.71689859175918  1.09312793699370  0.69757382218222
 1  12.58895150835083  2.23184262206221  1.13957866356636
 1  13.26600243734373  1.17151163026303  2.55822230383038
 1  12.82608342784278  0.14132752315232 -3.09405185708571
 1  11.94901196959696  1.43543563446345 -2.17058499339934
 1  13.46608744134413  0.69998605150515 -1.38590407580758
 1 -5.36409863376338  3.07573195999600 -0.38596000680068
 1  10.21382263286329 -0.21157981558156 -2.36413874967497
 1  14.99882272747275 -0.82139195359536  0.55152375167517
 1  8.88567041784179  2.13389571677168 -0.34588186538654
 1 -2.30838592279228  4.38072452215222  0.18268409810981
 1 -1.98871763606361  3.85814303910391 -1.36192930203020
 1 -3.83250963606361  4.41242942474247 -0.83029283078308
 1 -2.51775139523952  0.45452766476648 -0.04228718331833
 1  6.60011276117612 -1.72414197629763  0.00827331203120
 1  8.57423263776378 -1.81960668546855 -0.35244601870187
 1  7.95266518811881 -1.41531385978598  0.92051581248125
 1  6.07746289338934  1.75129893529353 -0.43417543724372
 1 -0.75253661066107  2.64848889238924 -0.04725463696370
 1  4.93090907730773 -0.83527002370237  0.06311899299930
 1 -0.49549847304730 -0.23448526142614  0.11876448754875
 1  3.86462563046305  1.82684832103210 -0.75329755475548
 1  1.60965784098410  2.14955074697470 -0.48500119851985
 1  1.14886372117212 -1.53823042724272  0.44252324792479
 1  2.85421674647465 -1.74448074957496 -0.46912468246825
 1  2.85140183658366 -1.23400762976298  1.35342862946295

