%nproc=3
%Mem=2GB
# td=(NStates=1) CAM-B3LYP/6-31G(d,p) 

TD

0 1
<<<<<<< HEAD
 8 -11.74015068266827  0.32763341174117 -1.57917508110811
 8 -13.20598143394339 -2.27529583758376  1.53798948394839
 8  10.65409092899290 -0.84451433933393 -2.19266299259926
 8  14.67535090179018 -0.84787350885089 -0.17985247264726
 6 -11.05849401660166 -0.10438439313931 -0.32379180358036
 6 -11.74240052975297 -1.15259643954395 -1.18205704600460
 6 -11.81814385738574  0.53263994679468  0.86878653365337
 6 -13.12798800250025 -1.77479763766377 -0.88899053305331
 6 -13.32742120012001  0.22661521392139  0.89103379127913
 6 -13.67943437693769 -1.22162370017002  0.55091385868587
 6 -10.79253484218422 -2.01903732123212 -1.98453077137714
 6 -9.60994043784378  0.08318545234523 -0.36290324842484
 6 -11.17609358675868  0.17753215721572  2.31258632573257
 6 -11.64421480178018  2.08180328342834  0.68269636133613
 6 -8.72604602630263 -0.81585962716272  0.05512425142514
 6 -7.28440643024302 -0.75975782188219  0.17210491079108
 6 -6.43335735063506 -1.95971466026603  0.40727296359636
 6 -6.68311397309731  0.41717254715472 -0.12355091029103
 6 -5.28220816241624  0.73932596929693 -0.22755708590859
 6  12.06121536843684  0.04664469396940  1.35744527262726
 6  11.72387967806781 -0.38649480468047 -1.34697857755776
 6  12.91815904400440 -1.30120435013501  1.47953268666867
 6  13.54375906260626 -1.60000453385339  0.04791875627563
 6  12.50859579427943 -1.68957346634663 -1.05675963846385
 6  11.15011189908991  0.09172392029203  0.08220540084008
 6  11.13464486938694  0.10935757775778  2.61605394559456
 6  12.95114823152315  1.30174339513951  1.42121517251725
 6  12.51410771697170  0.73637251055106 -1.98936288408841
 6 -4.76209270497050  2.00162266826683 -0.42452730163016
 6  9.92463365086509  0.43022382518252  0.21366018931893
 6 -3.40938609700970  2.34596335003500 -0.47210747144714
 6  8.66946673267327  0.82733906770677  0.07602326232623
 6 -3.06874855995600  3.83975543504350 -0.70476020812081
 6 -2.37770468556856  1.43916576527653 -0.31495403010301
 6  7.51841138363836  0.03800438843884  0.10895171107111
 6  7.57433216971697 -1.54664161626163  0.37077700060006
 6  6.26543789178918  0.62549948024802  0.03806987098710
 6 -1.00411454295430  1.74930405410541 -0.28073624872487
 6  4.95237684048405  0.08677779387939  0.09613098189819
 6  0.01273775277528  0.68467177707771 -0.26905600840084
 6  3.67177658535854  0.77686803720372 -0.03391086008601
 6  1.35930787158716  1.09738146584658 -0.19815219611961
 6  2.45993389388939  0.23457275697570 -0.00699734183418
 6  2.42966282798280 -1.30769494979498  0.10555914951495
 1 -12.95786758755876 -2.88120109790979 -0.95818104210421
 1 -13.86017124082408 -1.28104208840884 -1.55273172787279
 1 -13.57179498169817  0.56326339513951  1.85875855855586
 1 -13.69835922952295  0.82416754385439  0.03054071967197
 1 -14.88096540064006 -1.43752246564657  0.45151675597560
 1 -10.56964558145815 -2.92576935973597 -1.45030032543254
 1 -11.28059826872687 -2.31752654405441 -3.01182946914691
 1 -9.91853403690369 -1.46618582718272 -2.29120073257326
 1 -9.22287094189419  0.97755988698870 -0.87787159725973
 1 -10.11479280688069  0.58283954805481  2.50968671147115
 1 -11.83284864576458  0.66606330793079  2.98946729682968
 1 -11.12325301900190 -0.88140501700170  2.42420321002100
 1 -12.32470501300130  2.45566168816882 -0.12066885088509
 1 -12.30269650905091  2.65618119361936  1.50870458225823
 1 -10.52063234533453  2.58759935043504  0.50130442394239
 1 -12.17198027052705 -2.20555342894289  1.60742522142214
 1 -9.37203804570457 -1.59339769746975  0.52506160506051
 1 -6.27399684578458 -2.41528485358536 -0.64810285468547
 1 -5.44877729302930 -1.70288552115212  0.98004640084008
 1 -7.03221333193319 -2.80611288428843  0.72984913571357
 1 -7.36300761186119  1.37818614771477 -0.50731040754075
 1 -4.58236488118812 -0.04177555915592 -0.26002977867787
 1  13.53923960106011 -1.07921960936094  2.29563450405041
 1  12.36252142914291 -2.30546992699270  1.70807680738074
 1  13.82650500740074 -2.75749741474147  0.22294922082208
 1  12.94386182468247 -1.79962644114411 -2.10992408710871
 1  11.74765477367737 -2.53124224812481 -0.78748409050905
 1  11.88056766496650 -0.35916554985499  3.42621766046605
 1  10.60309728742874  1.01856741984198  2.73830135433543
 1  10.25189281048105 -0.61293960846085  2.49755599679968
 1  13.74551145304530  1.46892551675168  0.78067213201320
 1  12.35154776797680  2.20623006080608  1.61964667036704
 1  13.41441727882788  1.26925140424042  2.38123460506051
 1  12.79762058155816  0.43236662706271 -3.12230468236824
 1  11.98704577297730  1.75475756665667 -1.93376131103110
 1  13.24374520712071  1.02304835773577 -1.50196568196820
 1 -5.51025324922492  2.70248463526353 -0.64433584438444
 1  10.04967621822182  0.02487382978298 -2.37305964176418
 1  15.30395324052405 -0.94758457285729  0.54776337563756
 1  8.24681653245325  1.87408973617362  0.03600632343234
 1 -2.34888997319732  4.18158460816082 -0.14144831513151
 1 -2.52254101840184  4.03311053585359 -1.54487759685969
 1 -3.97528391349135  4.63603178497850 -0.61942174367437
 1 -2.46290591069107  0.35954816681668 -0.13452640724072
 1  6.81199394929493 -2.00600016211621 -0.20423793909391
 1  8.18913412791279 -2.06378110291029 -0.40711148524852
 1  7.82745266686669 -1.84695702410241  1.34100786168617
 1  6.34785993309331  1.82065587098710  0.02391037133713
 1 -0.80555191219122  2.91304534803480 -0.18320823232323
 1  4.90033602000200 -0.93624012071207  0.21320400150015
 1 -0.30509943314331 -0.40183199609961 -0.37141453035304
 1  4.06098526642664  1.84388002420242 -0.02851507650765
 1  1.73958083328333  2.05816160806081 -0.22841553995400
 1  1.50145898069807 -1.91286789098910  0.49473846944695
 1  2.77808913371337 -1.76849315081508 -0.96486425642564
 1  3.09010570697070 -1.63894812381238  0.92745603220322
=======
>>>>>>> 6a1b998aacd80a23911c140f266e48a14f2d523d

