%nproc=3
%Mem=2GB
# td=(NStates=1) CAM-B3LYP/6-31G(d,p) 

TD

0 1
 8 -11.62460912851285  0.16446709510951 -1.64432159575958
 8 -13.08232906870687 -2.41208951695170  1.40535622062206
 8  10.69177469736974 -0.99501938983898 -2.17762148844884
 8  14.48994236093609 -1.04790351185119  0.13589910251025
 6 -10.99576774397440 -0.12548650335033 -0.38241766616662
 6 -11.65583187288729 -1.22302348224822 -1.21167000730073
 6 -11.74645668866887  0.34358104090409  0.87725738073807
 6 -13.08400360406041 -1.78777893579358 -0.98218985298530
 6 -13.22256071407141 -0.08693614121412  0.89910459835984
 6 -13.61438787228723 -1.45345688348835  0.50463923122312
 6 -10.71677726642664 -2.04086950445044 -2.08551086938694
 6 -9.55463490729073  0.17436457025703 -0.27325428352835
 6 -11.13579955735574 -0.18482407840784  2.25771083818382
 6 -11.82681306160616  1.93257836093609  1.05445353705371
 6 -8.63951737343734 -0.73122116331633  0.05926466546655
 6 -7.22951094069407 -0.51961380748075  0.19482718301830
 6 -6.38475249014901 -1.81591027982798  0.56181841814181
 6 -6.59633529522952  0.67459828972897 -0.04911346654665
 6 -5.21443138473847  0.87119915661566  0.13843951375138
 6  11.81614086098610 -0.04454442494249  1.43343287138714
 6  11.73285057515752 -0.59874602980298 -1.10607448714871
 6  12.55864309240924 -1.34143837353735  1.64226896029603
 6  13.32436712341234 -1.89823435683568  0.38735269966997
 6  12.53543847854785 -1.82317682668267 -0.87867182968297
 6  10.99844673257326  0.02240698859886  0.15019219951995
 6  10.87990939583958  0.28279492149215  2.60241258145815
 6  12.86204932163216  1.14482770357036  1.42973602460246
 6  12.61901820802080  0.32589146244624 -2.00895484328433
 6 -4.62436893259326  2.17766027202720 -0.25888073697370
 6  9.81315250275028  0.54439524232423 -0.08565974267427
 6 -3.28797395579558  2.56365511921192 -0.32223248394839
 6  8.57876766276628  1.05966230003000 -0.41777611761176
 6 -3.15927761286129  3.94397585708571 -0.70060979307931
 6 -2.27779469456946  1.59339118781878 -0.16515905060506
 6  7.35330487298730  0.09124971297130 -0.29525870997100
 6  7.61342607910791 -1.33655060716072 -0.12889296639664
 6  6.15426677467747  0.86977390769077 -0.28007194319432
 6 -0.88899303080308  1.86017514121412 -0.34770294539454
 6  5.03440504330433  0.14806392249225 -0.16294492569257
 6  0.05265174417442  0.97650095999600 -0.23501260406041
 6  3.84386379407941  0.93575392579258 -0.19208667766777
 6  1.46067800860086  1.25064679237924 -0.17881026192619
 6  2.55270317081708  0.36478577827783 -0.11929857195720
 6  2.38260812251225 -1.10937511781178  0.11451004460446
 1 -13.13693549434944 -2.84228720652065 -1.03754897889789
 1 -13.63630885458546 -1.09855383958396 -1.74995144984498
 1 -13.85086288848885  0.43600066886689  1.76977966066607
 1 -13.63880327392739  0.49587471457146  0.25733339893989
 1 -14.67306461056106 -1.79145785918592  0.44480608490849
 1 -10.63069168606861 -3.13214999779978 -1.51063635903590
 1 -11.46953716261626 -2.61061585298530 -2.85272355855586
 1 -9.83580576407641 -1.49174838343834 -2.48377999049905
 1 -9.32736139093909  1.18906103710371 -0.76515032513251
 1 -10.16216754435444  0.25924718881888  2.35181092389239
 1 -11.71332669356936  0.48983568516852  3.21758010811081
 1 -11.18524921862186 -1.18964584108411  2.48151894159416
 1 -12.11441398389839  2.43267938993899  0.14414763076308
 1 -12.30378661806181  2.02993856935694  1.88145185698570
 1 -10.75428571067107  2.24855544604460  1.27307160066007
 1 -11.93187626012601 -2.22893576717672  1.34558903780378
 1 -8.90086092799280 -1.66739509720972  0.55953505240524
 1 -5.58489793589359 -1.81973529862986 -0.16999504390439
 1 -5.93840625592559 -1.92144737733773  1.50949934613461
 1 -7.03059316991699 -2.97054932793279  0.19980613141314
 1 -7.28634994609461  1.39071740084008 -0.27429710621062
 1 -4.65721236593659  0.03827244564456  0.70132635693569
 1  13.04246992409241 -1.36019770717072  2.53577851845185
 1  11.92238741574158 -2.13288266826683  1.69200520022002
 1  13.72099445634563 -2.82627429242924  0.55429235513551
 1  13.22535997449745 -2.19421590009001 -1.67181027572757
 1  11.78930893909391 -2.73444256815682 -0.93478882098210
 1  11.30801040924093  0.50462082878288  3.60592563126313
 1  10.20934791249125  1.16799236233623  2.34447197139714
 1  10.11489911111111 -0.60235855035504  2.55247148834883
 1  13.80868777067707  1.07799642384238  0.70149421422142
 1  12.36231884508451  2.07199663746375  1.18663336903690
 1  13.32771860896089  1.14552903200320  2.54244072567257
 1  12.95288610811081 -0.16515312491249 -2.97476992889289
 1  11.95527259565957  1.22910500140014 -2.29344727962796
 1  13.40181101370137  0.59445549844985 -1.42840832623262
 1 -5.28172039593959  2.96803118991899 -0.43987539833983
 1  10.00650190079008 -0.21678033563356 -2.18938127392739
 1  14.98459130433043 -0.75014482888289  1.06321492079208
 1  8.26917876867687  2.01528385558556 -0.62490976817682
 1 -2.27832291649165  4.30001645134513 -0.00218438873887
 1 -2.73693245754575  4.01073829862986 -1.84202731183118
 1 -3.97121350645065  4.61431961376138 -0.61326112761276
 1 -2.58534815491549  0.61526373837384 -0.23340629522952
 1  6.83054580448045 -1.97597715981598 -0.50491800710071
 1  8.39908512301230 -1.73304802960296 -0.66294706880688
 1  7.74339426102610 -1.57913024142414  0.92155591649165
 1  5.97641278837884  1.99647345274527 -0.11288330803080
 1 -0.60229158615862  2.87424146764676 -0.54486439793979
 1  4.84864085048505 -0.98221471817182 -0.14764208310831
 1 -0.04601352455246 -0.03099491239124 -0.39586697559756
 1  4.03684285218522  1.93403904010401 -0.19743196819682
 1  1.72892976817682  2.15142093399340 -0.24990768916892
 1  1.33896273107311 -1.44231083528353 -0.14873587798780
 1  3.12686401120112 -1.68620492199220 -0.63743151315132
 1  2.72427912431243 -1.30241447044705  1.16527981458146

