%nproc=3
%Mem=2GB
# td=(NStates=1) CAM-B3LYP/6-31G(d,p) 

TD

0 1
<<<<<<< HEAD
 8 -11.74975164276428  0.12530317871787 -1.81120828442844
 8 -13.03296413221322 -2.25400370837084  1.45567125212521
 8  10.59222474237424 -1.20043993189319 -2.10541426772677
 8  14.57712107880788 -0.92144086558656 -0.28212269966997
 6 -11.16820498769877 -0.24929888458846 -0.50528995339534
 6 -11.66634292399240 -1.18829000890089 -1.37661650195020
 6 -11.85512755575557  0.41548823162316  0.77459711471147
 6 -13.05128033173317 -1.88108826672667 -0.91256289028903
 6 -13.28959741774177  0.04980753315332  0.69900458835884
 6 -13.49320575407541 -1.39416095389539  0.37207597489749
 6 -10.87291287998800 -2.13563898139814 -2.19949226752675
 6 -9.60186963076308  0.07195432923292 -0.50002696079608
 6 -11.14580055745575  0.08547295129513  2.06586165326533
 6 -11.62629300960096  1.98166326942694  0.57388548024802
 6 -8.75047846954695 -0.83483152435244  0.23826256525653
 6 -7.27395538513851 -0.67615946204620  0.21642934323432
 6 -6.53353736863686 -1.85982467126713  0.88226046234623
 6 -6.67161282298230  0.57026785668567 -0.09861841704170
 6 -5.26518646024603  0.85144718141814 -0.10648497869787
 6  11.99001824872487  0.00904093359336  1.37743727182718
 6  11.60646793689369 -0.60492664786479 -1.32786666636664
 6  12.84281150925093 -1.23962819251925  1.37561229462946
 6  13.51322600930093 -1.77160169356936  0.09248321272127
 6  12.41163609830983 -1.91260576957696 -1.02485644814481
 6  11.11708859675968 -0.05592084418442  0.05714289458946
 6  11.08401980688069  0.04336097809781  2.58500084028403
 6  12.92342545924592  1.26122934373437  1.29391244224422
 6  12.36005231143114  0.41585045834583 -2.11424537233723
 6 -4.72989948564856  2.13019552555255 -0.25741058995900
 6  9.89864105160516  0.50292109490949 -0.06728790549055
 6 -3.36276143454345  2.44952370607061 -0.22468272897290
 6  8.61637142314231  0.82258859265927 -0.32500684068407
 6 -3.10348203330333  3.96203766326633 -0.40496022812281
 6 -2.26953386848685  1.52748459715972 -0.08286082078208
 6  7.49039858235824  0.21087167516752 -0.08261744584458
 6  7.61519625612561 -1.32463941604160  0.14817474037404
 6  6.28462981098110  0.87824475477548 -0.12241617761776
 6 -0.95566969846985  1.98717784148415 -0.10836901200120
 6  5.06370797359736  0.26916603270327  0.08617998679868
 6  0.05865234423442  0.99956326622662  0.17280817801780
 6  3.88054746244624  0.94037438783878 -0.01481895089509
 6  1.41146308710871  1.38368009570957  0.12330995009501
 6  2.48737663816382  0.40538983868387  0.20848420632063
 6  2.37973783548355 -1.06648082838284  0.52722131573157
 1 -13.17284908570857 -2.97991096889689 -0.91645686968697
 1 -13.86671189488949 -1.64932891709171 -1.88476493119312
 1 -13.89949775197520  0.10329739853985  1.66070875357536
 1 -13.77848724232423  0.58718384548455 -0.15465780018002
 1 -14.54978228232823 -1.64557327072707  0.33845544984498
 1 -10.56617523442344 -3.16293307610761 -1.83059835523552
 1 -11.52874308320832 -2.19366415781578 -3.16847513371337
 1 -10.02520470397040 -1.54618382698270 -2.47305891839184
 1 -9.09065772057206  0.86400853185319 -0.83206701680168
 1 -10.32741406900690  0.71160242434243  2.04789053185319
 1 -11.85160052095209  0.52195889748975  2.88005635573557
 1 -11.03640433413341 -0.98189506600660  2.35688647834783
 1 -12.16062860536054  2.15459158115812 -0.31967875187519
 1 -12.23073931333133  2.63942951845185  1.29813352515252
 1 -10.54800508260826  2.37729832033203  0.52919721322132
 1 -12.11504457695770 -2.50734360796080  0.88240271917192
 1 -9.16929777167717 -1.83136149384938  0.87345644454445
 1 -5.92842228832883 -2.47257058215822  0.30398235383538
 1 -5.76177859315932 -1.63173840644064  1.68279667586759
 1 -7.15098520912091 -2.56562883588359  1.28041419221922
 1 -7.28128944004400  1.26410473957396 -0.23461313781378
 1 -4.44352099679968  0.05510412881288  0.29363558785879
 1  13.49336501360136 -1.34762645004500  2.18057299789979
 1  12.21983716071607 -2.17114649464947  1.81972797249725
 1  13.94218657555755 -2.72931459645965  0.49354628052805
 1  12.99223666216622 -2.23448992749275 -2.03940703540354
 1  11.83049305750575 -2.76730585448545 -0.72086742884288
 1  11.70994060226023 -0.17866750005000  3.50642568126813
 1  10.63836081378138  1.17378294139414  2.62364988918892
 1  10.13382100330033 -0.64452276677668  2.55186142734273
 1  13.60913781568157  1.05272389658966  0.49181324612461
 1  12.25044765796580  2.22748218601860  1.38470317601760
 1  13.65028086518652  1.23582806190619  2.12093857545755
 1  12.62372319181918  0.00386377677768 -3.11326377827783
 1  11.88079514791479  1.45419751065106 -2.13052098699870
 1  13.50780161276128  0.47798385128513 -1.95701118651865
 1 -5.49079130303030  2.88259264606461 -0.19942135293529
 1  9.94005525612561 -0.46921557915792 -2.44245658145815
 1  15.21274411961196 -0.87098691309131  0.39578817811781
 1  8.38756060686069  1.89228155535554 -0.51130840804080
 1 -2.32498758295830  4.41618806850685  0.36231206090609
 1 -2.51185995029503  4.28229545434543 -1.34764787388739
 1 -4.06503288838884  4.49211739353935 -0.44416421792179
 1 -2.51581120122012  0.51461367336734  0.18731577697770
 1  6.59776252615262 -1.88455801790179  0.09287177187719
 1  8.37580279477948 -1.56939166396640 -0.67788856295630
 1  8.13344326592659 -1.46381871027103  1.00304406530653
 1  6.29808495559556  1.99356316171617 -0.39604162386239
 1 -0.60313167016702  2.98241228472847 -0.52877278877888
 1  5.14526051245124 -0.86008250495049  0.34676735783578
 1  0.01135221202120 -0.09698151105110  0.38030064116412
 1  4.09253842174217  1.90093572977298 -0.38848107310731
 1  1.78013488868887  2.25447123902390 -0.24461716011601
 1  1.15722455725573 -0.95625222942294  1.03704269986999
 1  2.33892521732173 -1.69945624712471 -0.62386015601560
 1  3.07660435683568 -1.32456668566857  1.36953023962396
=======
>>>>>>> 6a1b998aacd80a23911c140f266e48a14f2d523d

