%nproc=4
%Mem=2GB
# td=(NStates=1) B3LYP/SVP 

TD

0 1
 8 -5.49162452425243 -0.00584646964697 -3.30940377317732
 8  2.68494532063206  3.17857358075808  3.10010627502750
 8  3.10427116491649  0.96498150725073  3.46691865306531
 8  1.60941507740774 -7.19295519991999  1.50641105090509
 8  0.47066381578158 -6.93946485048505 -0.48868279947995
 8  2.01983544284428  4.05721868886889 -0.16094783038304
 7 -2.29815041774177 -0.80567557415742  0.57352387948795
 7 -4.39392329622962  0.66134038263826 -1.24475640774077
 7  1.82566229332933 -0.65421740274027 -0.41114255235524
 7  2.72257352775278  1.88445689578958 -0.50493796879688
 6 -4.88491073737374  1.23197337673767  0.06222667916792
 6 -4.49935454085409  0.29652607030703  1.21205326602660
 6 -2.95587904410441  0.10504538693869  1.32749808990899
 6 -2.00729577387739  0.61137328432843  2.15192599079908
 6 -0.72646653415342  0.04870631213121  1.86674543674367
 6 -1.03311768676868 -0.88325343444344  0.75729243754375
 6 -6.29063516091609  1.33537529342934 -0.16105451925193
 6  0.52523600690069  0.25624354745475  2.50881555035504
 6 -6.67629006070607  0.89711201640164 -1.36808766646665
 6 -0.21622736473647 -1.80044534563456  0.10412758845885
 6  1.07711062226223 -1.90038255085509 -0.32656144934493
 6 -5.49354741284128  0.40054974817482 -2.09310875167517
 6  1.85443131303130 -2.93931750775077 -0.95085040164016
 6 -2.26322306350635  1.68829056105611  3.16614525452545
 6 -7.17997999019902  1.98719425542554  0.87075768966897
 6  3.06502203050305 -2.42038406270627 -1.31513267036704
 6  0.98779555215522  1.72348549074907  2.44772999139914
 6  2.98736527752775 -0.98744818421842 -1.04518814981498
 6  1.39970550845084 -4.31999637923792 -0.86443491739174
 6 -8.00887760866087  0.90208477287729 -2.08562328432843
 6  1.79710140024002 -5.07328357075708  0.32727905440544
 6  4.32058977537754 -3.07691895769577 -1.83838583598360
 6  4.00607955015502  0.03473513531353 -1.21405160026003
 6  2.39426204160416  1.94346852115212  3.06334623972397
 6  3.86012053795380  1.40292954925493 -1.02639841054105
 6 -9.15327350035004  0.79322716651665 -1.41259002160216
 6  1.19359666806681 -6.49267799729973  0.37607840054005
 6  4.91251531643164  2.42508456345635 -1.41148487498750
 6  4.15228086258626  3.57073123332333 -1.16172574387439
 6  2.83139189518952  3.24093579497950 -0.52280082708271
 6  6.21123912831283  2.15837770917092 -1.96456798559856
 6  4.56878767216722  5.11266278347835 -1.41554422632263
 6  7.05851340274027  3.08329475087509 -2.41644631273127
 1 -4.38664661536154  2.26939198409841  0.48570811281128
 1 -4.84859328842884 -0.73781877297730  1.16956820512051
 1 -4.88241836103610  0.69565379447945  2.14578671317132
 1 -2.88083549394939 -1.34944180168017 -0.12941533283328
 1 -3.38907460076008  0.62928600480048 -1.64882207950795
 1  0.60134671897190 -0.22170219671967  3.63757909010901
 1  1.33672211621162 -0.23181306530653  2.04436275667567
 1 -0.92844333683368 -2.70281824512451 -0.01607178877888
 1 -3.45748790079008  1.57592417771777  3.31903807140714
 1 -1.70488534793479  1.33680230773077  4.02279200380038
 1 -2.17002980228023  2.70889952575258  2.48806096009601
 1 -6.71280517561756  2.72196114821482  1.50491861066107
 1 -7.42514522282228  1.05653198159816  1.57830025262526
 1 -7.83252174347435  2.49973214331433  0.16705570277028
 1  0.99281146244624  2.05808841684168  1.56512652025203
 1  0.39833387348735  2.67568565636564  3.11597195169517
 1  1.68833445174517  0.43012940314031 -0.32641486758676
 1  1.76819507810781 -4.80595611881188 -1.91316937913791
 1  0.35650373077308 -4.76437635103510 -0.89423219291929
 1 -7.84411973697370  0.60105273927393 -3.16266717871787
 1  1.23642658275828 -4.67244154845485  1.17443713131313
 1  3.00379142204220 -5.31602808180818  0.45768970737074
 1  4.21362580638064 -4.05842337083708 -1.89497855045505
 1  5.41338345984598 -2.95911479227923 -1.24178910041004
 1  4.41651874817482 -2.65540759635964 -2.90017033933393
 1  5.21214402150215 -0.28642275107511 -1.52007869606961
 1 -9.30845036723673  0.88967986518652 -0.35369605580558
 1 -9.95671383648365  0.66858123652365 -1.95693543524352
 1  3.56788321972197  3.21997456605661  3.51774995719572
 1  6.33808881448145  1.04280848734873 -2.31225872907291
 1  4.90415142534253  5.47554064606461 -2.38010506550655
 1  3.79233723782378  5.83404047394740 -0.95327841104110
 1  5.45493726522652  5.41167762236224 -0.62116386448645
 1  1.10085762426243 -8.06090733323332  1.19157883098310
 1  7.93622490429043  2.80685799209921 -2.97551631383138
 1  7.00458190249025  4.24028159945995 -2.22104499359936

