%nproc=4
%Mem=2GB
# td=(NStates=1) B3LYP/SVP 

TD

0 1
 8 -5.53841920372037  0.18164227922792 -3.32901573437344
 8  2.75514234033403  3.09662538593859  3.40908717311731
 8  3.02207294509451  0.98571358045805  3.38452041324132
 8  1.83059719561956 -7.23681958635864  1.40478088788879
 8  0.31015776517652 -6.89013991799180 -0.29539347054705
 8  2.04252771207121  4.02730569756976 -0.14063579917992
 7 -2.44489509220922 -0.91505651225123  0.51096762386239
 7 -4.51174507840784  0.62405665426543 -1.30426235833583
 7  1.91661138823882 -0.69732171317132 -0.49985142324232
 7  2.66895816621662  1.78932738283828 -0.54022149714972
 6 -4.85603785008501  1.18023820322032 -0.09802934643464
 6 -4.50741534693469  0.34226064376438  1.19052111281128
 6 -2.99787324352435 -0.01398651625163  1.29818515861586
 6 -2.05381042534253  0.56160830783078  2.11059185738574
 6 -0.70229411691169  0.08795023652365  1.71156991919192
 6 -0.96482085708571 -0.83393850295030  0.71961867016702
 6 -6.25664176157616  1.40571232713271 -0.19110752455246
 6  0.56735021832183  0.20049797289729  2.45142981178118
 6 -6.68080051175117  1.01999430463046 -1.44872573027303
 6 -0.14634037603760 -1.77962326342634  0.15606278197820
 6  1.13017592879288 -1.87137965056506 -0.28627742094209
 6 -5.59359741784178  0.55215490869087 -2.20611005180518
 6  1.98658452835283 -2.98957253325333 -0.78787410401040
 6 -2.33370011121112  1.57579931193119  3.23281192119212
 6 -7.15185717791779  1.81228676467647  0.92584319821982
 6  3.21033656195620 -2.43893591789179 -1.21965312241224
 6  0.99372614521452  1.71882502470247  2.46184140254025
 6  3.20704724572457 -0.96587602700270 -0.92046567756776
 6  1.57623316121612 -4.33652803240324 -0.84198267216722
 6 -8.12748946984699  1.04597916231623 -1.97929265126513
 6  1.76120781088109 -5.06527276967697  0.47943426992699
 6  4.38246596299630 -3.15174644044404 -1.85329732713271
 6  4.16678562076208 -0.07501583978398 -1.14243443854385
 6  2.37996061146115  1.88501267556756  3.05547545264526
 6  3.85757028292829  1.30704996129613 -1.10644641534153
 6 -9.30128830183018  0.98432627642764 -1.39811857445745
 6  1.20460776917692 -6.51077980748075  0.41903269596960
 6  4.73619768466847  2.46525858085809 -1.43921764826483
 6  4.13526916141614  3.60909506970697 -1.23364293559356
 6  2.82020077607761  3.25749745114511 -0.45884443144314
 6  6.18482648704870  2.20767263866387 -2.00733226202620
 6  4.56505729912991  5.10478199539954 -1.46609928182818
 6  6.87019457085709  3.20982740414041 -2.63024769286929
 1 -4.48868681938194  2.25509055395540  0.07428697069707
 1 -5.22888131723172 -0.48609360046005  1.21316256455646
 1 -4.58690881008101  0.96687091619162  2.10707284178418
 1 -2.83380079047905 -1.66649350685068 -0.16549894119412
 1 -3.37502319561956  0.57659073527353 -1.75412260956096
 1  0.65114169846985 -0.12050207670767  3.49651498369837
 1  1.26178462246225 -0.44343422742274  2.05574389478948
 1 -0.75539603210321 -2.77945590889089  0.11416123452345
 1 -3.26355850785078  1.50864745004500  3.47197336493649
 1 -1.62817767716772  1.35769439693969  4.12071179577958
 1 -2.28217101640164  2.73592222802280  3.00406256025603
 1 -6.38917281238124  2.48679763186319  1.47466558535854
 1 -7.29658236653665  1.13949027742774  1.54348677127713
 1 -7.95312380368037  2.47955012511251  0.57220621782178
 1  0.99905208650865  2.11483409140914  1.35562557015702
 1  0.33902794289429  2.40749883768377  2.83680403490349
 1  1.62681830013001  0.28914530473047 -0.38827105320532
 1  1.94815307390739 -4.84220974417442 -1.71130919311931
 1  0.53029110951095 -4.25122503590359 -1.00059282898290
 1 -7.99979530453045  0.98207084108411 -3.08000891289129
 1  1.11867480758076 -4.56037034133413  1.28789847744775
 1  2.83648469136914 -4.96665314431443  1.01946588498850
 1  4.24611905570557 -4.21891942044204 -1.85836488908891
 1  5.40456257775778 -3.07542642344234 -1.27585250675068
 1  4.71311840814081 -2.68430048564857 -2.82085240754075
 1  5.22726553365337 -0.23450755955596 -1.57642433063306
 1 -9.42170169236924  0.92068296549655 -0.52061274747475
 1 -10.05495366046605  0.96705108350835 -2.20455019671967
 1  3.73240967236724  2.86795936453645  3.60669885208521
 1  6.65044004960496  1.25084929142914 -1.79275677887789
 1  4.37824883508351  5.53578667066707 -2.49615667066707
 1  3.83211121522152  5.96878394829483 -0.93869695289529
 1  5.76502827432743  5.24653110771077 -1.04360610871087
 1  1.55205274377438 -8.33303454595459  1.35625529862986
 1  7.91722300410041  3.24077138343834 -2.94470323252325
 1  6.34603604790479  4.32525009630963 -2.77282017111711

