%nproc=4
%Mem=2GB
# td=(NStates=1) B3LYP/SVP 

TD

0 1
 8 -5.55716107790779  0.03185730073007 -3.30777361016102
 8  2.85037186328633  3.16108183158316  3.25404166856686
 8  3.14472521032103  0.96556156525653  3.39306126732673
 8  1.65736987288729 -7.25399130353035  1.28781919171917
 8  0.18263501290129 -6.69696060006001 -0.36920085128513
 8  2.15114857415742  4.01220418741874 -0.07730946654665
 7 -2.36235683838384 -0.94790979757976  0.56963349044904
 7 -4.46916081998200  0.67504175277528 -1.27093902600260
 7  1.98959868696870 -0.73881586258626 -0.36595803390339
 7  2.83251452185219  1.86386483658366 -0.58506598159816
 6 -4.96970921722172  1.15703588298830  0.01836229272927
 6 -4.49624422982298  0.33825024272427  1.18810087078708
 6 -2.99319277547755  0.05372025442544  1.30638597869787
 6 -2.08827387168717  0.72569471647165  2.02403320152015
 6 -0.81488537603760  0.03000444194419  1.73951271347135
 6 -0.97234160916092 -0.82386749584958  0.78002471077108
 6 -6.43544964236424  1.22960471637164 -0.15768418221822
 6  0.52804628792879  0.36908483158316  2.48688335713571
 6 -6.80853328502850  0.80341264646465 -1.37530838853885
 6 -0.12160790279028 -1.90025532663266  0.21363853955396
 6  1.14240715191519 -1.82672518511851 -0.27848664186419
 6 -5.56347440554055  0.40101979517952 -2.13434287508751
 6  1.97227309720972 -2.90317389338934 -0.73685900250025
 6 -2.29554629582958  1.75678741074107  3.10737937793779
 6 -7.38318031023102  1.83390892689269  0.90523113701370
 6  3.17972350065007 -2.36610863516352 -1.20806196329633
 6  0.99378615121512  1.80433357555756  2.66083130153015
 6  3.15661220222022 -0.95842528192819 -0.96272990399040
 6  1.38554409230923 -4.17976235583558 -0.81106958085809
 6 -8.04989171007101  0.84056862126213 -2.05715043704370
 6  1.71864355445545 -5.10503674607461  0.44499082558256
 6  4.26983469986999 -3.19080034583458 -1.86111810921092
 6  4.12818176037604  0.02981464326433 -1.39627982308231
 6  2.43027564296430  1.95531970627063  3.18424832993299
 6  3.85367989388939  1.35088434473447 -1.23798956965697
 6 -9.30251842484248  0.69865770957096 -1.56803556615662
 6  1.12627993639364 -6.45333406290629  0.40322111481148
 6  4.86776084098410  2.53001505650565 -1.61037476397640
 6  4.31504713921392  3.63124728492849 -1.13164273557356
 6  2.97038579457946  3.15962766416642 -0.44184273127313
 6  6.12755075947595  2.17725959735974 -2.20510203900390
 6  4.74612540594059  5.07914943214321 -1.13788646054605
 6  7.04625217661766  3.14043046444645 -2.53825849394940
 1 -4.68600655135513  2.29097414231423  0.02680222222222
 1 -4.92446087518752 -0.57204219531953  0.99486073437344
 1 -4.91144126332633  0.69141337043704  2.14736687118712
 1 -3.05109251965197 -1.48364522202220  0.02554016271627
 1 -3.48165385868587  0.74399747594760 -1.58420561786179
 1  0.60219680398040  0.16189616311631  3.70683601580158
 1  1.27117556155616 -0.22486237023702  2.04529284968497
 1 -0.71627211971197 -2.79983794709471  0.15740555895590
 1 -3.40366251825183  1.86186277157716  3.38200436803680
 1 -1.69387424682468  1.56613524102410  4.00134985958596
 1 -1.84658745804581  2.71669030483048  2.89480163416342
 1 -6.91457535263526  2.58320727282728  1.35254337313731
 1 -7.55117782608261  0.83041937033703  1.47990041264126
 1 -8.36232472377238  2.20092226232623  0.44023302050205
 1  0.93359554085409  2.36264887288729  1.65180518811881
 1  0.40917495759576  2.32746083388339  3.53328368286829
 1  1.72729834813481  0.24976136633663 -0.27499972607261
 1  1.77336559515952 -4.64440996419642 -1.69243730593059
 1  0.50836891729173 -3.97702761616162 -1.24542731243124
 1 -7.85576090109011  0.59169180318032 -3.01514242624262
 1  1.37922086218622 -4.66480078437844  1.39084877247725
 1  2.81954299719972 -5.02097857685769  0.63785772417242
 1  3.71154559835984 -4.10252778127813 -2.03066211881188
 1  5.25364748624863 -3.10188906970697 -1.21732665416542
 1  4.90551764806481 -2.67876993259326 -2.70475079737974
 1  4.75768857595760 -0.48139224802480 -2.05568225642564
 1 -9.62400192239224  0.84162505970597 -0.54705539173917
 1 -10.28311647674768  0.75802018041804 -2.29604934663466
 1  3.79409584098410  3.06321889048905  3.55019320152015
 1  6.25174017961796  0.93715792229223 -2.51663916711671
 1  4.99139014921492  5.43846693869387 -2.01427848284829
 1  4.27305530963096  5.77741481138114 -0.43789687288729
 1  5.74471624312431  5.00519697429743 -0.77880962906291
 1  1.43787132563256 -8.17876911941194  1.03848352145215
 1  7.88183946574657  2.68183548984898 -3.17047580978098
 1  7.05092653695370  4.25814338563856 -1.99774266336634

