%nproc=4
%Mem=2GB
# td=(NStates=1) B3LYP/SVP 

TD

0 1
 8 -5.44732009380938  0.32673678867887 -3.41285411821182
 8  2.77537436353635  3.20452617601760  3.29571583598360
 8  3.16332707050705  1.04801981108111  3.23090505170517
 8  1.72805694159416 -7.33152905730573  1.36672708250825
 8  0.18676542594259 -6.86656756075608 -0.35453938513851
 8  1.81504496379638  3.98808177517752 -0.28182991859186
 7 -2.35885648834883 -1.04525953255325  0.63077960506051
 7 -4.43536744064406  0.52171642024202 -1.31537346944694
 7  1.86916664376438 -0.76884886588659 -0.31253269136914
 7  2.69082035243524  1.82930138023802 -0.36897437243724
 6 -4.78294054035404  1.09320950035003 -0.08787833133313
 6 -4.46010061546155  0.34550096779678  1.24726678737874
 6 -2.96355981218122 -0.00541565916592  1.32412775287529
 6 -1.98863390769077  0.59503165016502  2.13039383758376
 6 -0.73040692819282  0.07946938843884  1.80696945914591
 6 -0.92070644564456 -0.97103221232123  0.82076878517852
 6 -6.25925202260226  1.33543529942994 -0.17208562236224
 6  0.51722520582058  0.33841176427643  2.52106677547755
 6 -6.71158359005901  0.90180248544855 -1.44397525522552
 6 -0.17406314831483 -1.91688698979898  0.23118029372937
 6  1.17420033123312 -1.91635414801480 -0.24637343054305
 6 -5.45994405250525  0.50805049824982 -2.24300374117412
 6  1.91561743164316 -2.93587716371637 -0.82089740634063
 6 -2.09630637183718  1.73740547254725  3.06006464646465
 6 -7.08299029122912  1.89492502850285  0.95454606850685
 6  3.12298782708271 -2.39112113641364 -1.26678783588359
 6  1.10867764036404  1.76078922112211  2.55074029242924
 6  3.07113365436544 -0.98932837223722 -0.84723835483548
 6  1.55218075597560 -4.35076945654566 -0.90125859975998
 6 -8.05282200310031  1.06895145954595 -2.12010673267327
 6  1.88858054815482 -5.16238248064806  0.28662498899890
 6  4.44335205160516 -3.06604787058706 -1.61504350175018
 6  4.13896283848385  0.02206386818682 -1.01744193929393
 6  2.41866448184819  1.90351452575257  3.05436534163416
 6  3.85863038893889  1.34899415571557 -0.82464823552355
 6 -9.19566773977398  1.06024386818682 -1.56182494509451
 6  1.16803411181118 -6.56614534403440  0.35205599829983
 6  4.71065513041304  2.47857991299130 -1.44742846934693
 6  4.01146678117812  3.64847900810081 -1.19828940024002
 6  2.71677043304330  3.23690539193919 -0.59988853585359
 6  6.07874587898790  2.26627849924993 -2.13869539833983
 6  4.49838063146315  5.01440295749575 -1.17347001890189
 6  6.73131068246825  3.18538495989599 -2.86813148124812
 1 -4.31405935663566  2.06595164006401  0.11033057505751
 1 -4.90611904100410 -0.75445043614361  1.13901514981498
 1 -4.84877499669967  0.92826705580558  2.06764889938994
 1 -2.90096750715071 -1.48297515501550 -0.19713210451045
 1 -3.48773446674667  0.76647972417242 -1.78745594289429
 1  0.57143372767277 -0.01546157265727  3.54325965816582
 1  1.21281972597260 -0.25132501650165  2.11937025742574
 1 -0.81936242874288 -2.94997296059606  0.18146796519652
 1 -3.25707785978598  2.21394798009801  3.04250041764176
 1 -1.58694355375538  1.15296392389239  4.07860758535854
 1 -1.47665046434643  2.60674931073107  2.92865501950195
 1 -6.50834472957296  2.64912386448645  1.65716383518352
 1 -7.79034174247425  1.25772210061006  1.52063448604860
 1 -7.82760125142514  2.41099326942694  0.59570856805681
 1  0.85103728502850  2.35008761676168  1.68010801840184
 1  0.47810185028503  2.33624171197120  3.24427478197820
 1  1.38292391069107  0.08736512671267 -0.04377660376038
 1  2.10999925852585 -4.78088361156116 -1.82186024822482
 1  0.51500958135814 -4.54485439883988 -0.98471124082408
 1 -7.99506483148315  0.92386502050205 -3.25381629362936
 1  1.52052499259926 -4.64445875017502  1.13346303390339
 1  2.94274531743174 -5.34673115211521  0.72135607400740
 1  4.04010845464546 -3.94028155665566 -1.87339639223922
 1  5.18687080858086 -3.14737361816182 -0.97279220072007
 1  4.81072816911691 -2.61656371197120 -2.65350567286729
 1  5.17109991709171 -0.27674178297830 -1.59113580178018
 1 -9.42312183438344  1.33010390759076 -0.55670635683568
 1 -10.26706487158716  1.24022840124012 -2.12340208190819
 1  3.60156658805881  3.12033460206021  3.67018520072007
 1  6.29563456905691  1.08261246774677 -2.38816631983198
 1  4.12910392059206  5.75301839383938 -2.12313936893689
 1  4.25310331443144  5.61633870377038 -0.09681276447645
 1  5.63168493999400  4.80809726432643 -1.12179392749275
 1  1.07528506700670 -8.03615485798580  1.28883855695570
 1  7.54349563136314  2.89160646694669 -3.58654741694169
 1  6.18688013231323  4.15871344264426 -3.08429131823182

