%nproc=4
%Mem=2GB
# td=(NStates=1) B3LYP/SVP 

TD

0 1
 8 -5.64650001180118  0.18404251925192 -3.37685051785179
 8  2.93489031513151  3.02999872327233  3.44450071447145
 8  3.21814255205521  0.83354836393639  3.15517747894789
 8  1.32236637253725 -7.16915281968197  1.60079048884888
 8  0.90989773917392 -7.13410431443144 -0.71635556675668
 8  2.06906036533653  4.11225419241924 -0.21543327892789
 7 -2.35243584628463 -0.80882588918892  0.57784431153115
 7 -4.51691559545955  0.43342759135914 -1.30491242334233
 7  1.93220294739474 -0.64682666366637 -0.34566600470047
 7  2.72513378377838  1.95318376847685 -0.48688616361636
 6 -4.89187143344334  1.18749892929293 -0.09011855535554
 6 -4.50135474087409  0.33653007070707  1.13198525922592
 6 -2.96298975517552  0.03064794719472  1.36815215531553
 6 -1.96654169846985  0.67298944594459  2.10357115531553
 6 -0.78591247874787  0.08109955145515  1.81839060126013
 6 -0.93234760976098 -0.88291340044004  0.93615032333233
 6 -6.42893899129913  1.34246600250025 -0.19338775257526
 6  0.50258374167417  0.29248717181718  2.61009567836784
 6 -6.76841927362736  0.93290559575958 -1.38173903160316
 6 -0.17440318231823 -1.84696999809981  0.21551872757276
 6  1.19655256645665 -1.76702921552155 -0.19679847304730
 6 -5.59984804290429  0.51134082728273 -2.17625706650665
 6  1.89527539743974 -2.78609218521852 -0.71592690929093
 6 -2.34914165536554  1.79781151315132  3.09544818481848
 6 -7.23234522672267  1.90454599059906  0.94024463836384
 6  3.09191471977198 -2.45124714901490 -1.13453461056106
 6  1.02907968056806  1.71689483168317  2.46070128852885
 6  3.17263380438044 -0.94297373677368 -0.87018064906491
 6  1.48471400930093 -4.25733011261126 -0.90818929282928
 6 -8.12297901880188  0.97319188358836 -2.06359108110811
 6  1.85035672577258 -5.17311355375538  0.32480880738074
 6  4.29059677607761 -3.08304957075708 -1.64397639503950
 6  4.10920986318632  0.06988865066507 -1.18785898099810
 6  2.48864147954796  1.79956413071307  3.01392129722972
 6  3.79305383128313  1.41545080138014 -1.05685145584558
 6 -9.36498467146715  0.90600844464446 -1.52886164876488
 6  1.29167647604760 -6.58589731923192  0.34800559325933
 6  4.88261232613261  2.44637669266927 -1.39964369086909
 6  4.21266690119012  3.61903606380638 -1.26033560486049
 6  2.81150990699070  3.26277797919792 -0.62842138913891
 6  6.15404340874087  2.21053292469247 -1.84611614041404
 6  4.59404019741974  5.07469898709871 -1.31855452735274
 6  6.81569912131213  2.97246366776678 -2.83857852595260
 1 -4.48729668036804  1.94476952185219  0.04556409840984
 1 -5.03213164226423 -0.63720871197120  1.19045029332933
 1 -4.94510462966297  0.68730295939594  2.05718785328533
 1 -2.69153656405641 -1.55455231273127 -0.00233262456246
 1 -3.45083077637764  0.64022709890989 -1.66342353965397
 1  0.08509509380938  0.08867884138414  3.56669200140014
 1  1.21862030603060 -0.57992787678768  2.26551487188719
 1 -0.52852334483448 -2.90225818911891 -0.09974015561556
 1 -3.41795394739474  1.75440202550255  3.24925109270927
 1 -1.70888574797480  1.80443907140714  4.08740846544655
 1 -2.38100089938994  2.90375901170117  2.40088224222422
 1 -6.78997289238924  2.57526647874787  1.53057117591759
 1 -7.47641034933493  1.22494882328233  1.78506092869287
 1 -8.21218971027103  2.46561873197320  0.83547254445445
 1  1.19592177347735  2.01024363236324  1.41122112971297
 1  0.42161620172017  2.48231631943194  3.22706306080608
 1  1.76321193949395  0.39034542474247 -0.12948517461746
 1  1.86428468706871 -4.62461798499850 -1.89530759295930
 1  0.40186826722672 -4.33448336173617 -1.12862563226323
 1 -7.87267259225923  1.09320195419542 -3.18243915591559
 1  1.55375831593159 -4.70057436173617  1.34542423002300
 1  2.83796483938394 -5.38461494049405  0.66185012341234
 1  4.08939338313831 -4.29790731923192 -2.03842289488949
 1  5.17527964946495 -2.84429331013101 -1.04878980048005
 1  4.50518761506151 -2.45623767936794 -2.64921524382438
 1  4.96694950205020 -0.33277738653865 -1.63344003220322
 1 -9.32825234743474  0.41317221442144 -0.41188187438744
 1 -10.12747091219122  1.02527690609061 -2.18635837753775
 1  3.77393382478248  3.08599116771677  3.61433961616162
 1  6.79014402000200  1.19256346284628 -1.74365186838684
 1  4.67631864206421  5.41835492749275 -2.40606766176618
 1  3.81481948604860  5.70260733063306 -0.78211129432943
 1  5.60421219271927  5.19445590019002 -0.76037778587859
 1  1.06609414791479 -8.14435567806781  1.51422109520952
 1  7.66306758855886  2.84644195049505 -3.33446220842084
 1  6.55282672697270  4.04913248454845 -3.05593848294829

