%nproc=4
%Mem=2GB
# td=(NStates=1) B3LYP/SVP 

TD

0 1
 8 -5.33810917271727  0.14320843584358 -3.35683851665166
 8  2.89016584268427  3.07472319571957  3.37471373577358
 8  3.24849558735874  0.87474248334834  3.24419638083808
 8  1.39819395529553 -7.01460736513651  1.57233764356436
 8  0.29009575897590 -6.87083798779878 -0.40208413961396
 8  1.89993345264526  3.95687865486549 -0.09733146874687
 7 -2.23468407110711 -0.88091309790979  0.50188671577158
 7 -4.38868277217722  0.61061531013101 -1.22593452555256
 7  2.02775250235024 -0.75096707770777 -0.23708514661466
 7  2.71389265966597  1.74744319441944 -0.44449192419242
 6 -4.84656690299030  1.18468864826483 -0.07433697719772
 6 -4.35657026242624  0.27424384208421  1.13731579227923
 6 -2.96224968116812  0.07562244464446  1.19516485658566
 6 -1.97314235853585  0.76346849384938  1.96392719091909
 6 -0.70527441494149  0.12947438893889  1.76254501670167
 6 -0.92056643164316 -0.82570767986799  0.76890359865987
 6 -6.26533263066307  1.32417417331733 -0.15339375317532
 6  0.51641512481248  0.36023394649465  2.49810447924793
 6 -6.67913034473447  0.86195850105011 -1.33494435213521
 6 -0.15755149714971 -1.85857115821582  0.05229240494049
 6  1.16139905110511 -1.78655116771677 -0.36432522572257
 6 -5.37408546664666  0.48951864506451 -2.23707314811481
 6  1.98854472437244 -3.00240381638164 -0.91092640924092
 6 -2.27819456065607  1.81655338733873  3.09509814981498
 6 -7.10766275847585  1.83390892689269  0.90978159205921
 6  3.15177070537054 -2.40736276057606 -1.15076623372337
 6  1.02582935553555  1.81846498869887  2.56757197559756
 6  3.16203274427443 -1.05210464986499 -0.85814944594459
 6  1.46495203310331 -4.41528590819082 -0.97743621752175
 6 -7.92876959785979  0.78959352375238 -2.05380010201020
 6  1.68089978007801 -5.00247649004900  0.38027435393539
 6  4.26262397879788 -3.14031529732973 -2.00192218961896
 6  4.07716665886589 -0.03649198739874 -1.22102229732973
 6  2.43481609700970  1.79695386968697  3.12433233833383
 6  3.84846937283728  1.35670492679268 -1.04105987668767
 6 -9.11550972397240  0.77721556535654 -1.43402216481648
 6  0.95308261666167 -6.39469819931993  0.46170696339634
 6  4.70124418931893  2.48640069506951 -1.42999672617262
 6  4.01502713721372  3.59078323852385 -1.10205977727773
 6  2.74311306730673  3.15219692109211 -0.49709825682568
 6  6.02900090449045  2.26476834823482 -2.02122365116512
 6  4.45412620602060  5.07464898209821 -1.19364203610361
 6  6.68317586898690  3.30845726712671 -2.71423609170917
 1 -4.42202015271527  2.04254929982998  0.28371791379138
 1 -4.75451388048805 -0.82238722982298  0.88765001330133
 1 -4.73881400060006  0.61340556965697  2.06106824132413
 1 -2.50426783718372 -1.40297715521552 -0.37891028232823
 1 -3.45209090239024  0.58757183338334 -1.55171236853685
 1  0.23284986928693 -0.19482950945095  3.42791812401240
 1  1.32860130413041 -0.22682256625663  2.10687900830083
 1 -0.69422991549155 -2.74596255955596 -0.33147332893289
 1 -3.18156030803080  1.39060564586459  3.72279844744474
 1 -0.94218907830783  1.88399702720272  3.75818554315432
 1 -2.26476927622762  2.84732336813681  2.31660381438144
 1 -6.49309320442044  2.58791774387439  1.49293741254125
 1 -7.53993670197020  1.11879820822082  1.77771019361936
 1 -7.97854634593459  2.23179534963496  0.70259925712571
 1  1.17558974027403  2.42031463946395  1.63860386798680
 1  0.48928296839684  2.31267935573557  3.11986234073407
 1  1.86171178947895  0.26317270747075 -0.05458768486849
 1  2.27447570617062 -5.01574709790979 -1.37385544774477
 1  0.46722480288029 -4.49369928332833 -1.52256502620262
 1 -7.93110843584358  0.65099773377338 -3.19708062006201
 1  1.20078301840184 -4.38203250755075  1.09631931953195
 1  2.75913695659566 -5.07219369836984  0.78956289468947
 1  4.04336878067807 -4.04558208670867 -2.28429748234824
 1  5.10664278577858 -3.43714259505951 -1.29569449094909
 1  4.38462555885589 -2.41222327792779 -2.83474379667967
 1  4.97594040114011 -0.39770387918792 -1.63462015021502
 1 -9.23032255445545  0.77182808000800 -0.44392507870787
 1 -10.03225139023902  0.68980335873587 -1.95150489218922
 1  3.82762919431943  3.13013558215822  3.59377755995600
 1  6.45122012761276  1.24533874037404 -1.80582808600860
 1  4.38712972317232  5.43275636763676 -2.28809586458646
 1  3.76544454855485  5.82263933383338 -0.67604068726873
 1  5.46350812231223  5.22464891949195 -0.63706545464546
 1  0.89577711621162 -7.92154339683968  1.57957763086309
 1  7.60820210201020  2.97342464876488 -3.34301306350635
 1  6.34931637593759  4.24692226352635 -3.05860874997500

