%nproc=4
%Mem=2GB
# td=(NStates=1) B3LYP/SVP 

TD

0 1
 8 -5.37288265006501 -0.07158304330433 -3.34409724252425
 8  3.04232105820582  3.01494721812181  3.33931019541954
 8  3.22454319211921  0.88693370247025  3.41264322552255
 8  1.33668780468047 -7.08669457385739  1.55200561036104
 8  0.45057180658066 -7.00660156415642 -0.53412734393439
 8  1.91821528082808  4.04681764876488 -0.09486122172217
 7 -2.28562916561656 -0.88126313291329  0.59400592769277
 7 -4.46939084298430  0.62093634223422 -1.36023795589559
 7  1.85085481258126 -0.71854383538354 -0.38962040014001
 7  2.63814508490849  1.94436288638864 -0.71990946594659
 6 -4.78474072037204  1.25077525692569 -0.07747729122912
 6 -4.44168877427743  0.37516393409341  1.19471153185319
 6 -2.94960841704170  0.08697357975798  1.28979431953195
 6 -1.99566461076108  0.72420456745675  2.14575537373737
 6 -0.71163505100510  0.12789423092309  1.79352811501150
 6 -0.89763413841384 -0.85004011311131  0.87399410771077
 6 -6.35860195759576  1.42339409530953 -0.24509292309231
 6  0.53867735103510  0.33098102120212  2.64137880668067
 6 -6.68606103780378  0.89836214141414 -1.48966982468247
 6 -0.19699544154415 -1.88218351945195  0.22405958165817
 6  1.09672258345835 -1.79219173177318 -0.23765255845585
 6 -5.47037509560956  0.37758745194519 -2.20771021182118
 6  1.95190106000600 -2.94835841184118 -0.85954127072707
 6 -2.28994573577358  1.64726645864586  3.33722236223622
 6 -7.17581957415742  1.98056359235924  0.91188180208021
 6  3.15826135443544 -2.30185220952095 -1.24809596669667
 6  1.20371714431443  1.69026216841684  2.54996021442144
 6  3.06331287228723 -0.92012145154515 -0.92922655365537
 6  1.55448098599860 -4.34984936453645 -0.99238771267127
 6 -8.04031075197520  0.75716028042804 -2.08080280228023
 6  1.69737142724272 -5.09503574597460  0.33945027152715
 6  4.45071278767877 -2.97846911271127 -1.74876687408741
 6  3.92328127032703  0.04550621242124 -1.32195239033903
 6  2.53828644404440  1.76177035133513  3.12411231633163
 6  3.78285281118112  1.44574383068307 -1.21348711941194
 6 -9.29475764876488  0.84005184898490 -1.51573033563356
 6  1.07633494189419 -6.52115084458446  0.35189598229823
 6  4.78313237813781  2.47972002700270 -1.51552527902790
 6  4.08902453695370  3.62727688788879 -1.12284185548555
 6  2.75358411441144  3.29818151955196 -0.59818836583658
 6  6.13048105250525  2.20315218661866 -1.92342387118712
 6  4.36307710111011  5.07898941614161 -1.40087275917592
 6  7.03683123452345  3.02265868726873 -2.56413108120812
 1 -4.31301925262526  2.18400344524452  0.00753029502950
 1 -5.13342177127713 -0.73824881598160  1.30182143044304
 1 -4.79768988818882  0.83616784588459  2.15240737523752
 1 -2.74176158655866 -1.43016987448745 -0.18628101940194
 1 -3.58177387068707  0.43335641184118 -1.77847504480448
 1  0.58740532483248  0.03299327282728  3.72319765196520
 1  1.26293473747375 -0.49124900890089  2.07162548294830
 1 -0.69348984148415 -2.84066202950295 -0.14667484908491
 1 -3.42054420642064  1.89741632693269  3.40040620822082
 1 -2.20302516191619  1.25859448694869  4.41412113671367
 1 -1.86229902920292  2.61120975677568  3.33598575257526
 1 -6.62944683978398  2.47395634773477  1.90365848464846
 1 -8.02846555485548  1.27321364976498  1.41393381598160
 1 -7.95134362566257  2.62140431053105  0.40980997819782
 1  1.29633181448145  2.19961256925693  1.73165317291729
 1  0.58969300940094  2.42468055585559  3.24832518701870
 1  1.70528614691469  0.27355374557456 -0.00702292839284
 1  1.88279653825383 -4.81773729692969 -1.89199726192619
 1  0.45462354275428 -4.46462637603760 -1.25248801850185
 1 -8.12626795179518  0.57691032503250 -2.95690660266027
 1  1.25571851195120 -4.45931023532353  1.13856354395440
 1  2.87610865376538 -5.20908738773877  0.62776671507151
 1  4.17324176797680 -4.01275880438044 -1.95577463006301
 1  5.25387750925093 -2.69991887268727 -0.85081000250025
 1  4.93899099539954 -2.46494855045505 -2.65812613491349
 1  4.74046685378538 -0.54297840664066 -2.12992968116812
 1 -9.27376689888989  1.07345824302430 -0.54791547774777
 1 -10.10006817191719  0.52376675507551 -2.24662440414041
 1  3.76724315571557  3.04612718131813  3.76369455165517
 1  6.64393939953995  1.12595680218022 -2.07793529672967
 1  4.15734674487449  5.29222231423142 -2.37707476247625
 1  3.40509851395139  5.50765783568357 -0.90420350355036
 1  5.46653842534253  5.47916437103710 -1.05954770287029
 1  0.98722626112611 -8.08844008650865  1.59690936403640
 1  7.89926120792079  2.84071137743774 -2.93421218341834
 1  6.76142758705871  4.13454102540254 -2.59764265336534

