%nproc=4
%Mem=2GB
# td=(NStates=1) B3LYP/SVP 

TD

0 1
 8 -5.42068743054305  0.31701581658166 -3.36793962676268
 8  2.93259008510851  3.01693741714171  3.11454771917192
 8  3.24078481628163  0.75687069616962  3.28539050025002
 8  1.37579171507151 -7.09211511591159  1.80356076587659
 8  0.84191094049405 -7.09737064106411 -0.51731566276628
 8  1.81642510181018  3.92725569256926 -0.26348808440844
 7 -2.36077668036804 -0.83138814541454  0.37259378647865
 7 -4.49214311821182  0.73216746534653 -1.32810474257426
 7  1.96320604770477 -0.64477645864586 -0.36242768086809
 7  2.66996826722672  1.78213666376638 -0.64186166116612
 6 -4.87237948424842  1.24118429782978 -0.07778732223222
 6 -4.41388599399940  0.21483790149015  1.06391845254525
 6 -2.96589004520452 -0.04072919051905  1.24939027912791
 6 -2.13613865816582  0.62333448044804  2.07072787098710
 6 -0.80328421592159  0.02999444094409  1.81959072127213
 6 -0.96104047904790 -0.89981509060906  0.73754046234623
 6 -6.31854795219522  1.46215797169717 -0.14812322612261
 6  0.43135661896190  0.23808173127313  2.59633430223022
 6 -6.74601703340334  0.91538384358436 -1.37997885558556
 6 -0.12555829782978 -1.87312261336134  0.09075625132513
 6  1.22818572977298 -1.77196970957096 -0.30611940514051
 6 -5.50582864096410  0.67122681588159 -2.25488492929293
 6  1.96926279617962 -2.89777335333533 -0.73682899949995
 6 -2.33047978917892  1.68587031903190  3.13009164916492
 6 -7.16750874307431  1.98226376237624  0.90917153105311
 6  3.20232576087609 -2.45186721102110 -1.09928108520852
 6  1.04657142974297  1.61723486568657  2.51706692509251
 6  3.20722726372637 -0.99719915931593 -0.94138776977698
 6  1.41956749464946 -4.33950833043304 -0.74810328422842
 6 -8.02956967786779  0.79909447384738 -1.96175089708971
 6  1.82903459355936 -5.08494473687369  0.49500582708271
 6  4.34214193059306 -3.05565683148315 -1.79435143254325
 6  4.08153709590959 -0.05158349654966 -1.35835603070307
 6  2.51814442984298  1.70413458775878  3.04373427852785
 6  3.74027855375538  1.27532678897890 -1.15076084678468
 6 -9.20003817681768  1.13073091689169 -1.26688545114511
 6  1.24269157755776 -6.52296102560256  0.41596238893889
 6  4.70916498139814  2.51519357435744 -1.51693542004200
 6  4.03944957945795  3.58186234643464 -1.23798336963696
 6  2.72642139813981  3.20437213861386 -0.73411195819582
 6  6.15578358275828  2.28636050745075 -2.00647217601760
 6  4.28914970837084  5.08670018721872 -1.13393606550655
 6  6.99464701610161  3.34883130453045 -2.36156082418242
 1 -4.07701565226523  1.99743478837884  0.25858540054005
 1 -5.09856828592859 -0.66204119521952  1.02358360666067
 1 -5.03517363656366  0.72705693479348  2.02957509200920
 1 -2.87578498889889 -1.26450330783078 -0.34638703000300
 1 -3.37108280158016  0.69290236643664 -1.36533373067307
 1  0.28326491079108  0.08495846934693  3.61317664986499
 1  1.21842028602860 -0.41936182018202  2.38777709810981
 1 -0.49939043154315 -2.71025898919892 -0.33445362696270
 1 -3.48681083308331  1.82252883818382  3.37036320392039
 1 -1.66760161956196  1.47530615811581  4.06628635323532
 1 -1.92067486678668  2.69032766856686  3.02636479047905
 1 -6.54211810691069  2.40536948904890  1.63380149894990
 1 -7.66917962626263  1.14099042744275  1.63194561716172
 1 -7.90616910821082  2.69916208630863  0.33948294549455
 1  1.08811099239924  2.08455106310631  1.55031503910391
 1  0.32943698379838  2.19273736153615  3.10418077257726
 1  1.81973759205921  0.43532992319232 -0.13567579367937
 1  1.86773503210321 -4.86920244344434 -1.47156521872187
 1  0.24306238663866 -4.57610752415242 -1.03809657935794
 1 -8.18225355035504  0.41624425842584 -3.01706261826183
 1  1.25757869796980 -4.60842514681468  1.32901258885889
 1  3.00450149304931 -5.20395687468747  0.60283422182218
 1  4.20297474127413 -4.27026455495550 -2.05937499009901
 1  5.19252137363736 -2.92262114291429 -1.13992891439144
 1  4.59830692699270 -2.52756481208121 -2.80425074737474
 1  5.13891669876988 -0.38216232503250 -1.67386407460746
 1 -9.42196171837184  1.33357425462546 -0.22970365656566
 1 -9.96184434953495  1.04906928532853 -1.95249499119912
 1  4.05174160556056  2.83348591719172  3.33846202840284
 1  6.38448345394539  1.34807901440144 -2.23588109130913
 1  4.20274128432843  5.50104319631963 -2.07186424142414
 1  3.59863786788679  5.53052012191219 -0.45255833903390
 1  5.22304407590759  5.25839229382938 -0.56771851995200
 1  1.03733127162716 -7.96975821832183  1.65570524362436
 1  7.81442272407241  3.02817012331233 -2.93580234243424
 1  6.59974141844184  4.28728629992999 -2.26725961506151

