%nproc=4
%Mem=2GB
# td=(NStates=1) B3LYP/SVP 

TD

0 1
 8 -5.49626498829883  0.09184329932993 -3.47574040684068
 8  3.05622244834483  2.89189491289129  3.33808007240724
 8  3.05700643844384  0.69019402850285  3.60940290149015
 8  1.82144628052805 -7.29807571197120  1.44948535833583
 8  0.58582533193319 -6.91788269226923 -0.42990692189219
 8  1.89864332363236  3.98687165416542 -0.01998373397340
 7 -2.30662126482648 -0.77244225082508  0.45942246934693
 7 -4.50639454335434  0.73918816741674 -1.38240017211721
 7  1.92062178927893 -0.69210119111911 -0.28180961906191
 7  2.69785105550555  1.92092054215422 -0.44833230823082
 6 -4.81922416871687  1.35290546994699 -0.09318886238624
 6 -4.42189679507951  0.45655207290729  1.11945400610061
 6 -2.97564102030203  0.15245012741274  1.23659900000000
 6 -1.95858090239024  0.64396654365437  2.06170696889689
 6 -0.71172506000600  0.13243468496850  1.73114187638764
 6 -0.97391176617662 -0.89576468556856  0.87612432073207
 6 -6.39893599099910  1.47691944784478 -0.20637905170517
 6  0.51697518081808  0.23985190829083  2.56332100090009
 6 -6.76160859255926  0.98171047624762 -1.40473133083308
 6 -0.20780652265227 -1.98379368046805  0.25200237593759
 6  1.12334524572457 -1.79172168476848 -0.22331112431243
 6 -5.56230428852885  0.49942963616362 -2.29535897669767
 6  1.96073194309431 -2.87737131313131 -0.68201351795180
 6 -2.23942068326833  1.73919565156516  3.05288392839284
 6 -7.15617760996100  2.16813234923492  0.97173778767877
 6  3.07958348664867 -2.36731875617562 -1.21643280038004
 6  1.17270404300430  1.71690483268327  2.48964418281828
 6  3.05934247524752 -0.95013445284528 -0.92512614361436
 6  1.52437797569757 -4.33591797139714 -0.85954442834283
 6 -8.07810453135314  0.90110467486749 -2.02750747274728
 6  1.75361705180518 -5.11984822722272  0.49819614611461
 6  4.32004972137214 -3.11994326012601 -1.83018501590159
 6  3.98546748894890 -0.01099943814381 -1.31690188528853
 6  2.53287590299030  1.72328650295030  3.18547845294529
 6  3.80737526342634  1.35379463576358 -1.05046081678168
 6 -9.33071124412441  0.69313715751575 -1.56713547614761
 6  1.35466277467747 -6.57103583308331  0.45345613831383
 6  4.70129419431943  2.48609066406641 -1.52127585408541
 6  4.09066470097010  3.65568972917292 -1.13473304460446
 6  2.71477023302330  3.22817451885189 -0.48227677467747
 6  5.89180718511851  2.20348221962196 -2.25939746854685
 6  4.47790858425843  4.99623114031403 -1.47208988088809
 6  6.81082863426343  3.22817923932393 -2.61777644574457
 1 -4.19693764446445  2.39653469836984 -0.03813427142714
 1 -4.96138456755676 -0.48388337943794  1.12121336963696
 1 -4.84523464266427  0.76749097819782  1.92069420392039
 1 -2.98407581798180 -1.45545240274027 -0.20158254955496
 1 -3.43300899419942  0.51076415261526 -1.60348754605461
 1  0.40320690499050 -0.00074010051005  3.49468480068007
 1  1.33187163116312 -0.45761564556456  2.18188650905090
 1 -0.82878337083708 -2.88346630993099 -0.24756493809381
 1 -3.27341949394939  1.73253983928393  3.15684185178518
 1 -1.80383524292429  1.61866049354935  4.14956468106811
 1 -1.89770256955696  2.84252288808881  2.93095524952495
 1 -6.55675957105711  2.96145509760976  1.49151727052705
 1 -7.32926563486349  1.43090941934193  1.79689211181118
 1 -8.15732422372237  2.38080025012501  0.56074507170717
 1  1.33777595889589  2.24951755975598  1.55938594619462
 1  0.51540558065807  2.43795188298830  2.93451380588059
 1  1.54871048934893  0.29618600880088 -0.08583080918092
 1  2.11771002960296 -4.73194871807181 -1.59505756795680
 1  0.55032311271127 -4.46352626602660 -1.13873664336434
 1 -7.96744206920692  0.86499913391339 -3.26583749574958
 1  0.99323226332633 -4.80911521582158  1.22619230683068
 1  2.89167020992099 -5.24965144414441  0.87202114051405
 1  4.15093953775378 -4.22664019251925 -1.43944299689969
 1  5.40024214571457 -2.74928380918092 -1.29383430493049
 1  4.17724482078208 -3.06201825742574 -2.98473879617962
 1  4.88331113821382 -0.15898000680068 -2.02249893809381
 1 -9.64319384158416  0.70738163536354 -0.46185687188719
 1 -10.13655182028203  0.26928130653065 -2.27205694739474
 1  3.94411084248425  2.69775234383438  3.72067024922492
 1  6.27513251885189  1.17660186668667 -2.36189369256926
 1  4.64822583278328  5.11929502150215 -2.51625868086809
 1  3.76791479557956  5.86748381828183 -0.92925600880088
 1  5.63433520502050  5.18809526412641 -1.19447119521952
 1  1.38485602410241 -8.20916215871587  1.10508018111811
 1  7.87774905670567  3.23702100840084 -3.09457822002200
 1  6.45284672897290  4.19310688198820 -2.57160004910491

