%nproc=4
%Mem=2GB
# td=(NStates=1) B3LYP/SVP 

TD

0 1
 8 -5.40719608140814 -0.09958584358436 -3.24906773957396
 8  3.01754858095810  3.12487821122112  3.11339760416042
 8  3.35738647644764  0.91724673377338  3.28846080728073
 8  1.46228036393639 -7.17805370977098  1.52699310911091
 8  0.27710445984598 -6.94640554455446 -0.33677760896090
 8  2.04233769306931  3.99699266626663 -0.03430516611661
 7 -2.37371797449745 -0.93157816441644  0.54670119721972
 7 -4.49296320022002  0.42880712931293 -1.21873380548055
 7  1.88795852295230 -0.66764874587459 -0.48627006510651
 7  2.71354262466247  1.80886933703370 -0.55765324032403
 6 -4.80635288158816  1.17030721012101 -0.06480602410241
 6 -4.50526513191319  0.17637405510551  1.22609467016702
 6 -3.02548600480048  0.03249813221322  1.28292363246325
 6 -1.99826487078708  0.67840998799880  2.04641543974397
 6 -0.79375326282628  0.19174061556156  1.75009377157716
 6 -0.98554292929293 -0.79209431853185  0.68887559585959
 6 -6.37675377277728  1.35451720762076 -0.10257867166717
 6  0.46949043234323  0.31349927302730  2.46446111491149
 6 -6.73665609730973  0.87101940714071 -1.33272413011301
 6 -0.19839558155816 -1.84682998409841 -0.06286911121112
 6  1.08995190639064 -1.73983649624963 -0.47950674387439
 6 -5.50853891199120  0.34186387958796 -2.10896033683368
 6  1.94002987288729 -2.96921049704971 -0.93388870547055
 6 -2.27054379557956  1.77141887388739  3.02353099309931
 6 -7.15584757695770  2.06912244824482  0.98420903480348
 6  3.12657818611861 -2.45150717501750 -1.23563472057206
 6  1.14133090569057  1.71986512871287  2.41292651105111
 6  3.10135667666767 -0.94141358075808 -1.06617024802480
 6  1.42122766066607 -4.36534091369137 -0.81398987288729
 6 -8.07602432333233  0.74471903630363 -2.09789451145115
 6  1.57336902700270 -5.06182242464246  0.52496882338234
 6  4.33042075847585 -3.15560682648265 -1.78034003140314
 6  4.03205214741474 -0.01470980918092 -1.30084027912791
 6  2.58220083548355  1.83340751505151  2.94187409250925
 6  3.78137266316632  1.38864812111211 -1.15588135883588
 6 -9.30661883488349  0.81875971977198 -1.51241000360036
 6  1.07987529592959 -6.47994672417242  0.44616540924092
 6  4.82502656755676  2.57925998099810 -1.39789351585159
 6  4.18370400490049  3.66722088228823 -1.04606417771777
 6  2.88275703170317  3.28697039843984 -0.53193174017402
 6  6.20645865026503  2.32790466186619 -1.95874740354035
 6  4.62234302770277  5.04487600480048 -1.02338501040104
 6  7.04249180058006  3.43144956635664 -2.30761542964296
 1 -4.33278122882288  2.18707375227523 -0.04123458145815
 1 -4.88350677977798 -0.85883087418742  1.30629187748775
 1 -4.78362848204821  0.73233746284628  2.07509964446445
 1 -2.79447685808581 -1.35287214471447 -0.34852724402440
 1 -3.51881757505751  0.45128820502050 -1.62365956325633
 1  0.35269185348535  0.32801277477748  3.49390472267227
 1  1.14259270327033 -0.54243412741274  2.22941126152615
 1 -0.77342783528353 -2.71100906420642 -0.16313649524953
 1 -3.31537368936894  1.73910049534953  3.28629479707971
 1 -1.68868372777278  1.44979360686068  3.80247997259726
 1 -2.01955475477548  2.72785142094209  2.91470362436244
 1 -6.38247214231423  2.62988194029403  1.45643376217622
 1 -7.67809051735174  1.37064339273927  1.77055947854785
 1 -7.98114660596060  2.59813198329833  0.38718771597160
 1  1.23145532683268  2.24546715471547  1.38109811741174
 1  0.74174821492149  2.59977806560656  2.93494384888489
 1  1.66356197449745  0.24250064026403 -0.19993221932193
 1  1.81728998759876 -4.66274179737974 -1.69374743694369
 1  0.34839291969197 -4.50054996839684 -1.09689245894589
 1 -7.85709103410341  0.63219585358536 -3.25108602060206
 1  0.87019996009601 -4.55733003730373  1.26429611721172
 1  2.45536657955796 -5.02647912691269  1.11542548094809
 1  4.24441888568857 -4.30926845534553 -1.98028708130813
 1  5.39235135663566 -2.90376925772577 -1.38977389888989
 1  4.23574067036704 -2.64932698829883 -2.73199352165217
 1  4.73476628372837 -0.30285439423942 -1.90745743394339
 1 -9.50506002820282  0.78357925512551 -0.38143883008301
 1 -10.18708687378738  0.56210058845885 -2.10000974267427
 1  3.74646107750775  3.25297786638664  3.33952213441344
 1  6.41696670227023  1.20790499699970 -2.40467797099710
 1  4.89431044124412  5.55110820282028 -2.01470852585259
 1  3.71035904000400  5.57156422632263 -0.32317540074007
 1  5.58500027152715  5.24313076767677 -0.52113386148615
 1  1.19548708720872 -8.18516975947595  1.21804147724772
 1  7.82947422922292  3.30481778807881 -2.80537930013001
 1  6.81294273857386  4.47922549384938 -1.88713160226023

