%nproc=4
%Mem=2GB
# td=(NStates=1) B3LYP/SVP 

TD

0 1
 8 -5.40019538133813  0.25567968296830 -3.41306413921392
 8  2.71464829092909  3.15045076847685  3.55925218961896
 8  3.07023776157616  0.91176618571857  3.45551751295129
 8  1.38710284618462 -7.17922382678268  1.56702711251125
 8  0.53082983238324 -7.00253115711571 -0.48197212841284
 8  2.21717517681768  4.03445641264126  0.04596286068607
 7 -2.42635323802380 -0.85501050765077  0.49476600370037
 7 -4.50511441534153  0.56774102270227 -1.26286821892189
 7  1.98101782888289 -0.69128110911091 -0.25133657175718
 7  2.80594186458646  1.86862531263126 -0.52511998699870
 6 -4.85689793609361  1.12821300070007  0.03884434093409
 6 -4.51758636403640  0.19629604730473  1.22695475617562
 6 -2.99127258345835 -0.05542065966597  1.39110445054505
 6 -2.05703074737474  0.58494064106411  2.09265006320632
 6 -0.74722861036104  0.06964840634063  1.80770953315332
 6 -1.02396677167717 -0.94310942004200  0.82008871717172
 6 -6.34075017241724  1.35443719961996 -0.16477489128913
 6  0.56901038433843  0.29352727582758  2.51436610541054
 6 -6.74380681238124  0.95011731693169 -1.41588244594459
 6 -0.14652039403940 -1.86296159725973  0.14118129382938
 6  1.14841775297530 -1.77417993059306 -0.31639043224322
 6 -5.45218327642764  0.57815750895090 -2.22489192999300
 6  1.92146801670167 -2.84288786478648 -0.88218353495350
 6 -2.37148388958896  1.68477020902090  3.13540218021802
 6 -7.15105709790979  2.01097663366337  0.85459607350735
 6  3.16968249654966 -2.43916594089409 -1.26541769886989
 6  1.04518129072907  1.78302144434443  2.57275249364937
 6  3.14791133213321 -0.93253269266927 -0.94589822082208
 6  1.49072461036104 -4.25697007660766 -0.80580905480548
 6 -8.04866158705871  0.74305887028703 -2.06422114411441
 6  1.75135682578258 -5.24528077047705  0.53668999549955
 6  4.33207092349235 -3.04959622542254 -1.93201519891989
 6  4.07043598579858 -0.03718205640564 -1.38655885098510
 6  2.43767638303830  1.85835000930093  3.19410931603160
 6  3.91251577747775  1.34191344764476 -1.08611438213821
 6 -9.33530170317032  0.80759860366037 -1.59264802740274
 6  1.18695600400040 -6.49201793129313  0.43595438813881
 6  4.88015208010801  2.48162021702170 -1.51655538203820
 6  4.26544217871787  3.64266842704270 -1.22704227552755
 6  2.98061681768177  3.25316701810181 -0.56191473847385
 6  6.06303430783078  2.24413628502850 -2.26389791859186
 6  4.50628142154215  5.04379589678968 -1.32721539343934
 6  6.74413196459646  3.21588801020102 -2.94080874897490
 1 -4.15034298499850  2.11442648754876  0.14331387338734
 1 -4.90450887998800 -0.72138712981298  1.21253250155015
 1 -4.95291541074107  0.63823805290529  2.18055018951895
 1 -2.98294570497050 -1.22404926242624 -0.19522191349135
 1 -3.33625931923192  1.00800387658766 -1.50515771307131
 1  0.30120670497050  0.00009998349835  3.50925625782578
 1  1.44530297429743 -0.27902778677868  2.17885620602060
 1 -0.68884937743774 -2.87138510181018 -0.10215039663966
 1 -3.40349250125012  1.29141572687269  3.58994516211621
 1 -1.53048790819082  1.39273790129013  3.94413413801380
 1 -2.36091889118912  2.85847448324833  3.03523567756776
 1 -6.17087098219822  2.72072102420242  1.44686280508051
 1 -7.77394010231023  1.44779110751075  1.59233165576558
 1 -7.75310380168017  2.85621779187919  0.36992598979898
 1  1.09312149344935  2.49945255325533  1.46661666926693
 1  0.24771881198120  2.12759084688469  3.36524687918792
 1  1.74920053835384  0.35219160936094  0.01365913981398
 1  1.67369562816282 -4.77535305850585 -1.76859492169217
 1  0.44267234763476 -4.42329224262426 -0.77962073177318
 1 -7.86422174717472  0.37318995299530 -3.19250016201620
 1  1.25670861096110 -4.98600290459046  1.54059374697470
 1  2.87049809270927 -5.44956143514351  0.64757869626963
 1  4.02347679147915 -4.18354588308831 -2.17411646424642
 1  5.15459758125813 -2.93273215401540 -1.26751167266727
 1  4.65482257855786 -2.61303335893589 -3.02838316061606
 1  4.90415322242224 -0.20203431223122 -2.09518620682068
 1 -9.53908343054306  1.51862275947595 -0.39365005120512
 1 -9.98900706580658  0.45684006240624 -2.37260700240024
 1  3.46053248464847  2.97027959655966  3.90570875307531
 1  6.45073007860786  1.27892209870987 -2.27037454065407
 1  4.13119412961296  5.53562665466547 -2.42830988598860
 1  3.88163616771677  5.64465153505351 -0.48553163636364
 1  5.64189596109611  5.18661511611161 -1.32824457255726
 1  0.93601113961396 -8.04321556405641  1.46915658875888
 1  7.69857113891389  2.99194650095010 -3.51737049924993
 1  6.71106255055506  4.33475104640464 -2.99949283838384

