%nproc=4
%Mem=2GB
# td=(NStates=1) B3LYP/SVP 

TD

0 1
 8 -5.43797915971597  0.06023013801380 -3.37649048184818
 8  2.80141696779678  3.18882460586059  3.38902516691669
 8  3.39004974277428  0.98340334943494  3.02746470767077
 8  1.55562969886989 -7.02846875127513  1.61363177297730
 8  0.55661241064106 -6.95137604160416 -0.54100803200320
 8  2.06952041134113  4.04889785678568 -0.01720345594559
 7 -2.34627523022302 -0.86253125972597  0.50459698679868
 7 -4.48211211511151  0.57889213781378 -1.31189312141214
 7  1.90566029312931 -0.69449143014301 -0.27429886798680
 7  2.68218948934893  1.89849829992999 -0.52221969696970
 6 -4.85550779707971  1.22479265866587 -0.01080062356236
 6 -4.48179278467847  0.34748116581658  1.23878593929393
 6 -3.02514597079708  0.07167204960496  1.33024836493649
 6 -2.00908595289529  0.63870601760176  2.06688748694870
 6 -0.77492137963796  0.02655409690969  1.69056781898190
 6 -1.05241961696170 -0.94114922402240  0.74181088938894
 6 -6.41250734813481  1.38013976987699 -0.21799021282128
 6  0.52248573187319  0.30921884498450  2.55626029482948
 6 -6.74114654635463  0.85376768196820 -1.41016187388739
 6 -0.15160090209021 -1.84904020512051  0.04438161386139
 6  1.07636054725473 -1.84861737433743 -0.36747554075408
 6 -5.55335339343934  0.37342703590359 -2.14678411921192
 6  1.93611948184818 -2.86235981198120 -0.90149546614661
 6 -2.30739748094810  1.59298103010301  3.14259289928993
 6 -7.12825481768177  2.09682521852185  0.95238585248525
 6  3.12782831113111 -2.38986101040104 -1.27704886198620
 6  1.04640141274127  1.76341948414841  2.48633385178518
 6  3.09726626762676 -0.96136557595760 -0.92248587958796
 6  1.48005354325433 -4.37167154675468 -0.93471194509451
 6 -8.08658537943794  0.79608417281728 -2.06198092009201
 6  1.69773146324632 -5.06948319071907  0.40908723522352
 6  4.29212692909291 -3.14046531233123 -1.86144814221422
 6  4.02278122032203  0.05237689948995 -1.22218241334133
 6  2.49958257365737  1.88156233053305  3.03989389448945
 6  3.76076060196020  1.39284854115412 -1.02180795149515
 6 -9.26533470647065  0.80265810961096 -1.44195295789579
 6  1.17634494289429 -6.44460318981898  0.42945373807381
 6  4.79032309720972  2.47634968996900 -1.43291701820182
 6  4.18331396589659  3.64707886808681 -1.09367893919392
 6  2.83354211021102  3.23260496189619 -0.46834538153815
 6  6.08641664606461  2.08386025742574 -1.97437896669667
 6  4.54463525692569  5.11154267146715 -1.13404607650765
 6  7.02059961136114  2.91725814721472 -2.59941460956096
 1 -4.31911986268627  2.22256730163016 -0.00490094809481
 1 -4.79909833893389 -0.64586957805781  0.96093734203420
 1 -4.80015013421342  0.84332856195620  2.24181631613161
 1 -2.68593600400040 -1.18009486698670 -0.28443083438344
 1 -3.55796148944895  0.35217829402940 -1.62310950825083
 1  0.17860444474447  0.18327830133013  3.75414074627463
 1  1.45801424542454 -0.43216310031003  2.41634995539554
 1 -0.75607610011001 -2.74088205150515 -0.32932311391139
 1 -3.40797294929493  1.71513809910991  3.55278144574457
 1 -1.62665752515252  1.45939456695670  4.06414613921392
 1 -2.01648444774477  2.77103573937394  2.88813096709671
 1 -6.30930482558256  2.77990694279428  1.35160327912791
 1 -7.48067077537754  1.42094842324232  1.60276269886989
 1 -7.93156164746475  2.50269243934393  0.59986898409841
 1  1.25044722602260  2.03687629562956  1.32245225282528
 1  0.43097713781378  2.45749383718372  2.91835218971897
 1  1.66056167446745  0.34441083128313 -0.31318354445445
 1  2.06657491609161 -4.94161968516852 -1.80654871707171
 1  0.43662174257426 -4.66236615001500 -1.34881765146515
 1 -8.08391371637164  0.51706434043404 -3.14873578557856
 1  1.22333527362736 -4.47640194449445  1.27621730933093
 1  2.85663670657066 -5.15694217321732  0.66406034443444
 1  3.94796924072407 -4.14499202770277 -2.29131818441844
 1  5.29016113761376 -3.14991387218722 -1.01101602310231
 1  4.77640473677368 -2.52191424702470 -2.85342566486649
 1  4.89489229632963 -0.31931604040404 -1.61698838703870
 1 -9.49139866206621  0.91570246744674 -0.26547723392339
 1 -10.09705787088709  0.58851322972297 -2.16392613431343
 1  3.74213064446445  3.22020458905891  3.55626380858086
 1  6.24722972857286  0.91345555205521 -1.85931343454345
 1  4.78406941714171  5.77019011101110 -2.00898795379538
 1  3.72298030213021  5.72908997889789 -0.61826490969097
 1  5.50540231173117  5.27647410201020 -0.46601834993499
 1  1.26043358185819 -7.95683692619262  1.62320199329933
 1  7.77785906770677  2.50538784508451 -3.41294005620562
 1  6.59458090239024  3.83970154145415 -2.78973186228623

