%nproc=4
%Mem=2GB
# td=(NStates=1) B3LYP/SVP 

TD

0 1
 8 -5.37154251605160  0.42234634963496 -3.32806563936394
 8  2.99034586068607  2.92019774317432  3.18317458185819
 8  3.34085482328233  0.75215022412241  3.12444440564056
 8  1.80794493039304 -7.31909781418142  1.57265767556756
 8  0.71506825622562 -7.17195809980998 -0.31108503970397
 8  1.87895135443544  4.01226419341934 -0.07696943254325
 7 -2.41602220492049 -0.89995500210021  0.56367289438944
 7 -4.49372327622762  0.77703195179518 -1.24261619371937
 7  1.96562628972897 -0.71603358435844 -0.20026146424642
 7  2.61938320872087  1.83831228132813 -0.43256073107311
 6 -4.83845609190919  1.25652583198320  0.04003445994599
 6 -4.51394600000000  0.32181859955996  1.20875293599360
 6 -3.02502595879588  0.14805968836884  1.23950929102910
 6 -2.00393543784378  0.64205635263526  2.06460725892589
 6 -0.78831271877188  0.06274771627163  1.78450721292129
 6 -1.08881325632563 -0.82765787488749  0.72545925422542
 6 -6.40250634803480  1.41032278817882 -0.16356477027703
 6  0.50601408470847  0.24994291739174  2.56670133893389
 6 -6.68629106080608  1.11259356455646 -1.46215707340734
 6 -0.21745748774877 -1.94356965806581  0.26210338603860
 6  1.07475038623862 -1.89060157275728 -0.17273606680668
 6 -5.47707576567657  0.72858255145515 -2.19211865266527
 6  1.92291816171617 -2.95434901090109 -0.85917123372337
 6 -2.27488422962296  1.81125285728573  3.04506314631463
 6 -7.23802579477948  1.91145668166817  0.90115072897290
 6  3.08983451175118 -2.41049307360736 -1.10649180628063
 6  1.08947572017202  1.59615275747575  2.54208942734273
 6  3.05478201920192 -0.99509894929493 -0.80941457245725
 6  1.51065660356036 -4.40220460006001 -0.87673614751475
 6 -8.02691941284128  1.08304286868687 -2.22527724972497
 6  2.00442213231323 -5.22621886428643  0.46633295979598
 6  4.39879759615962 -3.06032729852985 -1.77076907430743
 6  3.99100804300430  0.04191585338534 -1.14060425552555
 6  2.51499411481148  1.70263443774377  3.02515242034203
 6  3.77812233813381  1.33115237153715 -1.02724849554955
 6 -9.25940411341134  0.96826467026703 -1.73771253385339
 6  1.44243155155516 -6.61074980448045  0.48833962666267
 6  4.62773683858386  2.47165922092209 -1.50432415891589
 6  4.03135877037704  3.62037619781978 -1.23912348364836
 6  2.75163391939194  3.24691639303930 -0.51248979597960
 6  5.97557556195620  2.29934180558056 -2.16180770957096
 6  4.34152494589459  5.05090660786079 -1.24824749664966
 6  6.63544109550955  3.28107452885289 -2.84684935303530
 1 -4.44724267496750  2.30787583248325  0.25478502050205
 1 -5.08528695779578 -0.67820281138114  1.10768201650165
 1 -4.85276539573957  0.80931516061606  2.23752588708871
 1 -2.87172458285829 -1.46992384988499 -0.15004739603960
 1 -3.49826551985199  0.45797887408741 -1.30250744804480
 1  0.40723730803080 -0.23542356885689  3.47267259945995
 1  1.33053149714972 -0.29349923392339  2.03849216961696
 1 -0.74347483998400 -2.81923988728873 -0.10769095069507
 1 -3.29661181318132  1.94510109540954  3.05474164176418
 1 -1.93425828522852  1.57280590809081  4.19467919251925
 1 -1.89067186648665  2.71603023882388  2.82883503750375
 1 -6.61396529162916  2.42659161126113  1.60318843764376
 1 -7.61401410971097  1.03214954335434  1.27131955455546
 1 -8.16023451475148  2.53220539063906  0.64267326452645
 1  1.31271345264526  1.96722933093309  1.44924493209321
 1  0.43319735983598  2.16763485128513  3.01150150465047
 1  1.64802042034203  0.23415980618062 -0.24099632573257
 1  1.99110736933693 -4.81396691989199 -1.74145220742074
 1  0.44877295769577 -4.52924283768377 -1.03701647134713
 1 -7.55582090709071  1.40436307030703 -3.31880279227923
 1  1.66942988308831 -4.66872117641764  1.35190487808781
 1  3.16874791769177 -4.99717619661966  0.24271821022102
 1  4.16097054085409 -4.32152968146815 -1.74552360496050
 1  5.27535965746575 -3.12615149594959 -0.95434035553555
 1  4.55470256655666 -2.72565462106211 -2.80641096339634
 1  5.05890869796980 -0.37049115791579 -1.69802649084909
 1 -9.55295481768177  0.57979887708771 -0.70910159635964
 1 -10.13708187328733  1.30613499189919 -2.32031177287729
 1  3.89615604700470  2.86193876247625  3.76366454865487
 1  6.33741874747475  1.38199240574057 -1.84376187938794
 1  4.55894690489049  5.48031112311231 -2.44459151415141
 1  3.69404740884088  5.72803987388739 -0.68243132633263
 1  5.25326709820982  5.07756421102110 -0.71763351145114
 1  1.07443498199820 -8.16540778327833  1.67885755885589
 1  7.60762204400440  2.87641494779478 -3.23294205640564
 1  6.48590003430343  4.25122269356936 -3.12511540064006

