%nproc=4
%Mem=2GB
# td=(NStates=1) B3LYP/SVP 

TD

0 1
 8 -5.41435679747975  0.12404651965197 -3.33465629842984
 8  2.88128495459546  3.11927765116512  3.24868113251325
 8  3.18712945074507  0.86132114121412  3.47860982218222
 8  1.58609274517452 -7.07639354375438  1.63849425922592
 8  0.50791754115412 -7.04291519551955 -0.34559849104910
 8  1.95862932223222  3.98909187618762 -0.15217695329533
 7 -2.39709031173117 -0.84812981958196  0.40927745484548
 7 -4.48341224512451  0.69071331993199 -1.28494042614261
 7  1.87211693879388 -0.67013899489949 -0.44837627572757
 7  2.70789205960596  1.86441489158916 -0.51572904790479
 6 -4.80463270957096  1.20931111051105 -0.06246579007901
 6 -4.44582918831883  0.35768218591859  1.15804786548655
 6 -2.99677313351335  0.03295817821782  1.30154549464946
 6 -1.99855489978998  0.42110425742574  2.17595839403940
 6 -0.75910979847985 -0.03854241274127  1.84592335453545
 6 -1.02163653865387 -0.91415652475248  0.72095880418042
 6 -6.32046814421442  1.44943669956996 -0.20040845464546
 6  0.53951743504350  0.28094601770177  2.45528019681968
 6 -6.73872630433043  0.94720702590259 -1.36958781648165
 6 -0.16069181118112 -1.80910621172117  0.04735191089109
 6  1.15164807600760 -1.76757927052705 -0.35073386658666
 6 -5.46977503560356  0.48444813801380 -2.15775521632163
 6  1.92818868876888 -2.94073764976498 -0.83359867646765
 6 -2.28186492769277  1.56193792579258  3.26902554255426
 6 -7.16583857605761  1.98261379737974  0.88591920582058
 6  3.07191271957196 -2.39206123042304 -1.29627078417842
 6  1.02648942154215  1.70181332353235  2.56870208860886
 6  3.13027956895690 -0.93645308470847 -1.13994762576258
 6  1.41631716961696 -4.25387976757676 -0.94280275417542
 6 -8.01154787568757  0.71673623802380 -2.05173989598960
 6  1.63025471557156 -5.02501874427443  0.38502482898290
 6  4.25730344674467 -3.19490075587559 -1.79783178057806
 6  4.02895183738374  0.06552821462146 -1.35687588268827
 6  2.51072368776878  1.76704087838784  3.11567147224722
 6  3.83878840474047  1.41070032633263 -1.01924769546955
 6 -9.19348752175217  0.86924476827683 -1.46682544514451
 6  1.17594490289029 -6.47052578207821  0.51613240594059
 6  4.77207127202720  2.50706276127613 -1.45907963446345
 6  4.07118275277528  3.64661882208221 -1.24180375167517
 6  2.77903665966597  3.22736443784378 -0.54602314931493
 6  6.18013601800180  2.32438430983098 -2.06185771457146
 6  4.56045683908391  5.00172168936894 -1.28062073397340
 6  6.99949750115012  3.12402882428243 -2.60723539163916
 1 -4.32315026572657  2.02546759165917  0.12807234923492
 1 -5.00813924302430 -0.58621361246125  0.76762801110111
 1 -4.86245636483648  0.70014424352435  2.15600773527353
 1 -2.67941535193519 -1.54470132763276 -0.17669006030603
 1 -3.61366706000600  0.82560563676368 -1.65252244954496
 1  0.47407399169917 -0.07387741424142  3.60364569676968
 1  1.36275471947195 -0.25518540254025  2.10509883028303
 1 -0.54811530403040 -2.67645560886089 -0.14125430703070
 1 -3.31207335933593  1.53466005130513  3.57189335693569
 1 -1.72932779217922  1.42265089258926  4.22955267986799
 1 -2.13193599289929  2.58584722052205  2.94709686368637
 1 -6.50078397349735  2.36167511961196  1.82422054085409
 1 -7.78557126542654  1.06288261666167  1.15161758435844
 1 -8.08296678797880  2.71254342444244  0.48706770397040
 1  1.02524470577058  2.15142775077508  1.55590559815982
 1  0.36403044314431  2.47508559635964  3.09613996849685
 1  1.72295791409141  0.35301169136914 -0.20743296939694
 1  1.82626088468847 -4.91841736493649 -1.71804986718672
 1  0.36488456885689 -4.07108702210221 -1.11659442914291
 1 -7.91043636863686  0.49098173217322 -3.08806971897190
 1  1.24543748384838 -4.53953825812581  1.23124281188119
 1  2.73796483938394 -4.95154163316332  0.40686462486249
 1  4.23679812361236 -4.18121565006501 -2.09190824342434
 1  5.17551967346735 -3.00436931773177 -1.04168909040904
 1  4.52394949124912 -2.70409246484648 -2.61847216951695
 1  5.12488529562956 -0.17816192499250 -1.63372006020602
 1 -9.32695221742174  1.06642753995400 -0.36760744694469
 1 -10.14760292539254  0.79813419181918 -2.06323606530653
 1  3.70368680008001  3.13418598719872  3.55827400960096
 1  6.72771777737774  1.35403961046105 -1.97697520072007
 1  4.51162217241724  5.55992908490849 -2.41679873487349
 1  4.04797280138014  5.82454952485249 -0.49518260146015
 1  5.69490126162616  5.29280573517352 -0.97093884198420
 1  1.09643718221822 -7.96002724522452  1.71257093019302
 1  8.22046332813281  2.99196650295030 -2.66298506070607
 1  6.68493993829383  4.38188575987599 -2.51364425352535

