%nproc=4
%Mem=2GB
# td=(NStates=1) B3LYP/SVP 

TD

0 1
 8 -5.41561692349235  0.00461457645765 -3.26311914471447
 8  2.94662148824882  3.18408413181318  3.34425068946895
 8  3.15849658745875  0.89760476957696  3.47328929012901
 8  1.52639677557756 -7.30716662106211  1.37791820162016
 8  0.45262201160116 -6.92798370237024 -0.59910384158416
 8  1.93872733203320  4.02585555255526 -0.05075681128113
 7 -2.31357195989599 -0.86061106770677  0.61500802790279
 7 -4.36302020592059  0.59405365396540 -1.26851878397840
 7  1.93637336443644 -0.75420740174017 -0.32144358245825
 7  2.64702597299730  1.82541099119912 -0.61718919391939
 6 -4.73574582088209  1.22256243564356 -0.06984652815282
 6 -4.33220782618262  0.41053747144714  1.12057411811181
 6 -2.96398985518552  0.05729061146115  1.30398573867387
 6 -1.96509155345535  0.75042718971897  2.06573737193719
 6 -0.76679056655666  0.03804524602460  1.89980874307431
 6 -1.01622599759976 -0.83818892799280  0.88506521482148
 6 -6.31852795019502  1.33864562046205 -0.23304171797180
 6  0.50135361866187  0.36405432853285  2.64028869766977
 6 -6.68575100680068  0.85665797099710 -1.42395325302530
 6 -0.20143588558856 -1.92109741084108  0.34480165586559
 6  1.11446435763576 -1.86411892449245 -0.14406319951995
 6 -5.42877093519352  0.36045573877388 -2.14641408220822
 6  1.84424029392939 -2.93723729972997 -0.81748706530653
 6 -2.15247198839884  1.87742947494749  3.05471411141114
 6 -7.08548054025403  1.90338587458746  0.87538815271527
 6  3.11609713801380 -2.46916894119412 -1.17038819591959
 6  1.12040881348135  1.88860200240024  2.54512973137314
 6  3.04552109310931 -1.00077951735173 -0.91718534953495
 6  1.37455299319932 -4.26568094769477 -0.97958643254325
 6 -7.95429215011501  0.67976254065407 -2.11981670367037
 6  1.66670836093609 -5.17795403780378  0.34957128362836
 6  4.13224094049405 -3.17677894369437 -1.85384738213821
 6  3.94605354755476 -0.01214955315532 -1.36180637573757
 6  2.53177579297930  1.94989916421642  3.16628653375338
 6  3.74130865676568  1.34619387568757 -1.17216298699870
 6 -9.18682685568557  0.88237608140814 -1.55240400300030
 6  1.19090639903990 -6.58228695819582  0.31646243894389
 6  4.78649271417142  2.51375343034303 -1.50607433393339
 6  4.09587522202220  3.67596175637564 -1.20333990529053
 6  2.70844960096010  3.28835053645365 -0.56617516451645
 6  6.01800980538054  2.21593346474647 -2.16157768656866
 6  4.47830862426243  5.15284680188019 -1.29857252915292
 6  6.91299885128513  3.21309773117312 -2.46022069016902
 1 -4.31384933563356  2.21846689158916  0.04875441744174
 1 -4.85913434253425 -0.52541753285329  1.17253850215022
 1 -4.81736185538554  0.78222245134514  2.03908604310431
 1 -2.61727913831383 -1.25362221972197 -0.24624701600160
 1 -3.40481617491749  0.43626670287029 -1.45484268156816
 1  0.14164074837484  0.19013898739874  3.57195252745275
 1  1.41155959996000 -0.41165104910491  2.25752407280728
 1 -0.64984547704770 -2.88964692799280  0.21386120452045
 1 -3.24426657865787  1.96081266656666  3.37102326992699
 1 -1.54640950035004  1.94843347084708  3.97360708530853
 1 -2.12452525182518  2.95835447124712  2.51100325432543
 1 -6.47600149524953  2.56901585368537  1.49282740154015
 1 -7.64915762406241  1.13662999139914  1.50784320692069
 1 -7.90209870117012  2.60225239533953  0.47494649184919
 1  1.21307348864886  2.27956056405641  1.51773178077808
 1  0.57382142224222  2.67556564436444  2.95793614811481
 1  1.82927854615462  0.41681807200720 -0.21598382448245
 1  1.99505776437644 -4.93058858205821 -1.62962102430243
 1  0.35691377177718 -4.58485839923992 -1.27863063276328
 1 -7.91676700170017  0.36557919191919 -3.20302121412141
 1  0.87000994109411 -4.80381468576858  1.40965065266527
 1  2.75634667756776 -5.04078055705571  0.62879681808181
 1  3.92851729552955 -4.09692722122212 -2.04170322292229
 1  5.22574469596960 -3.27418629942994 -1.37378229972997
 1  4.47478457475748 -2.83997605320532 -2.72829315161516
 1  4.80481328842884 -0.45269937873787 -1.85767245544554
 1 -9.40806032823282  1.21669256645665 -0.49859054525453
 1 -9.89950811591159  0.59020339873987 -2.36260600230023
 1  3.73704013541354  3.04460702930293  4.00854903710371
 1  6.38104310991099  1.26949115561556 -2.19421692489249
 1  4.70288129832983  5.43462655465547 -2.29512656765677
 1  3.76067407150715  6.04946201610161 -0.94098718191819
 1  5.42113388488849  5.48775523012301 -0.61099284738474
 1  1.20035757425743 -8.34871611411141  1.16916658975898
 1  7.95438672047205  2.86374368066807 -2.76604536673667
 1  6.77655910021002  4.28708627992799 -2.24284717381738

