%nproc=4
%Mem=2GB
# td=(NStates=1) B3LYP/SVP 

TD

0 1
 8 -5.29365472727273  0.07608172317232 -3.28928176097610
 8  3.00448727482748  2.85682140554055  3.40935720012001
 8  3.29031976977698  0.65291030013001  3.28207016821682
 8  1.77721185708571 -7.36875277967797  1.39313972377238
 8  0.42693944334433 -7.02927383138314 -0.45328926012601
 8  1.86610006930693  4.07276024302430 -0.16541827742774
 7 -2.41992259495950 -0.86532153875388  0.72579910701070
 7 -4.31795569946995  0.52694694329433 -1.17499943204320
 7  1.78447817491749 -0.64012599359936 -0.21913335143514
 7  2.62645391579158  1.95446389648965 -0.58739621462146
 6 -4.81536378267827  1.28980916031603 -0.01874141764176
 6 -4.48904350975098  0.41289770747075  1.26313837453745
 6 -3.02729618581858  0.10778566096610  1.39102444254425
 6 -2.07285232953295  0.76220836783678  2.10936173437344
 6 -0.79769365686569  0.06582802430243  1.81747050925093
 6 -1.06341071607161 -0.95462057115712  0.89626633493349
 6 -6.35704180158016  1.37516927282728 -0.28289670347035
 6  0.53489697299730  0.15867379047905  2.58853352215222
 6 -6.62875530723072  0.94515682088209 -1.51588244594459
 6 -0.26440218221822 -1.88296359745975  0.19938711441144
 6  1.01677458865887 -1.79581209380938 -0.25198399159916
 6 -5.41739979807981  0.45894558775878 -2.13823326412641
 6  1.85751162106211 -2.92005558155816 -0.77519283588359
 6 -2.16822356355636  1.86907863986399  3.29760840084008
 6 -7.23567555975598  2.09553508950895  0.76365697959796
 6  3.08824435273527 -2.37976000030003 -1.12725388248825
 6  1.12029880248025  1.60922406460646  2.59391460986099
 6  3.07895443644364 -0.97960740014001 -0.79675330633063
 6  1.45503104100410 -4.30814519411941 -0.85452392629263
 6 -7.82859958085809  0.80223478787879 -2.17841256325633
 6  1.73892558265827 -5.15579182158216  0.51102742924292
 6  4.23356107250725 -2.96969823562356 -1.75264726212621
 6  4.01420036223622  0.00619228102810 -1.18861905700570
 6  2.57586020142014  1.61774594889489  3.15880578567857
 6  3.73422794869487  1.39582883918392 -1.07962373307331
 6 -9.13807198019802  0.90697854165417 -1.84597335993599
 6  1.28760606900690 -6.58020675017502  0.34992578527853
 6  4.64858892379238  2.56369842484248 -1.61268499499950
 6  4.09494512901290  3.69662382258226 -1.24762433373337
 6  2.76871562756276  3.26585828722872 -0.62706125312531
 6  5.97389539393939  2.36152802420242 -2.17195872467247
 6  4.55128592199220  5.14018553575358 -1.42100477237724
 6  6.77994554595459  3.29273569496950 -2.80455512361236
 1 -4.36187413811381  2.24739978487849  0.31181072307231
 1 -5.08317674677468 -0.46163115421542  1.12215346364636
 1 -4.69957007620762  1.02276650575058  2.29346148064807
 1 -3.12305971637164 -1.51476833433343  0.10339794849485
 1 -3.42085777907791  0.59678275447545 -1.65620281758176
 1  0.52278886318632  0.06703667716772  3.69131446364636
 1  1.20439888388839 -0.46078596259626  2.38824714511451
 1 -0.83679417191719 -2.91222918621862  0.05583540194019
 1 -3.34383653565356  1.87577416271627  3.63088925652565
 1 -1.58483334273427  1.67299592709271  4.23888361296130
 1 -1.76373917321732  3.01812044784478  2.80135228922892
 1 -6.59610350545055  2.79112806490649  1.41274939373937
 1 -7.74591730003000  1.12382871127113  1.25821824442444
 1 -8.03599209050905  2.76126829692969  0.15499449664967
 1  1.00696287758776  2.30377298529853  1.57757776537654
 1  0.56808084818482  2.35201328912891  3.44248460296030
 1  1.54520013831383  0.45687207740774 -0.20349257535754
 1  2.17830608920892 -5.09824534773477 -1.46268433063306
 1  0.31685976637664 -4.56241615501550 -1.05491826152615
 1 -7.68075340034003  0.61603423742374 -3.36707761976198
 1  1.20827376747675 -4.59921422572257  1.35440512811281
 1  2.79170021292129 -5.40022650165016  0.55975991439144
 1  4.17678212201220 -3.93793132163216 -2.07960701330133
 1  5.05882800430043 -2.92328120892089 -1.07494241574157
 1  4.29817691399140 -2.31047310291029 -2.78636895919592
 1  4.95980878797880  0.00433632483248 -1.83983067126713
 1 -9.30426994919492  0.92257315451545 -0.69155984218422
 1 -9.87569573467347  1.07219159755976 -2.64586432813281
 1  3.89965639703970  2.76812938153815  3.58955713791379
 1  6.02852785838584  1.33841804830483 -2.34962246544654
 1  4.71086209640964  5.34156724872487 -2.46716377137714
 1  3.56980498459846  5.77542461236124 -1.15132821602160
 1  5.38456022752275  5.28232468706871 -0.61863361146115
 1  1.33120065856586 -8.26828807130713  1.49043871697170
 1  7.71352263406341  2.78975628192819 -3.55207396959696
 1  6.62460390469047  4.35149272057206 -2.80469335843584

