%nproc=4
%Mem=2GB
# td=(NStates=1) B3LYP/SVP 

TD

0 1
 8 -5.35442080388039  0.20650476547655 -3.33125595839584
 8  2.96725355145515  2.96870259365937  3.27559382378238
 8  3.29936067386739  0.79712472157216  3.38681064226423
 8  1.61755589148915 -7.25836174057406  1.46541695149515
 8  0.47291404080408 -6.94605550955096 -0.53614754595460
 8  1.85018847814781  3.96025899289929 -0.10729246484648
 7 -2.36367697039704 -0.92577758435844  0.54454098119812
 7 -4.40725462936294  0.63006725532553 -1.26607853995400
 7  1.89039876697670 -0.71343332433243 -0.25166660476048
 7  2.57628889928993  1.86042449254926 -0.56096357135714
 6 -4.77597984428443  1.27193737313731 -0.01009055255526
 6 -4.41802640804080  0.38214463216322  1.30601266196620
 6 -2.92786624282428  0.00709559195920  1.31477681778178
 6 -1.95536058035804  0.64667681468147  2.05606640484048
 6 -0.70298418591859  0.07053849534953  1.81162992519252
 6 -0.97053142814281 -0.89624473357336  0.75289199749975
 6 -6.35386148354836  1.42485424132413 -0.26043445724572
 6  0.52950643394339  0.28607653075308  2.65876054485449
 6 -6.72214464616462  0.95356766196620 -1.44445530323032
 6 -0.19482522452245 -1.82274757585759  0.14290146584658
 6  1.14516742794279 -1.81749426202620 -0.23455224842484
 6 -5.48760681878188  0.43335302850285 -2.16149559035904
 6  1.96002187208721 -2.95360893689369 -0.76996231283128
 6 -2.21646838803880  1.73353508550855  3.22275091509151
 6 -7.12623461566157  2.16334187018702  0.77761837573757
 6  3.19248477677768 -2.38109013331333 -1.15187634473447
 6  1.12361913451345  1.68255139733973  2.63742896129613
 6  3.07610415141514 -0.99164860426043 -0.89429306030603
 6  1.56997253515352 -4.33512789238924 -0.89866834073407
 6 -7.95750247114711  0.94317888228823 -2.12062678467847
 6  1.62015370547055 -5.14864110651065  0.48516484298430
 6  4.45544326072607 -3.09232049784978 -1.72317431483148
 6  4.03717265946595  0.03624528632863 -1.18819901500150
 6  2.51517413281328  1.68192236653665  3.17276718181818
 6  3.78279280518052  1.39099835613561 -1.03539931063106
 6 -9.22974114711471  0.72970081388139 -1.60933969656966
 6  1.21487879627963 -6.55144387388739  0.29400019271927
 6  4.68693275817582  2.51565362036204 -1.41957568406841
 6  4.01389702420242  3.70301446164616 -1.26453602490249
 6  2.71012976897690  3.26858856025603 -0.66545509250925
 6  6.02554055845585  2.29655152655266 -2.01453298209821
 6  4.24200499389939  5.10770228742874 -1.63060573247325
 6  6.79458701010101  3.18060448184819 -2.63287795589559
 1 -4.19787773847385  2.18733377827783 -0.00183064106411
 1 -5.21942037113711 -0.40372536363636  1.31620286858686
 1 -4.98254837403740  0.80457468656866  2.10595272977298
 1 -2.83020043044304 -1.39687654515452 -0.19649204050405
 1 -3.47701339463946  0.89527260346035 -1.68364556185619
 1  0.25609219351935 -0.19217924442444  3.59498483068307
 1  1.24247269126913 -0.33730361436144  2.16413473387339
 1 -0.78546903940394 -2.70524848814881 -0.19680986258626
 1 -3.23383553555356  1.85989257455746  3.55937210481048
 1 -1.63832869226923  1.56957558505851  4.18483820842084
 1 -1.99498229752975  2.86571520732073  2.96741889588959
 1 -6.54725862096210  2.87782673477348  1.37620573937394
 1 -7.78996170447045  1.35624195259526  1.55919834243424
 1 -7.89808830013001  2.89679184928493  0.40273927112711
 1  1.21302348364836  2.19225183318332  1.66117612521252
 1  0.53182722282228  2.29709779757976  3.25358571307131
 1  1.72731835013501  0.33403979417942 -0.19971219731973
 1  2.05903416201620 -4.86253177637764 -1.59287734993499
 1  0.42620070047005 -4.37343725712571 -1.18716148584858
 1 -7.96607193219322  1.10418305230523 -3.25957686968697
 1  0.94888782888289 -4.75849015331533  1.37421710931093
 1  2.72422346524652 -5.24904138313831  0.90329426782678
 1  4.14881932573257 -4.20540806930693 -1.89389844244424
 1  5.58123024452445 -3.11809068986899 -1.17113203470347
 1  4.57840493679368 -2.78651070667067 -2.58799912221222
 1  4.83460626772677 -0.21623573237324 -1.82826951515152
 1 -9.45045456765677  0.36650754795479 -0.59293998019802
 1 -10.15765393049305  0.85078945734573 -2.29361910361036
 1  4.08466489788979  2.74958752735274  3.35851403360336
 1  6.57858286388639  1.30057426392639 -1.76031353455346
 1  3.87331834203420  5.23545663766377 -2.67540459545955
 1  3.73147115121512  5.59032610251025 -0.94163724692469
 1  5.36997876937694  5.17375382998300 -1.52656440454045
 1  1.15490302880288 -8.22084332683268  1.52192186528653
 1  7.81976325812581  2.82066937323732 -2.96617537973797
 1  6.53692513681368  4.22445001630163 -2.93607649674967

