%nproc=4
%Mem=2GB
# td=(NStates=1) B3LYP/SVP 

TD

0 1
 8 -5.30195555735574  0.12638675367537 -3.36281911471147
 8  2.85658248434843  3.30922664606461  3.11820808520852
 8  3.22693343114311  1.09120412951295  3.39669163036304
 8  1.47956209210921 -7.26523242764276  1.47267767756776
 8  0.26127287668767 -6.84594549854986 -0.39830376157616
 8  2.04761822112211  4.06473944094409  0.04287255165517
 7 -2.37855845854585 -1.07533253985399  0.69980650775078
 7 -4.30224412831283  0.75134938353835 -1.28838077017702
 7  1.90235996309631 -0.72640462146215 -0.32869430753075
 7  2.67603887428743  1.84807325742574 -0.50371784678468
 6 -4.79431167746775  1.21313149254925 -0.04406394989499
 6 -4.44951955735574  0.23202962066207  1.22321438213821
 6 -3.00340379657966  0.00485536793679  1.34590993109311
 6 -2.00597564186419  0.61458360536054  2.07091788998900
 6 -0.74223811131113  0.09866130763076  1.75164392659266
 6 -1.01574594959496 -0.98115322442244  0.82624933323332
 6 -6.30381647904791  1.46733848974897 -0.21119953375338
 6  0.57869135243524  0.38540646374637  2.43686835563556
 6 -6.67572000370037  0.87144945014501 -1.38114897259726
 6 -0.17776351835184 -1.86655195629563  0.18067524322432
 6  1.09039195039504 -1.91071358395840 -0.34414320752075
 6 -5.40519857795779  0.41186087928793 -2.14257369816982
 6  1.91803767366737 -2.94623819981998 -0.86498181478148
 6 -2.18827556875688  1.70881261326133  3.16868550855086
 6 -7.13922591479148  1.84660019601960  0.90682129602960
 6  3.12201773007301 -2.39780180448045 -1.29882103920392
 6  1.06046281888189  1.83936707890789  2.45821103950395
 6  3.09574611561156 -0.94103354275428 -1.01472510351035
 6  1.34161969986999 -4.41303568316832 -0.92767124102410
 6 -7.95640236113611  0.70178474287429 -2.13733845584558
 6  1.67204889498950 -5.08894513691369  0.45051137763776
 6  4.20840855725573 -3.08519978577858 -2.02274427182718
 6  3.98346728892889 -0.01694003220322 -1.33799399449945
 6  2.39876249164916  2.00545471977198  2.97403730883088
 6  3.74645917181718  1.34326358265827 -1.09625539623962
 6 -9.16761493449345  0.63462130593059 -1.59407817041704
 6  1.04637194559456 -6.46641537103710  0.48714950765077
 6  4.80734479937994  2.48543059805981 -1.39491321782178
 6  4.20704633913391  3.61725588578858 -0.95522509380938
 6  2.90025878187819  3.25668737013701 -0.31726027302730
 6  6.03929193359336  2.30956282768277 -2.03493502230223
 6  4.70704149754975  5.02881439863986 -1.04761743364336
 6  6.80372792419242  3.18626504790479 -2.86069073717372
 1 -4.31723967466747  2.21638668356836  0.24345388738874
 1 -4.94111254035404 -0.75173016411641  0.94360560886089
 1 -4.80328044724472  0.71652588168817  2.08340047454745
 1 -2.89713712411241 -1.60925778327833 -0.13195558685869
 1 -3.41661735503550  0.83200627682768 -1.51650884818482
 1  0.63037962226223  0.08420839433943  3.42746807900790
 1  1.50465890989099 -0.25245512951295  2.12829114951495
 1 -0.73255374787479 -2.78962692599260 -0.11678185978598
 1 -3.28921107310731  1.97683426872687  3.20240640824082
 1 -2.00722558195820  1.35343397089709  4.25011473607361
 1 -1.65760856015602  2.60590922672267  2.94889704370437
 1 -6.78901279637964  2.62223117521752  1.59948806760676
 1 -7.63887659595960  1.07706403480348  1.50843326592659
 1 -7.98841733303330  2.40528269836984  0.49461845904590
 1  1.15758794009401  2.08329093709371  1.48942895049505
 1  0.29671371147115  2.58012610041004  2.86710706520652
 1  1.65639125742574  0.33317970817082 -0.12655488158816
 1  1.80162842144214 -4.96133165636564 -1.82840090229023
 1  0.20510859125913 -4.21558147154716 -1.19544231393139
 1 -7.92378770377038  0.63886652065207 -3.13002391439144
 1  1.56087902800280 -4.55571987628763  1.38797848544855
 1  2.78569961286129 -5.19880635963596  0.51967590599060
 1  3.65045948974897 -4.11600912941294 -2.69710876347635
 1  5.00941306280628 -3.45889477027703 -1.21754667616762
 1  4.64008110441044 -2.48099015461546 -2.81405172747275
 1  5.04596740384038 -0.32526663546355 -1.66049273747375
 1 -9.22886240844085  0.33992488968897 -0.46069675587559
 1 -10.09031719681968  0.78124250265027 -2.13954369606961
 1  3.65693212461246  3.16052862146215  3.42838102030203
 1  6.38944394999500  1.21847605410541 -1.91051855505551
 1  4.29522053225323  5.74453754575458 -1.97037409240924
 1  4.35543354745475  5.30681775167517  0.11917883468347
 1  5.99785155665567  4.95490194479448 -1.07404915301530
 1  1.14007154565457 -8.14951619411941  1.32502217531753
 1  7.66434771657166  2.76656396269627 -3.30574933713371
 1  6.59982142644264  4.32325989728973 -3.18059094819482

