%nproc=4
%Mem=2GB
# td=(NStates=1) B3LYP/SVP 

TD

0 1
 8 -5.36323168496850  0.37091120612061 -3.30458329112911
 8  2.87311413751375  3.05318104150415  3.15586185058506
 8  3.17760849864987  0.84850986008601  3.08403036423642
 8  1.89146328222822 -7.11200710511051  1.45785619541954
 8  0.70207695709571 -7.17085798979898 -0.32811674287429
 8  1.84225768506851  3.89288225522552 -0.27210894649465
 7 -2.41691229392939 -0.94468947554755  0.59893642074207
 7 -4.43365726962696  0.78283253185319 -1.26666859895990
 7  1.76539626672667 -0.68884086508651 -0.40571200930093
 7  2.66173744414441  1.74725317541754 -0.47717519251925
 6 -4.88257050335034  1.34730490989099 -0.07281682518252
 6 -4.51693629902990  0.32241865956596  1.24622668336834
 6 -3.05721917811781 -0.02290740834083  1.29886522662266
 6 -2.05090013431343  0.66229837683768  1.97972877107711
 6 -0.75516940444044  0.17909935143514  1.70567933013301
 6 -1.04119849484949 -0.90632574167417  0.77698440674067
 6 -6.41687778517852  1.51547330323032 -0.16392480628063
 6  0.52589607290729  0.37714563766377  2.44364903370337
 6 -6.78085051675167  0.91989429462946 -1.31329218691869
 6 -0.22046778877888 -1.85229053015302  0.05973314901490
 6  1.04207711891189 -1.94177669026903 -0.36968576177618
 6 -5.55342340044004  0.58202789598960 -2.06865630643064
 6  1.83960983088309 -2.99178275427543 -0.97070238683868
 6 -2.20765750695070  1.85578731073107  3.03765240524052
 6 -7.15861785398540  2.16158169416942  0.89769038293829
 6  3.12057758605861 -2.40923294759476 -1.21510266736674
 6  1.02285905850585  1.75717886008601  2.46696191459146
 6  3.08207474847485 -1.04288372777278 -0.95721935293529
 6  1.40906644454445 -4.42185656525653 -0.97319579347935
 6 -8.02451917281728  0.73807837223722 -2.02414713671367
 6  1.74672636273627 -5.08944518691869  0.41235756225623
 6  4.33243095949595 -3.14677594339434 -1.75545754315432
 6  4.07667660986099 -0.08445678387839 -1.26821701680168
 6  2.46851946734673  1.79820399469947  2.99728963406341
 6  3.80539506540654  1.27025628192819 -0.94193996469647
 6 -9.17092526552655  0.77760560436044 -1.35408417101710
 6  1.47667497589759 -6.56560529002900  0.43079387208721
 6  4.72039610451045  2.43750580558056 -1.36204993149315
 6  4.06009164366437  3.64791895209521 -1.23559313061306
 6  2.71734049004901  3.16556825822582 -0.57805635263526
 6  6.21619962436244  2.32394426582658 -1.65650717951795
 6  4.48413920732073  5.06485800300030 -1.20770344224422
 6  6.98480603200320  3.13805022642264 -2.40064473257326
 1 -4.41982993369337  2.31551659655966  0.19224876687669
 1 -5.17025545464546 -0.55421041214121  1.06019726802680
 1 -4.84826494569457  0.86074030313031  2.20718285278528
 1 -2.79782719311931 -1.59144600210021 -0.07298969026903
 1 -3.42061775507551  0.82977605380538 -1.55706290359036
 1  0.16113269756976 -0.03073309980998  3.54370970317032
 1  1.36052449644964 -0.17681756575658  2.09220754115412
 1 -0.91270176267627 -2.74242220552055 -0.11737191879188
 1 -3.32268442044204  2.21145773107311  2.93066923452345
 1 -1.85360021942194  1.66104473197320  4.12400212481248
 1 -1.58508130743074  2.66137477327733  2.72588474247425
 1 -6.49495339043904  2.71392034413441  1.51817993679368
 1 -7.79393210151015  1.36522285068507  1.42904532713271
 1 -8.05507399869987  2.87015918601860  0.48571756895690
 1  1.10349253055306  2.09815242324232  1.50524053165317
 1  0.32996703680368  2.62420050785078  3.07301765626563
 1  1.54615023332333  0.28297468766877 -0.00681290739074
 1  2.17496575517552 -4.74299982318232 -1.89084714691469
 1  0.36653473387339 -4.50334024742474 -1.37132990269027
 1 -7.95729105410541  0.49997263126313 -3.21738265026503
 1  1.02755569566957 -4.60809511381138  1.10648033563356
 1  2.86264730763076 -4.99720619961996  0.68467240564056
 1  3.95070951475148 -4.19945747424743 -1.98679773237324
 1  5.09085120662066 -3.16736561736174 -1.00536545804580
 1  4.78090518681868 -2.68483053865387 -2.72532285458546
 1  5.07574038113811 -0.22609671847185 -1.57013370157016
 1 -9.32198172037204  1.09698059525953 -0.21039172537254
 1 -9.98729689478948  0.65942032043204 -2.08952869456946
 1  3.81918835023502  2.91398396699670  3.37306548874888
 1  6.82574758035804  1.33940814731473 -1.26539404260426
 1  4.25606661686169  5.30335342734273 -2.32615967096710
 1  4.00318832293229  5.89277634753475 -0.53087617081708
 1  5.46181795329533  4.83140959555956 -1.05613736183618
 1  1.80786832533253 -8.09324056655666  1.39759943304330
 1  7.96615789758976  2.71746905320532 -2.57193595579558
 1  6.71898334263426  4.24086165746575 -2.65911880098010

