%nproc=4
%Mem=2GB
# td=(NStates=1) B3LYP/SVP 

TD

0 1
 8 -5.20863622542254 -0.07061294629463 -3.30892372517252
 8  2.89459628572857  3.18226394979498  3.31887815221522
 8  3.31619235703570  0.91726673577358  2.99120108130813
 8  1.49852398829883 -7.21059696409641  1.37922833263326
 8  0.36623337273727 -7.02502340634063 -0.53206713791379
 8  1.97110056935694  3.94983795079508  0.01030929532953
 7 -2.40585118781878 -0.85543054965497  0.67617414451445
 7 -4.27958186208621  0.58326257485749 -1.27002893499350
 7  1.80695042214221 -0.65311729272927 -0.40919235733573
 7  2.67133840424042  1.83716216631663 -0.46200367536754
 6 -4.75226747304731  1.25608578797880 -0.03505304880488
 6 -4.45885049044904  0.42325874357436  1.30850291099110
 6 -3.01826528272827  0.12165704810481  1.43473881398140
 6 -2.05375041934193  0.81662380938094  2.12226302450245
 6 -0.80323421092109  0.21393283478348  1.83787254945495
 6 -1.01382575757576 -0.78909401850185  0.80826753505351
 6 -6.21834793219322  1.44797655355536 -0.27882629642964
 6  0.54632811611161  0.42042996609661  2.57092176097610
 6 -6.58454088578858  0.74881718691869 -1.42954381208121
 6 -0.25586132813281 -1.87073237433743  0.15476265196520
 6  1.03678658985899 -1.83763627622762 -0.32711150435044
 6 -5.33441149924992  0.35195488868887 -2.20863030383038
 6  1.87931380128013 -2.95368894489449 -0.84925024162416
 6 -2.22114885608561  1.68830056205621  3.28565720572057
 6 -7.13700569276928  2.04906044204420  0.84223483738374
 6  3.01685721402140 -2.38951097539754 -1.26034719181918
 6  1.18236500910091  1.81866500870087  2.61545676407641
 6  3.02313885488549 -0.92802224162416 -0.98790242124212
 6  1.40279581748175 -4.34846922652265 -0.92953142704270
 6 -7.84067078797880  0.54816938133813 -2.15156987898790
 6  1.55952764286429 -5.06410265266527  0.46419274577458
 6  4.24726244264426 -3.01754302010201 -1.88201019841984
 6  4.03980292249225 -0.02120045824582 -1.29778997409741
 6  2.53913652905291  1.92176635093509  2.94853475857586
 6  3.80430495639564  1.35960521682168 -0.97128289898990
 6 -9.10456862986299  0.65619346314631 -1.57232599519952
 6  1.04655196359636 -6.56499522902290  0.30617140984098
 6  4.76236030093009  2.44987704270427 -1.39700342684268
 6  4.13081871637164  3.61730589078908 -1.11087065836584
 6  2.75139389538954  3.24797649904991 -0.50582912991299
 6  6.05601360576058  2.24813668506851 -2.00419194799480
 6  4.53623441684168  5.11416293349335 -1.11496416831683
 6  6.70430798219822  3.11897831923192 -2.69967463556356
 1 -4.21508945964596  2.18753379827983  0.09169871187119
 1 -5.11789021812181 -0.36348133923392  1.47992924122412
 1 -4.76264638383838  0.88306253535354  2.27867000150015
 1 -3.08527593799380 -1.12302916041604  0.02264987368737
 1 -3.41473716701670  0.34779785598560 -1.81644884218422
 1  0.50776736103610 -0.11579160566057  3.61793712591259
 1  1.52450089408941 -0.17060694469447  2.11958027842784
 1 -0.84341483398340 -2.77413537683768 -0.02527270887089
 1 -3.23631578357836  1.79165575087509  3.53270943854385
 1 -1.53475833523352  1.29837846534653  4.00387011161116
 1 -1.86406920622062  2.74196283208321  2.99828198219822
 1 -6.70825472057206  2.78158711081108  1.51141926072607
 1 -7.66010871917192  1.21350767916792  1.47352977557756
 1 -7.93195168646865  2.68802097219722  0.19943894109411
 1  1.07002918421842  2.33245585358536  1.72727273487349
 1  0.48385242534253  2.27189527732773  3.45167552205221
 1  1.59669528782878  0.32850924112411 -0.07450967706771
 1  1.79860811941194 -4.96343186638664 -1.65757381958196
 1  0.39599768016802 -4.25388530193019 -1.17380014971497
 1 -7.61823714871487  0.27272990699070 -3.09467037903790
 1  0.93842678277828 -4.66949125342534  1.41804149174918
 1  2.50402144504450 -5.20062654165416  0.63430736913691
 1  4.06955139893989 -4.13604113261326 -2.12153120572057
 1  5.16292841434143 -2.86622550335034 -1.09423434493449
 1  4.53447054335434 -2.61019307490749 -2.91591191349135
 1  4.89244205130513 -0.40944505330533 -1.67565425362536
 1 -9.19414893709371  0.80152104930493 -0.46019670587059
 1 -9.93681184628463  0.31961634003400 -2.29685942764276
 1  3.86412284368437  3.05860842944294  3.79247742994299
 1  6.11079608520852  1.19956416291629 -2.18626612981298
 1  4.51255226542654  5.54882797479748 -2.15673272827283
 1  3.94252225632563  5.65067213711371 -0.42107519071907
 1  5.57482925442544  5.10886734133413 -0.83325507360736
 1  1.05349288778878 -8.06261750425042  1.28054772787279
 1  7.70441172297230  2.94564187048705 -3.05690445264526
 1  6.37855930023002  4.21833940524052 -3.01855474457446

