%nproc=4
%Mem=2GB
# td=(NStates=1) B3LYP/SVP 

TD

0 1
 8 -5.47384274607461  0.02497661266127 -3.26214904770477
 8  3.02317914401440  3.09968569196920  3.03998026242624
 8  3.29153989178918  0.92959796889689  3.02083404460446
 8  1.44050818671867 -7.26939284368437  1.38203861366137
 8  0.22301905130513 -6.82003290729073 -0.40238416961696
 8  2.19350280958096  4.05301826882688  0.07347561196120
 7 -2.42559316201620 -0.92554756135614  0.70337686478648
 7 -4.57097100100010  0.58090233883388 -1.27217915001500
 7  1.94329405650565 -0.63078505950595 -0.39153059115912
 7  2.74559582998300  1.86683513361336 -0.60998847384738
 6 -5.02494474077408  1.11395157455746 -0.03163270677068
 6 -4.46278088348835  0.30848726642664  1.33305536623662
 6 -3.06727018321832  0.08985386778678  1.41362670277028
 6 -2.06155119941994  0.71146329332933  2.10447124532453
 6 -0.80216410391039  0.04256569806981  1.69139790199020
 6 -1.07603197819782 -0.86388149724973  0.80441715001500
 6 -6.47004310171017  1.28299005490549 -0.08999741354135
 6  0.54448793209321  0.33985190829083  2.42066673547355
 6 -6.83324575627563  0.78684098929893 -1.38199905760576
 6 -0.12772851485149 -1.84019932103210  0.18939611531153
 6  1.11543445464546 -1.79808232083208 -0.32283107630763
 6 -5.63821187928793  0.41787148034803 -2.15665510631063
 6  1.90090596049605 -2.84893846984698 -0.79699501610161
 6 -2.10056679787979  1.81440317231723  3.07415605560556
 6 -7.37938993119312  1.74970050605060  0.87159777367737
 6  3.19149467776778 -2.39232125642564 -1.20067122422242
 6  1.07050382298230  1.79926306850685  2.38805402380238
 6  3.18742528352835 -0.93405284468447 -0.92172580358036
 6  1.49003454135414 -4.32102648224823 -0.87700617451745
 6 -8.14892161306131  0.76561112551255 -2.06897161916192
 6  1.61476316641664 -5.04265050745075  0.50095642214221
 6  4.38207592399240 -3.02401366716672 -1.81172316971697
 6  4.16482542474247 -0.01028936713671 -1.32412260736074
 6  2.52362497789779  1.85273944824482  2.77536744184418
 6  3.87712223812381  1.38209746604660 -1.16011178187819
 6 -9.41483965696570  0.59132697649765 -1.52964172677268
 6  1.04074138253825 -6.45137386688669  0.38759955265527
 6  4.90188425332533  2.54467652265227 -1.39850357685769
 6  4.26842247674767  3.63266742694269 -1.12193176447645
 6  2.91204996099610  3.29681138253825 -0.47363591059106
 6  6.20880888528853  2.24479635103510 -1.94129565836584
 6  4.74141493489349  5.13414493169317 -1.15718839073907
 6  7.21098865026503  3.13263968536854 -2.13744841294129
 1 -4.57027497819782  2.12850789568957  0.06230577257726
 1 -5.13596202530253 -0.69803479457946  1.48207945624562
 1 -4.57545766496650  1.24427865696570  2.07674980948095
 1 -3.03931134153415 -1.36133299079908  0.00349795849585
 1 -3.69495518881888  0.68281135733573 -1.81644884218422
 1  0.37576416071607  0.13314328782878  3.47463279547955
 1  1.22034047804780 -0.23184306830683  1.93515183558356
 1 -0.67738823132313 -2.66711467476748 -0.15656583818382
 1 -3.24002615461546  2.26097268256826  3.36796296389639
 1 -1.68249310871087  1.59101772927293  3.94331405600560
 1 -1.49278207750775  2.68837747354735  2.51927408140814
 1 -6.83563745884588  2.52625157725773  1.35576369516952
 1 -7.59070177847785  0.89225555395540  1.52467489008901
 1 -8.29349784108411  2.25186735683568  0.34259325652565
 1  0.94162634393439  2.08088069606961  1.30758076567657
 1  0.49727376747675  2.49499758755876  2.99707006150615
 1  1.85114073237324  0.40894728492849 -0.26709893599360
 1  2.34951320992099 -4.70738626182618 -1.77637569976998
 1  0.51072915331533 -4.24290420382038 -1.26618938863886
 1 -8.15193051805181  1.01800443444344 -3.26119703170317
 1  0.97750069016902 -4.47464176847685  1.31070075767577
 1  2.56977802070207 -5.09916639563956  0.78269220762076
 1  4.22863730753075 -4.21035856435644 -2.07644669726973
 1  5.33618574007401 -3.05672455325533 -0.94604952645264
 1  4.61761885818582 -2.47808986458646 -2.73967428972897
 1  5.01495430253025 -0.37061116991699 -1.87101378957896
 1 -9.51096061826183  0.34313521072107 -0.47773846004600
 1 -10.23656182128213  0.53431781018102 -2.17827756945695
 1  3.84724115551555  2.97605017361736  3.37403558575858
 1  6.47923292889289  1.22541674817482 -2.17048455165517
 1  4.87171818201820  5.49849294129413 -2.21012806780678
 1  3.80903890799080  5.63872094199420 -0.82134521772177
 1  5.65243701520152  5.39189564416442 -0.49454120222022
 1  0.97114465296530 -8.24199544204420  1.21943161626163
 1  8.20411169296930  2.76531383768377 -2.71422018421842
 1  6.87460890519052  4.14279185048505 -2.22500538963896

