%nproc=4
%Mem=2GB
# td=(NStates=1) B3LYP/SVP 

TD

0 1
 8 -5.31749711151115  0.38735285028503 -3.35833866666667
 8  2.64481130723072  3.17383310671067  3.32528879327933
 8  3.07773851165117  1.04886989608961  3.48969093029303
 8  1.67818195409541 -7.15073097749775  1.62535294509451
 8  0.45666241564156 -7.15381628562856 -0.29599353055306
 8  2.01362482178218  4.01329429642964 -0.10422215781578
 7 -2.27239784248425 -0.94634964156416  0.57350387748775
 7 -4.45780968486849  0.62688693729373 -1.28837076917692
 7  1.91129085618562 -0.70593257425743 -0.48041948004800
 7  2.68740001040104  1.84466291639164 -0.59803727872787
 6 -4.89611185748575  1.07450763016302  0.03051350785079
 6 -4.51197580298030  0.18341475917592  1.26333839453945
 6 -3.04153760996100 -0.00746586418642  1.39525486558656
 6 -2.07745278957896  0.62246439343934  2.07821862006201
 6 -0.71952584008401  0.08154959645965  1.82360112231223
 6 -0.97549192419242 -0.92953806290629  0.81415812411241
 6 -6.27644374177418  1.44445620152015 -0.14648306210621
 6  0.41352483578358  0.38248617171717  2.57659232803280
 6 -6.65254768646865  1.07414972017202 -1.37397825552555
 6 -0.10544628662866 -1.87528282938294  0.13513068876888
 6  1.14109702090209 -1.83645615821582 -0.35252404560456
 6 -5.40052811091109  0.62269196239624 -2.17955739653965
 6  1.92682855275528 -2.94335791179118 -0.95293060966097
 6 -2.25279202040204  1.52961469346935  3.22805144514451
 6 -7.17899989218922  1.93537907390739  0.94761537543754
 6  3.09094462276228 -2.42359438373837 -1.37655881298130
 6  0.96160293289329  1.86293943614361  2.43001822022202
 6  3.16650319131913 -0.88442788218822 -1.03805743674367
 6  1.40886642454245 -4.43825820542054 -0.91663013691369
 6 -7.93572029292929  1.03656822122212 -2.07166188818882
 6  1.85046673677368 -5.12221846424642  0.45884221072107
 6  4.26489420582058 -3.22960422622262 -1.97190918831883
 6  4.08361730393039  0.01994365616562 -1.45141533663366
 6  2.30349296469647  1.91497567186719  3.09443934903490
 6  3.95171969786979  1.29945920222022 -1.11190696139614
 6 -9.14767294029403  0.83434127792779 -1.57537630023002
 6  1.22950025842584 -6.55517424692469  0.46308710141014
 6  4.72905697059706  2.46508856385639 -1.46809053555356
 6  4.09613524802480  3.66732089228923 -1.21766133743374
 6  2.76643539953995  3.24173587498750 -0.54860340734073
 6  6.02029003340334  2.16564843624362 -2.09245077387739
 6  4.62566335973597  5.05903742094209 -1.24781745364536
 6  6.88064561596160  3.15618203960396 -2.60337500560056
 1 -4.19136708740874  2.04717976287629  0.34223376537654
 1 -4.81244967406741 -0.81973696479648  0.99297054535454
 1 -4.76972709190919  0.63943817291729  2.31506364086409
 1 -2.60279769016902 -1.74565142264226 -0.19557194849485
 1 -3.49903559685969  0.55843892009201 -1.77779497679768
 1  0.20277686198620  0.26896687018702  3.67571290349035
 1  1.46022446644664 -0.29302918691869  2.37579589999000
 1 -0.68941943444344 -2.75230319361936 -0.35677585918592
 1 -3.27486963896390  1.35192177747775  3.62832900050005
 1 -1.59270412981298  1.39262789028903  4.18230795539554
 1 -2.17189998929893  2.67159579537954  2.95949810381038
 1 -6.67639153425343  2.68796774887489  1.53194131293129
 1 -7.55606831513151  1.02024835323532  1.71864428702870
 1 -7.98289678097810  2.37592976307631  0.38281727892789
 1  1.13694587588759  2.26101870987099  1.43625363296330
 1  0.39244328442844  2.54046213401340  2.95685604010401
 1  1.70344596289629  0.23978036823682 -0.09349157525753
 1  1.75440369896990 -5.05535105830583 -1.86686474867487
 1  0.38015609600960 -4.43163307670767 -1.08919168886889
 1 -7.83043836883688  1.10675330933093 -3.08908982098210
 1  1.67801074117412 -4.56040034433443  1.29572926052605
 1  3.06377742064206 -5.38628510751075  0.17055099349935
 1  3.97609205300530 -4.24707223572357 -2.14779383198320
 1  5.25040716221622 -2.98005688648865 -1.40557547904791
 1  4.39042613891389 -2.88680073567357 -2.93491381368137
 1  5.07626043314331 -0.47343145194519 -1.81653834203420
 1 -9.27251677387739  0.73196409360936 -0.37853854005401
 1 -10.17997616271627  0.88009238763876 -2.16946668836884
 1  3.49859629102910  3.11130369896990  3.90889907210721
 1  6.25812081768177  1.01594580108011 -2.05478298149815
 1  4.74174518471847  5.52746583858386 -2.20526758175818
 1  3.82476048014802  5.71864893479348 -0.65195827902790
 1  5.58074984648465  5.12511896649665 -0.68240998909891
 1  1.34651218971897 -8.13851509400940  1.62626229932993
 1  7.84693597539754  2.96727403370337 -2.77302606480648
 1  6.52468391269127  4.19809738103810 -2.64772766186619

