%nproc=4
%Mem=2GB
# td=(NStates=1) B3LYP/SVP 

TD

0 1
 8 -5.31873723552355  0.09266338133813 -3.23709654245425
 8  2.82548937503750  3.15763148654865  3.22862912731273
 8  3.25414615241524  0.96521153025303  3.19778173937394
 8  1.53158729462946 -7.20765667006701  1.46395680548055
 8  0.36738348774878 -6.93244414841484 -0.40515444664466
 8  1.97147060636064  3.93531649864987 -0.09775151075107
 7 -2.34695529822982 -0.87831283788379  0.56155268236824
 7 -4.38678258215822  0.56370061866187 -1.28263019511951
 7  1.93659338643864 -0.65579756075608 -0.31704314241424
 7  2.73910518091809  1.80498894899490 -0.40800827582758
 6 -4.74999724602460  1.17099727912791  0.02086254275428
 6 -4.44728933433343  0.19866628432843  1.17455951665166
 6 -2.99807326352635 -0.06754187178718  1.33937927802780
 6 -2.04461950625062  0.69405155215522  2.15064586278628
 6 -0.81100498799880  0.06131757325733  1.88292705490549
 6 -0.95909028402840 -0.95128023712371  0.86089279757976
 6 -6.23300939833983  1.29191094699470 -0.16583499729973
 6  0.56810029332933  0.27119504260426  2.53231790059006
 6 -6.68390082178218  0.75646795199520 -1.33340419811981
 6 -0.08261400340034 -1.86229153025303  0.16046322202220
 6  1.07690060126013 -1.80190270287029 -0.31109990319032
 6 -5.45396345444544  0.45509520272027 -2.13200264106411
 6  1.96283215311531 -2.84775835183518 -0.84032934953495
 6 -2.33382012321232  1.77220895289529  3.12953159315932
 6 -7.03132512471247  2.04824036003600  0.82977359125913
 6  3.14619014731473 -2.43051507580758 -1.21760291739174
 6  1.04557132973297  1.72274541674167  2.57051226962696
 6  3.06960350135014 -0.99600904030403 -0.97588121912191
 6  1.43187872577258 -4.31974635423542 -0.93940241414141
 6 -7.83658037893789  0.87419198359836 -2.14197891989199
 6  1.51184287438744 -5.01054729712971  0.45609193569357
 6  4.30536825322532 -3.10177144294429 -1.93971596899690
 6  4.07126606880688 -0.00999933813381 -1.34429462456246
 6  2.45970858625863  1.81440561486149  2.99760966606661
 6  3.81846637253725  1.37138639493949 -1.08113388408841
 6 -9.14964313731373  0.92865070887089 -1.69836859945995
 6  1.06554386278628 -6.48115684518452  0.43545433813381
 6  4.71771583648365  2.48558061306131 -1.47855158165817
 6  4.03686932143214  3.58561272147215 -1.18768834013401
 6  2.79816857285729  3.20489219061906 -0.46794534153415
 6  6.01770977537754  2.38204007540754 -1.97876940574057
 6  4.50221101450145  5.01126264346435 -1.20673334523452
 6  6.68094564596460  3.26819324072407 -2.72408707680768
 1 -4.30888883958396  2.04733977887789  0.39661920392039
 1 -4.97999642874287 -0.67643263436344  1.13057430573057
 1 -4.66557667686769  0.61071530063006  2.23372550705071
 1 -2.85699310971097 -1.49374623212321  0.11881949064906
 1 -3.35729142244224  0.16845992219222 -1.41654885218522
 1  0.52779936423642  0.13579355285529  3.75952128432843
 1  1.33806225022502 -0.36169605360536  2.11345966636664
 1 -0.50089058155816 -2.78316627992799 -0.07873805540554
 1 -3.21657380938094  1.61212779807981  3.57404357195720
 1 -1.49624448384839  1.64104273177318  3.89124884948495
 1 -2.17639043834383  2.77903653945395  2.47790994499450
 1 -6.60177407250725  2.83614256635664  1.28327644644464
 1 -7.56357906620662  1.51039736813681  1.75144756735674
 1 -7.63207169846985  2.77094926502650  0.37566656385639
 1  1.22506468776878  2.07360996899690  1.53367337493749
 1  0.58324236433643  2.36470455825583  3.07312766726673
 1  1.96328194649465  0.38788517871787 -0.13574580068007
 1  2.08933719231923 -4.94950047324733 -1.76950501270127
 1  0.40133821422142 -4.36012592599260 -1.18260102980298
 1 -7.63424874987499  0.86822945694569 -3.23251416341634
 1  0.95011795189519 -4.63970827512751  1.28350803840384
 1  2.54461550445045 -4.76169264826483  0.83185712411241
 1  3.94446889068907 -4.08393592209221 -2.20402945554555
 1  5.23692581408141 -3.17943682448245 -1.30391531303130
 1  4.26818391469147 -2.48850090569057 -2.74202452475248
 1  4.94731753885389 -0.34361847064706 -2.03220990919092
 1 -9.32744226642664  1.15117601480148 -0.66101678787879
 1 -10.12612077717772  1.00311468986899 -2.35638538023802
 1  3.64381081248125  3.09679224782478  3.71809999219922
 1  6.66797180278028  1.53322752925293 -1.88580608380838
 1  4.36607761796180  5.35305839783978 -2.24326138113811
 1  3.76061406550655  5.54733180308031 -0.47850093329333
 1  5.44369614111411  5.09093554815481 -0.75287703580358
 1  1.16024356285629 -8.13953519601960  1.34754442754275
 1  7.79605088688869  3.10746805310531 -2.89122788498850
 1  6.37765921022102  4.36504407570757 -2.89687257635764

