%nproc=4
%Mem=2GB
# td=(NStates=1) B3LYP/SVP 

TD

0 1
 8 -5.44359972177218  0.38919303430343 -3.34782761556156
 8  2.64277110321032  3.27240296369637  3.56450271467147
 8  3.12412315011501  1.15110011911191  3.26283824502450
 8  1.61104524042404 -7.30597650205020  1.36160657045705
 8  0.64620136953695 -7.00503140714071 -0.63174710591059
 8  2.13681714101410  3.99035200220022 -0.06347808340834
 7 -2.29355995869587 -0.94983999059906  0.60166669376938
 7 -4.47065096899690  0.65619986858686 -1.24349628172817
 7  1.98631835893589 -0.76015799679968 -0.37417885598560
 7  2.75366663706371  1.81160961106111 -0.60994846984698
 6 -4.98782102840284  1.19754993439344  0.01973242974297
 6 -4.51699630503050  0.23022944064406  1.18178023872387
 6 -2.91157461366137  0.03405828822882  1.30702604270427
 6 -2.00104514881488  0.71906405340534  2.09049984818482
 6 -0.73298718621862  0.13542498399840  1.76565532773277
 6 -0.97709208420842 -0.83037814691469  0.71150785908591
 6 -6.45176127352735  1.27129888578858 -0.15190360416042
 6  0.47231071437144  0.32849077217722  2.60922559135914
 6 -6.78085051675168  0.90457276247625 -1.37733859155916
 6 -0.08590433243324 -1.90297559865987  0.21514869056906
 6  1.14367727892789 -1.83770628322832 -0.17193598679868
 6 -5.49407746584658  0.72516220942094 -2.20428986978698
 6  1.97760363026303 -2.88131170717072 -0.75217053365337
 6 -2.30357709890989  1.84170590259026  3.11921056105611
 6 -7.33309530173017  1.83175871187119  1.01323193709371
 6  3.21596712501250 -2.39866189048905 -1.18468962606261
 6  0.89487626022602  1.76413955615562  2.54939015741574
 6  3.16099264026403 -1.01317075647565 -1.01402503350335
 6  1.51264680258026 -4.34530891049105 -0.84150262416242
 6 -7.97877459835984  0.84026859125913 -2.00277499949995
 6  1.60544223432343 -5.07318356075608  0.52884921142114
 6  4.28652636903690 -3.20696196199620 -1.87866986438644
 6  4.09718866106611 -0.04441277947795 -1.39285948104810
 6  2.29487210261026  1.97541171547155  3.09547945304530
 6  3.85283980988099  1.34525378167817 -1.14797056775678
 6 -9.23502167516752  0.78918676247625 -1.51690045264526
 6  1.22304961336134 -6.57852658215822  0.34390518321832
 6  4.83639770467047  2.33913596859686 -1.42142586908691
 6  4.23797943244324  3.58009216941694 -1.17249682098210
 6  2.89918867486749  3.23971567296730 -0.61753030003000
 6  6.16299430383038  2.16824869626963 -2.03219474827483
 6  4.61675246864686  5.03342485968597 -1.26174884678468
 6  6.81338889028903  2.96041246264626 -2.84062873097310
 1 -4.53911186188619  2.23906895179518  0.27983752575258
 1 -5.05179360846085 -0.71737672877288  1.00579182748275
 1 -4.80965108430843  0.71261549064906  1.96625876037604
 1 -2.77334474487449 -1.40730758825883 -0.33572596389639
 1 -3.39919561286129  0.70657373357336 -1.40071726902690
 1  0.38064464876488  0.11192116561656  3.62281761396140
 1  1.24249269326933 -0.27716760076008  2.37399571997200
 1 -0.53549404190419 -2.87393535683568  0.16249606800680
 1 -3.53655580758076  2.03407999329933  3.22159832743274
 1 -1.90058491789179  1.62737136463646  4.14814453905390
 1 -1.91118391769177  2.75197383318332  2.73910606460646
 1 -6.91585548064806  2.48181713381338  1.72654077287729
 1 -8.06423913221322  0.94318064646465  1.45778820142014
 1 -8.10772926422642  2.50142231233123  0.81504050125012
 1  1.05662784408441  2.09662227022702  1.37816782438244
 1  0.36278031813181  2.59071715951595  3.10030038453845
 1  1.73210882918292  0.25709209940994 -0.01252347844785
 1  2.05297355595560 -4.85291081428143 -1.50865892809281
 1  0.36435451585159 -4.50782069546955 -1.39775254495450
 1 -7.89370469546955  0.50765339933993 -3.18644955695569
 1  0.86628956905691 -4.71627593189319  1.30724041164116
 1  2.67464850775077 -4.92203868286829  1.08193213161316
 1  3.98967341114111 -4.20769829832983 -1.84840389298930
 1  5.16867898939894 -3.09206808760876 -1.19966488798880
 1  4.47906500280028 -2.84918697429743 -3.02926324862486
 1  5.05112791989199 -0.54244835363536 -1.81342803100310
 1 -9.47257677987799  0.95465636283628 -0.39147983418342
 1 -9.97643580868087  0.37591196959696 -2.19459920162016
 1  3.66885331673167  3.45750831943194  3.92889107130713
 1  6.77496250185018  1.36185039153915 -1.61273877707771
 1  4.59298030823082  5.29743283528353 -2.31732878787879
 1  3.86533453755376  5.76619368926893 -0.87482056525653
 1  5.68502027352735  5.10879733433343 -0.82418416651665
 1  1.16313385188519 -8.24801604410441  1.24465413851385
 1  7.78562984478448  2.85493279957996 -3.23849261146115
 1  6.44683612791279  4.02027959925993 -2.81662455155515

