%nproc=4
%Mem=2GB
# td=(NStates=1) B3LYP/SVP 

TD

0 1
 8 -5.41157651945194  0.01071518651865 -3.29936276907691
 8  2.84383120922092  3.14364008740874  3.20930719511951
 8  3.20708144594459  0.96757176627663  3.25078703990399
 8  1.67211134703470 -7.25105100950095  1.42613302310231
 8  0.50318706810681 -6.87449835383538 -0.50444437563756
 8  2.01109456875688  4.09819278627863 -0.11455319091909
 7 -2.37923852655266 -0.96172117871787  0.55845237233723
 7 -4.43726763066307  0.58798304690469 -1.23926585868587
 7  1.88854858195820 -0.72821480248025 -0.26664810291029
 7  2.82646391679168  1.86213466356636 -0.39620709570957
 6 -4.87690993729373  1.20743092249225 -0.06512605610561
 6 -4.52168677407741  0.28717513521352  1.15615767646765
 6 -3.02144560076008 -0.03860897849785  1.39177451755176
 6 -2.06543158745875  0.68379052605261  2.17444824302430
 6 -0.81990587808781  0.03960540204020  1.86971573377338
 6 -1.01111548654865 -0.90395550465047  0.81572828112811
 6 -6.38927502490249  1.28755051095110 -0.18062647644764
 6  0.48407189048905  0.29867779087909  2.55221989078908
 6 -6.78622105380538  0.94197650285029 -1.43499435713571
 6 -0.30157589958996 -1.79621492259226  0.14181135683568
 6  1.16724963616362 -1.90537304990499 -0.18016680988099
 6 -5.51352941104110  0.42155184838484 -2.15612505330533
 6  1.90916678657866 -2.85127870387039 -0.81399671627163
 6 -2.39877661886189  1.71850358235824  3.26718535853585
 6 -7.22786477867787  1.92169770577058  0.83980459435944
 6  3.13474900320032 -2.38505052935294 -1.25927708480848
 6  1.01625839843984  1.72500564276428  2.50323554195420
 6  3.18992553355336 -0.95952539193919 -1.02183581458146
 6  1.48557409530953 -4.32945732533253 -0.92753122702270
 6 -8.07671439233923  0.86661122552255 -2.06648137013701
 6  1.75216690679068 -5.09184542694269  0.46633295979598
 6  4.23407112351235 -3.08280954675468 -1.80544254165417
 6  4.09311825402540 -0.00250858905891 -1.35510570567057
 6  2.49354196959696  1.88679285358536  3.04106401150115
 6  3.84711923782378  1.44470372667267 -1.04654042474247
 6 -9.26154432743274  1.05354319811981 -1.51315007760776
 6  1.18027533593359 -6.56335506500650  0.36409720242024
 6  4.81964602950295  2.49869192419242 -1.49977370387039
 6  4.11184681918192  3.67394155435544 -1.19193876517652
 6  2.87124588058806  3.19844154555456 -0.45713426042604
 6  6.07392539693969  2.20425229662966 -2.14527605640564
 6  4.65532632603260  5.03625514271427 -1.40161283318332
 6  7.11422897429743  3.08980540194019 -2.48939360746075
 1 -4.36341429212921  2.26688173307331  0.02419196119612
 1 -5.15248367746775 -0.57187217831783  1.00324157245725
 1 -4.79861998119812  0.59119334843484  2.07050918541854
 1 -2.87799520992099 -1.44341119861986 -0.02755514681468
 1 -3.52897859115912  0.77502057825782 -1.62083928122812
 1  0.34837142144214  0.01088106160616  3.66120145234523
 1  1.27521596559656 -0.43305318931893  2.05805412581258
 1 -0.67171766426643 -2.83522148544854 -0.40097027862786
 1 -3.58120027202720  1.44203078837884  3.76379254685469
 1 -1.54647950735073  1.68193682118212  4.08934865946595
 1 -2.29319211851185  2.85905454125413  3.01712386638664
 1 -6.62007590269027  2.72304125622562  1.42558067686769
 1 -7.84557726602660  1.21264759315932  1.58462088468847
 1 -7.98197668896890  2.51712388248825  0.41766076327633
 1  1.07823000430043  2.35854846284629  1.56326633423342
 1  0.40916495659566  2.43398148594859  3.01519187368737
 1  1.63205882418242  0.16469285948595 -0.06481870797080
 1  2.13432169076908 -4.80412593579358 -1.64738280048005
 1  0.47669574997500 -4.49554946834683 -1.15641841154115
 1 -7.94141946694669  0.67129976397640 -3.23777468946895
 1  1.29158209830983 -4.53590789508951  1.44924461206121
 1  2.88098914181418 -5.12712919191919  0.64989892829283
 1  4.00224466826683 -4.00381791029103 -2.04259331193119
 1  5.11310343184318 -3.14399328012801 -1.02310723222322
 1  4.50710780708071 -2.50506256185619 -2.75644596689669
 1  5.10550335743574 -0.35137924672467 -1.87328401660166
 1 -9.69771929412941  1.21660255745575 -0.41575226142614
 1 -10.26490465556556  0.97443182158216 -1.94952469416942
 1  3.76829326072607  2.95453802240224  3.55829401160116
 1  6.24865987158716  1.14093830033003 -2.48609611281128
 1  5.12922393259326  5.34780787278728 -2.43753080808081
 1  3.54367237133713  5.74730180008001 -1.42210529372937
 1  5.31295306680668  5.32629908450845 -0.39735148324832
 1  1.28349588808881 -8.20429167166717  1.39273894699470
 1  7.90207148894889  2.65126243254325 -3.10161892409241
 1  7.00644208850885  4.23856142744274 -2.37035992509251

