%nproc=4
%Mem=2GB
# td=(NStates=1) B3LYP/SVP 

TD

0 1
 8 -5.49764512631263  0.12539665466547 -3.29150198299830
 8  2.90190701680168  2.93548927232723  3.11614787918792
 8  3.29201993979398  0.65205021412141  3.06640860206021
 8  1.86672080798080 -7.12640854525453  1.67386779657966
 8  0.53064981438144 -7.05874677867787 -0.10525445664566
 8  1.97401086038604  4.06670963796380  0.06011427582758
 7 -2.41793239593959 -1.00624563116312  0.49035556265627
 7 -4.43759766366637  0.63952820142014 -1.36607853995400
 7  1.87805753285329 -0.74515649664967 -0.42624406250625
 7  2.63297456785679  1.87158560866087 -0.58830630563056
 6 -4.73976622292229  1.22454263366337 -0.10644018751875
 6 -4.51019562496250  0.21678809650965  1.16839890059006
 6 -3.04200765696570 -0.11829694729473  1.34180952105211
 6 -2.05576062036204  0.57845999299930  2.01917271547155
 6 -0.85432932043204  0.01512295379538  1.74648341054105
 6 -1.02248662366237 -0.92379748884888  0.72456916521652
 6 -6.27983408080808  1.43981573747375 -0.20313872767277
 6  0.51714519781978  0.20732865596560  2.45807047584759
 6 -6.68679111081108  1.01464376957696 -1.43636449414941
 6 -0.29645538753875 -1.93298859996000  0.01905908160816
 6  1.06544945614561 -1.83102561516152 -0.28930772397240
 6 -5.52489054715472  0.64508420162016 -2.19333877467747
 6  1.90221609150915 -2.87085066106611 -0.87061237783778
 6 -2.25771251245125  1.68993072507251  3.05682432243224
 6 -7.15858785098510  2.10157569356936  0.95164577847785
 6  3.17644317261726 -2.42074409870987 -1.17577873497350
 6  1.17086385898590  1.63194633683368  2.56802202060206
 6  3.06261280228023 -1.00068950835084 -0.85356898789879
 6  1.46059159705971 -4.34653903350335 -0.83120159405941
 6 -7.90882760366037  0.99250381478148 -2.15564028602860
 6  1.73969565966597 -5.03363960636064  0.53326965346535
 6  4.33913162956296 -3.15407667346735 -1.86930892829283
 6  3.99929887208721  0.00895255705571 -1.26344653975398
 6  2.53885650105011  1.65987016131613  3.04048395349535
 6  3.79626415231523  1.41363061936194 -1.12243801450145
 6 -9.10327850085009  1.17908575237524 -1.64052281488149
 6  1.28741605000500 -6.44566329582958  0.63411420412041
 6  4.75755982088209  2.57866992199220 -1.53320704720472
 6  4.04338997349735  3.68404256445645 -0.99163873517352
 6  2.80215897189719  3.30947264866487 -0.42608115511551
 6  5.92790079447945  2.32425429682968 -2.13834536333633
 6  4.52108290169017  5.10195171237124 -0.97412008390839
 6  6.62104965636564  3.34040046144615 -2.75835050315032
 1 -4.07440539123912  2.17368241314131  0.08561810381038
 1 -4.93347177627763 -0.74859985108511  1.03999524782478
 1 -4.94183430263026  0.86518074717472  2.09688182268227
 1 -2.80917832823282 -1.90744760226023 -0.09717210851085
 1 -3.49751544484448  0.44637771397140 -1.56574377167717
 1  0.55863244754475 -0.25929595609561  3.41174650685068
 1  1.35280372437244 -0.25536542054205  1.96754507490749
 1 -0.58662915541554 -2.83092105540554 -0.27950813241324
 1 -3.19789194119412  1.57896448174817  3.26643281088109
 1 -1.81891675107511  1.53662228972897  4.08124784938494
 1 -1.91757455675568  2.64869350515052  2.80493264726473
 1 -6.53231712681268  2.69182813491349  1.73444156295630
 1 -7.54219692799280  1.21007733613361  1.64189661226123
 1 -7.93546203750375  2.76155832593259  0.52774177137714
 1  0.93149533083308  1.99222183018302  1.60505051265127
 1  0.32736677677768  2.21910999879988  3.13214356885689
 1  1.81406702500250  0.36998338853885 -0.40094232033203
 1  1.73431168976898 -5.02658818201820 -1.68638670087009
 1  0.45442352275228 -4.34749466286629 -1.05038780848085
 1 -7.85647097209721  0.86627926192619 -3.30231114311431
 1  1.32249518961896 -4.59968427272727  1.40007969556956
 1  2.85174621752175 -4.95995247424742  0.87849178757876
 1  4.22649709350935 -4.18582611111111 -2.01290034263426
 1  5.20318243974397 -3.07524640544054 -1.16526144764476
 1  4.54938203450345 -2.56859891549155 -2.78521884418442
 1  4.92225503260326 -0.37615172397240 -1.80036672487249
 1 -9.18550807300730  1.40549144634463 -0.42876356255626
 1 -10.00977914301430  0.92873725212521 -2.30513025472547
 1  3.96895332673267  2.95152772137214  2.94751293349335
 1  6.46760176577658  1.39928413491349 -1.90892839603960
 1  3.93716472667267  5.42256534853485 -2.15025208020802
 1  3.92777078117812  5.65381245114511 -0.27025010821082
 1  5.55564733623362  5.32316877147715 -0.73744549264926
 1  1.51348888738874 -8.21190243274327  1.72670234333433
 1  7.59004028582858  3.18834614091409 -3.30702946514651
 1  6.14109555385539  4.39075664696470 -2.70269315841584

