%nproc=4
%Mem=2GB
# td=(NStates=1) B3LYP/SVP 

TD

0 1
 8 -5.52618798059806 -0.05740162516252 -3.25937877067707
 8  2.74879170527053  3.22557828122812  3.27463372777278
 8  3.16781751955196  0.99200420952095  3.62640460166017
 8  1.25327946384638 -6.88946485088509  1.66770718051805
 8  0.60578732813281 -7.01023192719272 -0.53377730893089
 8  2.13680714001400  3.94879784678468  0.01422968736874
 7 -2.30940154285429 -0.84741974857486  0.50470699779978
 7 -4.51607551145115  0.62570681928193 -1.23324525662566
 7  1.87163689078908 -0.63018499949995 -0.37901934003400
 7  2.82577384778478  1.75281373147315 -0.50122759775978
 6 -4.81908415471547  1.18469864926493  0.01629208570857
 6 -4.43544815021502  0.28963538123812  1.25421748244824
 6 -2.89735319151915  0.03685856825683  1.26344168426843
 6 -1.99051409570957  0.66852899989999  2.10814161236124
 6 -0.68773266076608  0.02531397289729  1.73601236343634
 6 -0.98430280528053 -0.87669277837784  0.72551926022602
 6 -6.34327042444244  1.43628538443844 -0.20436885068507
 6  0.65855933923392  0.24297222032203  2.49846451525153
 6 -6.75754818651865  0.76171847704770 -1.36719757745775
 6 -0.18634437643764 -1.87330263136314 -0.03407623192319
 6  1.02624553575358 -1.76102861546155 -0.47813660686069
 6 -5.51483954205420  0.41962165536554 -2.18328776957696
 6  1.89820569046905 -2.93356693269327 -0.92239755635564
 6 -2.23558029922992  1.57057878987899  3.20484912491249
 6 -7.25313730593059  2.02448798479848  0.89906051995200
 6  3.03568909720972 -2.42258428272827 -1.28596975407541
 6  1.04605137773777  1.75935907810781  2.46455167356736
 6  3.08029457045705 -0.89771921132113 -1.03939757075708
 6  1.37394293219322 -4.30439481908191 -0.93730220412041
 6 -8.06827354825483  0.62447701210121 -2.11202592459246
 6  1.49079076917692 -4.94951119351935  0.40980730723072
 6  4.25708342474247 -3.09432069786979 -1.88464046144614
 6  4.06886582878288 -0.01197953615362 -1.43855405050505
 6  2.37657027242724  1.97759193349335  3.25480538563856
 6  3.91939646554655  1.41047030333033 -1.12365813651365
 6 -9.20616878987899  0.63036087988799 -1.52298106070607
 6  1.13686099449945 -6.43352208170817  0.40491128382838
 6  4.85945000990099  2.49774182918292 -1.50199392589259
 6  4.27987362186219  3.66494065426543 -1.01712128342834
 6  2.99001775777578  3.13394509590959 -0.43477202420242
 6  6.17659566396640  2.22935480688069 -2.20572210101010
 6  4.72118291169117  5.05745726292629 -1.02568524042404
 6  6.89055660706071  3.15579200060006 -2.82016668476848
 1 -4.17736568726873  2.12957800270027  0.25044458645865
 1 -4.91226965606561 -0.53914890599060  1.23055430373037
 1 -4.58123824302430  0.89978420752075  2.15577771227123
 1 -2.66798420882088 -1.42822968046805 -0.23031542284228
 1 -3.45454114741474  0.65406848304830 -1.49870706800680
 1  0.49729631393139 -0.18858888538854  3.43212854505450
 1  1.36031447544754 -0.59661954595460  2.42925124552455
 1 -0.69568006050605 -2.74866282958296 -0.28024820642064
 1 -3.16603875587559  1.69840642594259  3.51034720232023
 1 -1.53983884328433  1.35995462296230  4.06734645924593
 1 -1.88654145344534  2.74562319811981  2.89815196919692
 1 -6.58459235433543  2.77806675877588  1.45296341514151
 1 -7.60655336363636  1.54763109150915  1.80386280888089
 1 -7.95014350565056  2.45098726882688  0.30898989618962
 1  1.07435961726173  1.97535014301430  1.45704571217122
 1  0.31100514061406  2.45335342314231  3.11142149664966
 1  1.55895151345134  0.27025341554155 -0.18806103220322
 1  2.03640189878988 -4.93100862406241 -1.57033509570957
 1  0.31371945234523 -4.32743265666567 -1.30876364606461
 1 -7.92663798879888  0.59708234223422 -3.32959387138714
 1  1.06880982108211 -4.45664996929693  1.22796248384839
 1  2.53237428032803 -4.90641712071207  0.52301624002400
 1  3.92169661346135 -4.11559908840884 -2.03220227282728
 1  5.15760788228823 -3.23575245604560 -1.05800072157216
 1  4.74581167746775 -2.81139319491949 -2.76343666596660
 1  5.16962977007701 -0.35992010081008 -1.81978866706671
 1 -9.34205372757276  0.79918081528153 -0.45378606480648
 1 -10.19380754585458  0.50424480288029 -2.17829757145715
 1  3.57020345174517  3.29229179777978  3.90162834503450
 1  6.40140514611461  1.14703891039104 -2.31757926112611
 1  4.85783679387939  5.35658875087509 -2.12087914291429
 1  3.88085608970897  5.67741481138114 -0.66734981818182
 1  5.77673944544454  5.23613006760676 -0.35464721282128
 1  0.90271781028103 -7.85615685818582  1.46727640074007
 1  7.84961624342434  2.91031833813381 -3.47167592979298
 1  6.60295173947395  4.20883845514551 -2.95319820892089

