%nproc=4
%Mem=2GB
# td=(NStates=1) B3LYP/SVP 

TD

0 1
 8 -5.29472483428343  0.37136125112511 -3.42087492029203
 8  2.99480630673067  3.16318204160416  3.01664792919292
 8  3.45905664346435  0.90266527562756  2.98589055025503
 8  1.57093122902290 -7.24747065146515  1.62870328012801
 8  0.49122587198720 -7.07775867986799 -0.37147107830783
 8  1.82675613491349  3.98036100310031 -0.13422515811581
 7 -2.35335593829383 -0.73841884848485  0.53741026812681
 7 -4.36366026992699  0.63828807740774 -1.19286121822182
 7  1.92120184728473 -0.74139612061206 -0.23895533363336
 7  2.60368163856386  1.80023847394739 -0.46683415841584
 6 -4.88955120142014  1.19872005140514  0.08571902840284
 6 -4.51520612601260  0.25573199089909  1.35670773147315
 6 -2.97712116831683  0.01739662206221  1.44866020612061
 6 -2.00321536583658  0.71565371237124  2.12584338253825
 6 -0.74767865536554  0.10041148264826  1.77434619681968
 6 -1.05313968896890 -0.87810291939194  0.75073178147815
 6 -6.34536063346335  1.39140089598960 -0.24071248504850
 6  0.62801628492849  0.29211713481348  2.48290295909591
 6 -6.59971240294029  1.03978628382838 -1.52689354705471
 6 -0.20034577657766 -1.86905220632063  0.15763293899390
 6  1.09338224942494 -1.82822533513351 -0.24944373757376
 6 -5.41358941704170  0.55594528772877 -2.23216265706571
 6  1.98573444334433 -2.99026260226023 -0.86205152175218
 6 -2.30580732193219  1.83836556855686  3.25052369236924
 6 -7.27784977717772  1.93762929892989  0.87648826272627
 6  3.18442397069707 -2.44313633793379 -1.27783894099410
 6  1.10029680228023  1.73224636683668  2.66174139253925
 6  3.15356189718972 -1.02472191159116 -0.90879451045105
 6  1.43073861176118 -4.42876725632563 -0.90515898979898
 6 -7.88654537543754  0.85004956935694 -2.20035475747575
 6  1.84120581068107 -5.17173341574157  0.38642496899690
 6  4.20474819121912 -3.20030129592959 -1.90811280868087
 6  3.99873881608161 -0.00126846504650 -1.28346854195420
 6  2.67890050545055  1.80891506580658  2.89696960206021
 6  3.69167369326933  1.32469172547255 -0.98576434713471
 6 -9.15004317731773  0.79795763956396 -1.62591135373537
 6  1.21648895729573 -6.55660438993899  0.36716750945094
 6  4.64994905980598  2.45275733073307 -1.47384111061106
 6  3.97198283278328  3.66350051025103 -1.04690426172617
 6  2.70097885388539  3.21881358275828 -0.47614616161616
 6  5.95280328472847  2.25244711611161 -1.97889941874187
 6  4.23019381278128  5.02422393959396 -1.13637630953095
 6  6.85886343774377  3.25384180558056 -2.40271493959396
 1 -4.34210216091609  2.17464250915091  0.10449999199920
 1 -5.03164159325933 -0.76472146324632  1.26813806210621
 1 -4.81528164736474  1.02679690879088  2.13384551905191
 1 -2.87392480288029 -1.30725758325833 -0.15687807910791
 1 -3.51893758705871  0.76646972317232 -1.52631982928293
 1  0.73118970327033 -0.23835386188619  3.57681301350135
 1  1.49362780678068 -0.36897678167817  1.93115143554355
 1 -0.75601609410941 -2.69855781908191  0.15164498289829
 1 -3.44973712571257  1.85626221152115  3.24725089268927
 1 -1.74139899929993  1.47932656015602  4.25530525512551
 1 -2.04187698699870  2.93868250405041  2.98834098809881
 1 -6.74355825092509  2.31957090919092  1.73486160496050
 1 -8.18276098439844  0.87891421982198  1.21756417901790
 1 -7.93889238053805  2.80678284838484  0.02229122632263
 1  0.67194937623762  2.58919152715271  1.58315832343234
 1  0.79362340244024  2.39905799359936  3.74461481598160
 1  1.79922554085409  0.22001839203920 -0.15594782088209
 1  1.85810406900690 -4.96253177637764 -1.78246630883088
 1  0.44816289668967 -4.50490040344034 -1.08249101880188
 1 -7.80676600160016  1.01489412341234 -3.23954486648665
 1  1.67477041714171 -4.74693899819982  1.42779246684668
 1  3.07586862976298 -5.33123960296030  0.32713665206521
 1  4.04629907370737 -4.28342587108711 -2.17359641224122
 1  4.99350147164717 -3.27234611541154 -1.17992291379138
 1  4.73032012831283 -2.64602665826583 -2.77364768706871
 1  4.79516232333233 -0.15027913671367 -1.84456114431443
 1 -9.37211673387339  0.66109700690069 -0.64547523372337
 1 -10.13615178027803  0.75292967136714 -2.13672341404140
 1  3.95169160056006  3.38659122772277  3.08531671387139
 1  6.34896990259026  1.16385059155916 -2.14920242344234
 1  4.39548055825583  5.25428852085209 -2.40906796179618
 1  3.45722372647265  5.62679974987499 -0.85488857205721
 1  5.19837160866087  5.54095054965497 -0.51646339443944
 1  1.10444798329833 -8.15488673117312  1.56094576767677
 1  7.79249053085308  3.01744905120512 -2.86581534373437
 1  6.54028547284728  4.27724529582958 -2.62236512561256

