%nproc=4
%Mem=2GB
# td=(NStates=1) B3LYP/SVP 

TD

0 1
 8 -5.40102546434643  0.19628374337434 -3.38196102890289
 8  3.05428225432543  2.89609533293329  3.09671593599360
 8  3.16356709450945  0.68754376347635  3.23086504770477
 8  1.42696683258326 -7.20864676907691  1.40258066786679
 8  0.39111586098610 -6.84367527152715 -0.52384631583158
 8  1.94508796809681  4.05788875587559 -0.25930766636664
 7 -2.44424502720272 -0.76709171577158  0.61780830793079
 7 -4.45043894779478  0.62510675927593 -1.28097002910291
 7  1.98399812691269 -0.61603358435844 -0.32052349044904
 7  2.66843811421142  1.85716416651665 -0.50666814181418
 6 -4.89462170847085  1.14212439183918 -0.03622316581658
 6 -4.51203580898090  0.32996941464146  1.15762782348235
 6 -3.03046650285029  0.11728661106111  1.31857719781978
 6 -2.10805584988499  0.79724187118712  2.15091588978898
 6 -0.76432031953195  0.16279772127213  1.83527228942894
 6 -0.97649202420242 -0.83041815091509  0.83460016831683
 6 -6.38868496589659  1.28836059195920 -0.13143155695570
 6  0.50329381268127  0.38118604170417  2.54645931473147
 6 -6.72755518721872  0.86729903510351 -1.47647850555056
 6 -0.15745148714872 -1.75840114121412  0.10448762446245
 6  1.14526743794379 -1.63648616121612 -0.30436923012301
 6 -5.48554661276128  0.47053674687469 -2.19214865566557
 6  1.95759162906291 -2.86893046904690 -0.83647896449645
 6 -2.25888262946295  1.72171390339034  3.17097573757376
 6 -7.25209720192019  1.68389392539254  1.01597221112111
 6  3.16799232753275 -2.43154517881788 -1.08103926102610
 6  1.06981375397540  1.77554069626963  2.35899111751175
 6  3.10212675367537 -0.99240868026803 -0.90131376237624
 6  1.52754829272927 -4.22356673627363 -0.83426190009001
 6 -8.02882960386039  0.64375894029403 -1.98098282028203
 6  1.65300699079908 -5.09481572397240  0.48256458295830
 6  4.26204392079208 -3.13037430323032 -1.71132312971297
 6  4.10337928012801  0.08248991079108 -1.20718091319132
 6  2.50715333073307  1.72236641094109  2.94652455755576
 6  3.84924945084508  1.42920217651765 -1.00081585228523
 6 -9.24631280428043  0.70864870867087 -1.47573633623362
 6  1.09619692809281 -6.46395512501250  0.43328412111211
 6  4.86658072297230  2.52854490949095 -1.44587831433143
 6  4.16668230273027  3.60852501270127 -1.24015358665867
 6  2.76604536053605  3.26813851525153 -0.62864141114111
 6  6.22474047844784  2.26790866226623 -1.89998152695270
 6  4.56258705210521  5.08626014321432 -1.23409608150815
 6  7.02032958435844  3.08027444884488 -2.50663533163316
 1 -4.30820877157716  2.05586063096310  0.11584112611261
 1 -5.06846527562756 -0.68884387548755  1.28065931423142
 1 -4.97299741894189  0.75331956105611  2.13870600510051
 1 -2.76238364876488 -1.20704756225623 -0.21613400470047
 1 -3.57360305360536  0.98868194439444 -1.51399859715972
 1  0.42760934523452  0.13148312181218  3.61285661786179
 1  1.39459790379038 -0.24347423142314  2.05549386978698
 1 -0.59162965546555 -2.83159112241224 -0.39339952155216
 1 -3.37192934493449  1.56763334863486  3.86211237883788
 1 -1.41818667806781  1.73396202370237  3.96380610521052
 1 -2.26456925622562  2.69252788858886  2.79986214021402
 1 -6.58115201030103  2.48521747384738  1.40738885768577
 1 -7.37932064036404  0.82970929932993  1.54168659125913
 1 -8.33183167446745  2.24107627772777  0.76515551275128
 1  1.11187336863686  2.22251485948595  1.23112311991199
 1  0.73484752485248  2.59393748154815  2.94319467396740
 1  1.61851747004700  0.41492788298830 -0.37020924702470
 1  1.98318657725773 -4.77100262346235 -1.59113717591759
 1  0.50761884228423 -4.44869478287829 -1.08646141584158
 1 -7.82379770477048  0.40691332533253 -3.11320223222322
 1  1.17422036213621 -4.53334763906391  1.45398508610861
 1  2.74174521742174 -5.14512099109911  1.04247818621862
 1  4.05837028082808 -4.46531405990599 -1.59785883848385
 1  5.28728084958496 -2.95762464326433 -1.27830275177518
 1  4.51231832813281 -3.03775583118312 -2.81000132243224
 1  5.01299410651065 -0.21960606940694 -1.83507019521952
 1 -9.53663318551855  0.81986288348835 -0.33329401560156
 1 -10.05389355445545  0.80265464386439 -2.13739348104811
 1  4.00761719311931  2.80203277187719  3.39234741694169
 1  6.59073407900790  1.09271347784779 -1.97054455765577
 1  4.58230924112411  5.46530962296230 -2.13432048704870
 1  3.74071207530753  5.77643471337134 -0.76466955015502
 1  5.54797656915692  5.39676613121312 -0.68843059115912
 1  1.26567410591059 -8.08438968146815  1.04696436953695
 1  7.91240252205221  2.60425773207321 -2.88202696489649
 1  6.90217166146615  4.20962853415342 -2.67142003110311

