%nproc=4
%Mem=2GB
# td=(NStates=1) B3LYP/SVP 

TD

0 1
 8 -5.33369873167317  0.14029814481448 -3.35785861866187
 8  2.98787561366137  3.13333905730573  3.17056332073207
 8  3.17552829062906  0.86934194329433  3.30149211041104
 8  1.57425156105611 -7.21604750915091  1.58187859765977
 8  0.76740348974897 -7.19818072207221 -0.58973290449045
 8  2.00446390569057  3.94451741874187  0.06297456185619
 7 -2.39822042474247 -0.83460846744674  0.65204173127313
 7 -4.41127503140314  0.72240648924893 -1.29048098019802
 7  1.84640436753675 -0.68624060506051 -0.41869330743074
 7  2.66259753015302  1.77203565366537 -0.47397487248725
 6 -4.80506275257526  1.34835501490149  0.01806226272627
 6 -4.39466407180718  0.45491190889089  1.29631169186919
 6 -3.01510496669667  0.21421630403040  1.35541088118812
 6 -1.89854489878988  0.81297344434443  2.09576037423742
 6 -0.74847873537354  0.18846028752875  1.79708847104710
 6 -1.00868524352435 -0.79802491159116  0.84551125942594
 6 -6.38425452285229  1.44305606150615 -0.16819523332333
 6  0.64912839613961  0.47672559565957  2.41216588538854
 6 -6.75565799749975  0.79613191839184 -1.37277813551355
 6 -0.25032077407741 -1.79047434853485  0.04501167686769
 6  1.08998190939094 -1.81675418801880 -0.40319911311131
 6 -5.48119617771777  0.44444413761376 -2.16106554735474
 6  1.82776864676468 -2.91357493349335 -0.85478079467947
 6 -2.09706644784478  1.82790452245225  3.20575921592159
 6 -7.31106309850985  1.96859239523952  0.81640225412541
 6  3.04626015431543 -2.41535355965597 -1.27446860396040
 6  1.13585035763576  1.88899204140414  2.43522874127413
 6  3.04463100410041 -1.01637107650765 -1.07223085408541
 6  1.35222075997600 -4.35114949454946 -0.81988046194619
 6 -7.96017273817382  0.66169073347335 -2.16629135113511
 6  1.75853754385439 -5.13676991939194  0.40680700720072
 6  4.12934065046505 -3.29024028982898 -1.93396539393939
 6  4.03995293749375 -0.05653399159916 -1.22710290539054
 6  2.56623923932393  1.90933510781078  2.96094599969997
 6  3.71855638153815  1.27705696199620 -1.01986775747575
 6 -9.27204537753775  0.63345118891889 -1.63416217881788
 6  1.29880718911891 -6.62574130363036  0.35005579827983
 6  4.70485455035504  2.45895795079508 -1.36196992349235
 6  4.09307494199420  3.57806196639664 -1.00835040634063
 6  2.80400915691569  3.18064976637664 -0.49573812081208
 6  5.97071507590759  2.24321619301930 -2.01349287808781
 6  4.40757155055506  4.99246076327633 -1.13517618951895
 6  6.84034158555856  3.21098752015202 -2.47923259135914
 1 -4.22164011471147  2.30560560546055 -0.07249770777078
 1 -4.88445687478748 -0.59958494959496  1.45498674697470
 1 -4.70287040624062  1.19546377547755  2.06502863736374
 1 -2.92698010841084 -1.27978483598360 -0.16301869316932
 1 -3.39262495579558  0.76621969816982 -1.60645784308431
 1  0.57500408470847 -0.01281130763076  3.54239957215722
 1  1.58649709370937 -0.17415729972997  1.93043136353635
 1 -0.79878037053705 -2.83652161546155 -0.20538071967197
 1 -3.10485263726373  2.05074165946595  3.57163333093309
 1 -1.56370122952295  1.56577520502050  4.15940566516652
 1 -1.50490328962896  2.96222485828583  2.71526368036804
 1 -6.86436033113311  2.64659361146115  1.55918403720372
 1 -7.75653836213621  1.21869819821982  1.54476689928993
 1 -8.14989348064806  2.55206737683768  0.34111310851085
 1  1.25623780508051  2.21068367636764  1.49976998459846
 1  0.48384242434243  2.63332141994199  3.16265662016202
 1  1.55038065636564  0.19837622782278 -0.35914814091409
 1  1.84631288988899 -4.55115063826383 -1.83822188438844
 1  0.36741482188219 -4.39687960136014 -1.21765453515351
 1 -7.66928225322532  0.47033966796680 -3.19573048504851
 1  1.34964790489049 -4.77838214251425  1.36302599019902
 1  2.76629767266727 -5.29741622062206  0.54632857125713
 1  4.12799724352435 -4.38791632013201 -2.10626967956796
 1  5.09123124462446 -3.03296217701770 -1.54936985848585
 1  4.32309940624063 -2.56179823542354 -2.77907823012301
 1  4.88263107020702 -0.23973808260826 -1.70848753695370
 1 -9.27548707090709  0.54287518471847 -0.58682936913691
 1 -10.09810797589759  0.49739411781178 -2.30055979767977
 1  3.98367479887989  3.13830639923992  3.67030521272127
 1  6.09426443204320  1.11772597909791 -2.25977348054805
 1  4.54044505470547  5.33723681568157 -2.23373042804280
 1  3.87721572567257  5.73381045094509 -0.27650073327333
 1  5.57134890639064  5.21665812041204 -0.94966671477148
 1  0.92792033053305 -8.00245148764876  1.71561123422342
 1  7.80053133493349  2.87800510681068 -2.86314507670767
 1  6.59696114041404  4.14601217251725 -2.34500738983898

