%nproc=4
%Mem=2GB
# td=(NStates=1) B3LYP/SVP 

TD

0 1
 8 -5.18184354615462  0.10255437043704 -3.27593042584258
 8  2.84183100920092  3.02363808720872  3.27621388578858
 8  3.18940967876788  0.90805581468147  3.38627058825883
 8  1.54010814671467 -7.30844674907491  1.39760016981698
 8  0.29014576397640 -6.84366527052705 -0.47885181638164
 8  1.98096155545555  3.97656062306231 -0.05279701530153
 7 -2.36151675437544 -0.81115612221222  0.60347687478748
 7 -4.31333523742374  0.51137538613861 -1.24764669676968
 7  1.83321304840484 -0.69310129112911 -0.35238667676768
 7  2.69080035043504  1.79642809290929 -0.54720219521952
 6 -4.80191243754375  1.14151433083308  0.02787324382438
 6 -4.54066867226723  0.37442386008601  1.18007006770677
 6 -2.98528198439844  0.15136001840184  1.41586692679268
 6 -1.94347939223922  0.76554870187019  2.11199199739974
 6 -0.65717960546055  0.04567600910091  1.81562032423242
 6 -0.95709008400840 -0.94973008210821  0.90093680198020
 6 -6.27904400180018  1.33729548544855 -0.23624203800380
 6  0.56782026532653  0.26450437353735  2.60709537833783
 6 -6.66605903760376  0.92023432863286 -1.48947980568057
 6 -0.18911465346535 -2.04630993209321  0.38583575927593
 6  1.09983289448945 -1.87629014161416 -0.21653044624462
 6 -5.33112117021702  0.38879857305731 -2.12120156095610
 6  1.85932180208021 -2.89478305430543 -0.88721403800380
 6 -2.30092683388339  1.83311504350435  3.12787142714271
 6 -7.13107509970997  2.06104164016402  0.75988660256026
 6  3.10373590189019 -2.42259428372837 -1.26662781988199
 6  1.11953872647265  1.75887903010301  2.49117433583358
 6  3.03590013101310 -0.89444888428843 -0.93857748874888
 6  1.48757429532953 -4.36836121572157 -0.84239271317132
 6 -7.94847156805681  0.85957052145215 -2.09834455645565
 6  1.71243293339334 -5.15459170157016  0.49267559405941
 6  4.24591230763076 -3.13314458025803 -1.88511050845085
 6  4.01075001720172 -0.02802114031403 -1.21730192529253
 6  2.44071668706871  1.79460363466347  3.23963386848685
 6  3.78284281018102  1.34783403970397 -1.10100587128713
 6 -9.13462163516352  0.80405824962496 -1.57007577017702
 6  1.13997130553055 -6.50029875937594  0.34029482218222
 6  4.75637970287029  2.49121117611761 -1.56119984648465
 6  4.07747338183818  3.66657081728173 -1.17158672997300
 6  2.77060581658166  3.22696439783978 -0.55223377037704
 6  6.02293029742974  2.44066593799380 -2.18351988078808
 6  4.43698449184918  5.12120363756376 -1.27761043294329
 6  6.85162271367137  3.33633005440544 -2.74337900600060
 1 -4.48258620932093  2.13460850575057  0.07252679467947
 1 -4.78103653275328 -0.71430642174217  0.93961520982098
 1 -5.07829794899490  0.43201743084308  2.15121725622562
 1 -2.71912932333233 -1.40571742924292 -0.08110050135013
 1 -3.30662635593559  0.61461453765377 -1.73010020732073
 1  0.56711329562956 -0.09886991349135  3.49827515971597
 1  1.09485792979298 -0.52996288028803  1.98188650905091
 1 -0.68439893239324 -3.26195415871587  0.39698951735174
 1 -3.33021517351735  1.70988757405741  3.60234640224022
 1 -1.65010987038704  1.73849247674767  4.05616534113411
 1 -2.56225902520252  2.86846548234824  2.68195034903490
 1 -6.39955385048505  2.70331928402840  1.28622674147415
 1 -7.85501821012101  1.53530985938594  1.59022144474447
 1 -7.81230972227223  2.64884705480548  0.11945094229423
 1  1.28088026932693  2.15118772677268  1.41611161876188
 1  0.50841488158816  2.44822291009101  2.97455781028103
 1  1.54869048734874  0.33521991219122 -0.23534576067607
 1  1.99946820542054 -5.05097062026203 -1.54355241744174
 1  0.31102918331833 -4.42822273567357 -1.05965873557356
 1 -7.82241756675668  0.98953158715872 -3.25631654365437
 1  1.28803174327433 -4.64730903520352  1.31707139473947
 1  2.68596963986399 -5.22742922192219  0.73849778817882
 1  4.11479592339234 -4.25708323682368 -2.10314936753675
 1  5.23119524102410 -3.00227910871087 -1.36508142964296
 1  4.71517861416142 -2.62924498009801 -2.86820714301430
 1  4.88657146424642 -0.45218932773277 -1.95258194639464
 1 -9.31637115931593  0.46481737893789 -0.63293397959796
 1 -10.18946711181118  0.82635701410141 -2.20062980468047
 1  3.78800523192319  2.99268183678368  3.42544072627263
 1  6.36624162976298  1.35494970147015 -2.23428093129313
 1  4.25647665786579  5.78165125712571 -2.22858991399140
 1  3.78428643274327  5.69644671457146 -0.54455753895390
 1  5.50098186968697  5.17448390299030 -0.97160890899090
 1  1.12318985748575 -8.16947819031903  1.37916758985899
 1  7.64504578637864  3.07272457875788 -3.17441620382038
 1  6.41101254555456  4.44905247654765 -2.71863475257526

