%nproc=4
%Mem=2GB
# td=(NStates=1) B3LYP/SVP 

TD

0 1
 8 -5.29136449824983  0.36298041304130 -3.37871070387039
 8  2.81756858295830  3.12853857725773  3.32793905830583
 8  3.34019475727573  0.90617562666267  3.22065402660266
 8  1.58410254615462 -7.19057496189619  1.62433284308431
 8  0.76810355975598 -7.09822072607261 -0.48181211241124
 8  1.92134559385939  3.93558652565257  0.09134739913991
 7 -2.43847445014501 -0.96106111271127  0.54326085318532
 7 -4.42517642154215  0.60462471107111 -1.29094102620262
 7  1.92558228532853 -0.74499648064806 -0.41395283338334
 7  2.59784105450545  1.79206765686569 -0.61117859285929
 6 -4.77422966926693  1.25632581198120 -0.01581112461246
 6 -4.52748735413541  0.26566298399840  1.16182824352435
 6 -2.99217267346735  0.00633551595160  1.30269560966097
 6 -2.03683872817282  0.67674982198220  2.12524332253225
 6 -0.77306119361936  0.10825226672667  1.85069383158316
 6 -0.96749112411241 -0.88897400650065  0.84159086738674
 6 -6.24675077247725  1.55360711661166 -0.21312972677268
 6  0.53808729202920  0.30657858095810  2.61879654845485
 6 -6.65032746444644  1.03582588778878 -1.42918377607761
 6 -0.15051079307931 -1.91513681478148  0.23866104180418
 6  1.21239415061506 -1.92707522012201 -0.14566335953595
 6 -5.46935499359936  0.57320701390139 -2.19169861066107
 6  1.88064393429343 -2.98808238423842 -0.80330564716472
 6 -2.25189193039304  1.67518925092509  3.17754639463946
 6 -7.12607459965997  2.03690922692269  0.85064567846785
 6  3.08230375867587 -2.42818484278428 -1.21902305940594
 6  1.07063383598360  1.78132127432743  2.63556877527753
 6  3.08706524752475 -0.97698713811381 -0.98789242024202
 6  1.42766830473047 -4.44048842844284 -0.79661813571357
 6 -7.94615133603360  0.98775333973397 -2.20528525052505
 6  1.80318200830083 -5.14755099749975  0.44611093759376
 6  4.18994671107111 -3.07636890269027 -2.00130212761276
 6  3.97820676287629  0.00324198599860 -1.29169936503650
 6  2.51939455485549  1.86599077337734  3.06623652875287
 6  3.76856138203820  1.41180043634363 -1.17174294499450
 6 -9.16142431543154  0.75958380218022 -1.58887765036504
 6  1.22311962036204 -6.52581131063106  0.51111190389039
 6  4.69190325522552  2.49315137013701 -1.55363909040904
 6  3.94841047554755  3.53780794099410 -1.16332590389039
 6  2.71710046604660  3.16288799019902 -0.52391093809381
 6  5.91167917231723  2.24360623202320 -2.23370489928993
 6  4.36720751415142  5.02003352055206 -1.14331700360036
 6  6.84568211961196  3.21030745214521 -2.66188085618562
 1 -4.11876982768277  2.31860690559056  0.17932747474747
 1 -5.00564899399940 -0.60075506660666  1.05212646094610
 1 -4.90971109030903  0.63718794789479  2.14248638313831
 1 -3.01212862326233 -1.45761261876188 -0.19370176147615
 1 -3.43469916321632  0.43310638683868 -1.45669286658666
 1  0.43389997429743 -0.02271229772977  3.61543687588759
 1  1.43850229422942 -0.09669955395540  2.17379569997000
 1 -0.62582307480748 -2.73618158145815  0.11449126752675
 1 -3.31673382538254  1.63554013931393  3.45780194779478
 1 -1.51312617201720  1.57311593909391  3.89908963356336
 1 -2.17505030433043  2.76902553835383  2.79379153315332
 1 -6.54997889298930  2.68593754585459  1.47436555535554
 1 -7.70948365666567  1.28383471187119  1.38207062966297
 1 -7.78800729202920  2.68420059015902  0.27728672587259
 1  1.26204838613861  2.22606521452145  1.57069707730773
 1  0.54800884098410  2.60796888468847  3.21897225172517
 1  1.64785040334033  0.37755414561456 -0.37608983508351
 1  1.81936019461946 -4.91544706790679 -1.56138420062006
 1  0.26420450085009 -4.44827474087409 -0.88519128882888
 1 -7.88622394739474  1.14558719271927 -3.29062997499750
 1  1.67483042314231 -4.62267657195720  1.36251593919392
 1  3.03170421332133 -5.19820629962996  0.39719365776578
 1  4.00902534633463 -4.16105363386339 -2.16980603320332
 1  5.15392751425142 -2.98270715151515 -1.48385330683068
 1  4.46555365166517 -2.70227228282828 -3.12108243054305
 1  4.78161096819682 -0.41954606340634 -1.93534022222222
 1 -9.30566008820882  0.71735263246325 -0.64986567276728
 1 -9.88685685078508  0.72166654505451 -2.17443718541854
 1  3.89665609700970  3.31699426802680  3.33558174037404
 1  6.24197920352035  1.34687889438944 -2.13801130433043
 1  5.06682769296930  5.50144323632363 -2.24075113011301
 1  3.28401640574057  5.74918198809881 -0.95919900310031
 1  5.16165793729373  5.31427788238824 -0.22633438153815
 1  1.29131667016702 -8.14360560306030  1.57099677277728
 1  7.73992527432743  2.81516882318232 -3.09381814401440
 1  6.72941438573857  4.32932050335034 -2.28387127622762

