%nproc=4
%Mem=2GB
# td=(NStates=1) B3LYP/SVP 

TD

0 1
 8 -5.38247360916092  0.21802591759176 -3.33438627142714
 8  2.86637346344634  2.91496722012201  3.19896616101610
 8  3.17707844564456  0.73907891699170  3.28294025522552
 8  1.89401353725373 -7.23756966136614  1.47035744554455
 8  0.52649939933993 -6.93213411741174 -0.44361829302930
 8  1.99155261456146  4.21271423842384 -0.00287202280228
 7 -2.35449605230523 -0.97243224982498  0.60862738983898
 7 -4.34966887078708  0.85814006260626 -1.30080201230123
 7  1.88091781888189 -0.75021700270027 -0.20301173927393
 7  2.70431170157016  1.99909835993599 -0.51983945894589
 6 -4.81455370167017  1.19444962436244  0.03348380488049
 6 -4.48859346474647  0.24126054375438  1.23634569526953
 6 -3.00376383258326  0.00449533193319  1.29361470157016
 6 -2.03317836213621  0.60248239523952  2.10661145934593
 6 -0.74459834733473  0.04734617611761  1.78416717891789
 6 -1.00209458445845 -0.88613372247225  0.82051876017602
 6 -6.37558365576558  1.35304706060606 -0.17300571437144
 6  0.46327981128113  0.23241116421642  2.51911658045805
 6 -6.68267069876988  0.92803510871087 -1.44248510621062
 6 -0.20793653565357 -1.89022432353235  0.21681885758576
 6  1.06210912211221 -1.79713222582258 -0.17680647384738
 6 -5.42029008710871  0.66728642184218 -2.14632407320732
 6  1.80113598349835 -2.84974855085509 -0.85636095269527
 6 -2.20330707190719  1.73638537053705  3.11173981398140
 6 -7.21133312551255  1.96972250825083  0.87412802670267
 6  3.04036956525653 -2.32204422872287 -1.20856201330133
 6  1.04610138273827  1.71475461766177  2.51784700310031
 6  2.95312185318532 -0.92795223462346 -0.85193882488249
 6  1.42915845374537 -4.36227060666067 -0.81579005290529
 6 -7.90196691759176  0.80057462186219 -2.26844156615662
 6  1.69258094819482 -5.11840808320832  0.53629995649565
 6  4.17257497389739 -3.02401366716672 -1.80024202160216
 6  3.93289223142314  0.03075473727373 -1.17683787888789
 6  2.41659427482748  1.64441861616162  3.06826673177318
 6  3.77874240014001  1.36572582888289 -1.08167393809381
 6 -9.15979415241524  0.79241708550855 -1.65998476107611
 6  1.24703201160116 -6.49306803630363  0.48618941164116
 6  4.77308137303730  2.47058911391139 -1.48611233773377
 6  4.17770340484048  3.65080924112411 -1.09089866116612
 6  2.76266502250225  3.33667536893689 -0.45846439343934
 6  5.99463746814681  2.18025989738974 -2.32490401920192
 6  4.60799159255926  5.15033655085509 -1.31130380228023
 6  6.86601415281528  3.03935035643564 -2.88989365746575
 1 -4.35014296499650  2.19724476937694  0.13805334733473
 1 -4.81344977407741 -0.71673666476648  0.91518276657666
 1 -4.87065718491849  0.77865209430943  2.21211334583458
 1 -2.66788419881988 -1.57141399889989 -0.14368675997600
 1 -3.46351204450445  0.82193526972697 -1.66639383668367
 1  0.43757034133413  0.10118009150915  3.60500583278328
 1  1.16920536453645 -0.49692957695770  2.15756407680768
 1 -0.56959745224522 -2.97467543084308  0.23785360376038
 1 -3.25146729872987  1.96840342564256  3.40461662926293
 1 -1.75551041044104  1.56834546204620  4.10932065666567
 1 -1.90884368366837  2.81468010381038  2.83490564456446
 1 -6.59733362846285  2.63797274937494  1.34630274907491
 1 -7.48990169846985  1.25946227462746  1.61943436603660
 1 -8.26629512081208  2.36354852495250  0.51946094329433
 1  0.74768694999500  2.32144475247525  1.59576958455846
 1  0.39011305140514  2.19864795259526  3.27555791029103
 1  1.50337595589559  0.35331172137214 -0.04297652375238
 1  1.74207246584659 -4.98238376157616 -1.72877093929393
 1  0.32930101050105 -4.44553446684669 -0.97363013271327
 1 -7.69193451845184  0.61907454145415 -3.38367927992799
 1  1.22332527262726 -4.74265857015702  1.57215690329033
 1  2.75465650855085 -5.18540501950195  0.79268320672067
 1  3.85822026582658 -4.07471500000000 -1.94522357495750
 1  5.11830395189519 -3.04420330113011 -1.13082800430043
 1  4.72849994629463 -2.62223427902790 -2.67614793709371
 1  4.89766257335734 -0.41335544434443 -1.55997268546855
 1 -9.35278480068007  0.82813371057106 -0.53169385558556
 1 -10.18051621672167  1.01508588698870 -2.39763950565057
 1  3.86756318771877  2.88100066866687  3.39747792999300
 1  6.18348335393539  1.14199840634063 -2.15881338453845
 1  4.80285129532953  5.13121621362136 -2.43496055105511
 1  3.89870787488749  5.75739280918092 -0.69351243444344
 1  5.52034380588059  5.25529198379838 -0.79441118921892
 1  1.85331286978698 -8.16693793629363  1.35705537863786
 1  7.67301858365837  2.70800810711071 -3.46066482868287
 1  6.53205464976498  4.07792536383638 -2.92922581168117

