%nproc=4
%Mem=2GB
# td=(NStates=1) B3LYP/SVP 

TD

0 1
 8 -5.46694205600560  0.49507362236224 -3.37383021582158
 8  2.79155598169817  3.07403312671267  3.20743700810081
 8  3.08316905470547  0.93601861096110  3.08839080028003
 8  1.53805794169417 -7.28288419281928  1.59124953475348
 8  0.62575932533253 -7.09233013701370 -0.47614154535454
 8  1.90941440074007  4.02015498249825 -0.21805354095410
 7 -2.28782938563856 -0.97039204580458  0.60667719481948
 7 -4.44821872577258  0.68410265886589 -1.24616654875488
 7  1.81873160026003 -0.66259824082408 -0.41428286638664
 7  2.66720799119912  1.88944739483948 -0.51366884188419
 6 -4.74383662996300  1.15047522692269  0.02956341284128
 6 -4.47513211861186  0.22576899459946  1.20633269396940
 6 -2.96259971617162  0.01059594199420  1.29617495759576
 6 -1.95005004930493  0.64261640864086  2.05685648384839
 6 -0.67630151765177  0.07935937743774  1.72900166236624
 6 -0.97549192419242 -0.96453156225623  0.74506121442144
 6 -6.32355845324533  1.32172392829283 -0.14444285808581
 6  0.54425790909091  0.21164908800880  2.42905757455746
 6 -6.64975740744074  0.94550685588559 -1.39634049174918
 6 -0.12109785178518 -1.93981928302830  0.14693186888689
 6  1.17422033323332 -1.83997651025103 -0.31752054525453
 6 -5.46246430453045  0.56511620482048 -2.19181862266227
 6  1.88836470637064 -2.96945052105211 -0.86834215081508
 6 -2.20889763096310  1.80237196919692  2.98039667966797
 6 -7.18471046324632  1.84655019101910  0.96117673157316
 6  3.08778430673067 -2.39310133443344 -1.18999015611561
 6  1.03110988358836  1.76894003620362  2.45467068546855
 6  3.05639218021802 -0.93666310571057 -0.87696132713271
 6  1.50221575947595 -4.42794717431743 -0.81178965286529
 6 -8.05369209010901  1.05250981538154 -2.01859658165817
 6  1.79590128022802 -5.17132337473747  0.47613393989399
 6  4.29830754715471 -3.04335560136014 -1.71501349874988
 6  4.08907784998500 -0.00124846304630 -1.23995419051905
 6  2.41219383478348  1.93687786208621  3.05673557865787
 6  3.80256478237824  1.42027128342834 -1.05159092979298
 6 -9.22511068406841  0.82149999379938 -1.38895765836584
 6  1.14531183958396 -6.56394512401240  0.41183197589759
 6  4.80187425232523  2.51688374337434 -1.32862658915892
 6  4.03869950445045  3.64351851205121 -1.22811238253825
 6  2.76183493949395  3.26046774817482 -0.56473502050205
 6  6.14546255065507  2.27930980238024 -1.92501403020302
 6  4.44946573997400  5.07010852805281 -1.22399507140714
 6  6.96358390979098  3.12369879127913 -2.53255792389239
 1 -4.61399935063506  2.25413045794579  0.11275081708171
 1 -5.01980040914091 -0.49665465656566  1.08688993729373
 1 -4.99933005220522  0.72690691979198  2.08569070357036
 1 -2.76967437783778 -1.44435129262926 -0.22247463876388
 1 -3.44110980428043  0.73359643584359 -1.63464066136614
 1  0.49286587088709  0.08034800830083  3.61850718291829
 1  1.46309475347535 -0.47499738373837  2.20418873927393
 1 -0.46003649614961 -2.92422038533853 -0.05125530713071
 1 -3.35893804580458  1.95684226952695  3.20338650625063
 1 -1.64554941434143  1.88071669916992  3.92458218281828
 1 -1.89987278657866  2.80009864566457  2.64994714871487
 1 -6.73911780688069  2.60471942404240  1.49665778457846
 1 -7.47693040134013  1.00675700410041  1.67123954655466
 1 -7.99477796909691  2.45689785988599  0.48811780898090
 1  1.05317749904991  2.11135374337434  1.37193720132013
 1  0.23852789288929  2.34609269706971  2.92047240174017
 1  1.65749136743674  0.30909729992999 -0.20599282538254
 1  1.97010526912691 -5.16175169836984 -1.65048311051105
 1  0.47211529192919 -4.74548446184618 -1.22459522922292
 1 -7.95585091009101  1.15946858085809 -3.09277018901890
 1  1.29884282438244 -4.94938924322432  1.41217090469047
 1  2.86840788368837 -5.40190666966697  0.94995893429343
 1  4.03945838963896 -4.15541306980698 -1.67233628622862
 1  5.25339746124613 -2.97363624442444 -1.16700162166217
 1  4.77758485478548 -2.66817887348735 -2.76621694399440
 1  5.21822462956296 -0.23517762656266 -1.61406809500950
 1 -9.16521604380438  0.52257315451545 -0.42927361356136
 1 -10.09231739683968  1.11935631403140 -1.90675041674167
 1  3.75195162656266  3.13184575317532  3.46046422862286
 1  6.44157916351635  1.14365857235724 -2.09645714891489
 1  4.27146815701570  5.41844493649365 -2.37400445544554
 1  3.85364336843684  5.86793386328633 -0.85391847504751
 1  5.53944571607161  5.25401185578558 -0.85908765686569
 1  1.00457799629963 -8.05642688518852  1.42507218031803
 1  7.96245752755276  2.80108741504150 -2.96878564076408
 1  6.65518696299630  4.04564213551355 -2.43440632973297

