%nproc=4
%Mem=2GB
# td=(NStates=1) B3LYP/SVP 

TD

0 1
 8 -5.27322268406841  0.21167528252825 -3.32082491529153
 8  2.95282210831083  3.13049877327733  3.03454971937194
 8  3.23361409920992  0.93605861496150  3.40771273247325
 8  1.37772190809081 -7.25452135653565  1.40849125892589
 8  0.46781353075308 -6.83627453145315 -0.56128005920592
 8  2.00866432573257  4.05422838983898 -0.13155489108911
 7 -2.45682628532853 -0.92979798639864  0.74828135523552
 7 -4.27740164406441  0.74155840444044 -1.32767469956996
 7  1.76674640174017 -0.69654163516352 -0.38968040614061
 7  2.68859012941294  1.85776422652265 -0.51337881288129
 6 -4.79033127942794  1.06275645504550  0.08519897639764
 6 -4.48368297369737  0.31185760346035  1.40638269896990
 6 -2.98586204240424  0.15367024942494  1.48621396149615
 6 -2.00919596389639  0.71500364736474  2.23587438563856
 6 -0.75104899239924  0.15680712221222  1.77657641984198
 6 -1.07367174217422 -0.96165127422742  0.88245495379538
 6 -6.36509260666067  1.26343809970997 -0.19610802460246
 6  0.54078756205621  0.34808273137314  2.47108177697770
 6 -6.59011144284428  0.75915822102210 -1.35192605030503
 6 -0.23860960296030 -1.93129843094309  0.21594877057706
 6  0.99471238243824 -1.79668218081808 -0.28401719491949
 6 -5.41261932003200  0.47041673487349 -2.13587302810281
 6  1.88552442234223 -2.91767534353435 -0.75457077367737
 6 -2.18001474267427  1.85833756575658  3.21200984098410
 6 -7.35205719791979  1.85418095409541  0.79972058595860
 6  3.04895042334233 -2.29887191149115 -1.28087924502450
 6  1.16302307490749  1.78750189238924  2.29070428882888
 6  2.97918445944594 -0.88235767516752 -0.95537916891689
 6  1.50302584048405 -4.25316969656966 -0.82864133803380
 6 -7.96613333423342  0.71752631703170 -2.12570729272927
 6  1.85331702180218 -5.08344458685869  0.39301562806281
 6  4.17558527492749 -3.08289955575558 -1.94057605500550
 6  3.92017095929593 -0.00812915111511 -1.31028122322232
 6  2.50389300470047  1.83880805510551  3.01407131223122
 6  3.78100262616262  1.36374563086309 -1.09026479717972
 6 -9.27374554755476  0.59805764956496 -1.70104886748675
 6  1.15222253065307 -6.45912464196420  0.34509530223022
 6  4.83086715161516  2.42663471847185 -1.33680740724072
 6  4.24013964846485  3.61497565776578 -1.00996056735674
 6  2.84218297429743  3.29519122052205 -0.58424697169717
 6  6.10232823722372  2.17213908530853 -1.99427095589559
 6  4.58068886228623  5.03175469266927 -1.10647331923192
 6  6.94726227762776  3.03403982538254 -2.64646931503150
 1 -4.39157710841084  2.09411445634563  0.39093863586359
 1 -4.97043547264726 -0.70716570767077  1.53196444474447
 1 -4.88078819801980  0.94685891499150  2.18764089858986
 1 -3.02898030843084 -1.40821767926793  0.12450005870587
 1 -3.20059575287529  0.56228930513051 -1.60138733603360
 1  0.41197778207821  0.33998397189719  3.63077841004100
 1  1.23214165816582 -0.43063294729473  2.10439876027603
 1 -0.64756524902490 -2.85533349664966  0.02037185558556
 1 -3.26803895589559  1.93838042334233  3.36941310891089
 1 -1.97607246664667  1.67931655915592  4.16741646624663
 1 -1.80935373467347  2.96482511831183  2.87986014001400
 1 -6.75728962406241  2.60911986408641  1.57214533333333
 1 -7.93178588688869  0.92784911331133  1.23438586118612
 1 -8.12029052035204  2.43840601070107 -0.02268327112711
 1  1.39218139943994  2.15077768576858  1.16711671927193
 1  0.66993103320332  2.70411849964996  2.81578193269327
 1  1.42253787208721  0.58578496869687 -0.51879410551055
 1  1.85929418801880 -4.79368489168917 -1.65179324152415
 1  0.42998107850785 -4.21565147854785 -0.98198096779678
 1 -7.86438176317632  0.68086072007201 -3.31011192319232
 1  1.57352029212921 -4.70452475677568  1.44428411601160
 1  2.95908695159516 -5.23955043404340  0.39881381978198
 1  3.95038948274827 -4.01643917241724 -1.94224327692769
 1  5.11514363586359 -2.89134801560156 -1.29680460196020
 1  4.54425152145215 -2.59884193979398 -2.96185650795080
 1  4.82447525462546 -0.60984509330933 -1.65223191139114
 1 -9.58690821302130  0.66640753795380 -0.57168785498550
 1 -10.07916608170817  0.37598197659766 -2.57808755045505
 1  3.72378881028103  3.09613218181818  3.40517870007001
 1  6.43250825642564  1.19948415491549 -2.04566206940694
 1  4.53036404660466  5.23724681668167 -2.21792884788479
 1  3.89681768586859  5.67691476137614 -0.58983206640664
 1  5.69029080058006  5.33010946554655 -0.81428317641764
 1  1.00175771427143 -8.16790803330333  1.24902457555756
 1  7.91922320412041  2.66415372167217 -3.04044280648065
 1  6.77917936223622  4.10592816411641 -2.77058994809481

