%nproc=4
%Mem=2GB
# td=(NStates=1) B3LYP/SVP 

TD

0 1
 8 -5.23172853465346  0.16416053105311 -3.35346817961796
 8  2.84423124922492  3.09503522692269  3.36416268066807
 8  3.14050478827883  0.91325633473347  3.59671163236324
 8  1.63339747564756 -7.19016492089209  1.48910932073207
 8  0.31157790719072 -6.84057496149615 -0.33899783098310
 8  2.05199865916592  3.99757272427243  0.06693495789579
 7 -2.39399000170017 -0.93538854545455  0.62479900700070
 7 -4.35031893579358  0.60773502210221 -1.19900183228323
 7  1.95503523062306 -0.64512649364936 -0.40453189128913
 7  2.76975824622462  1.83465191529153 -0.50554802980298
 6 -4.83212545884588  1.15922610201020  0.05421587808781
 6 -4.51079568496850  0.26307272497250  1.19475153585359
 6 -3.02875633183318 -0.06806192379238  1.43158849894990
 6 -2.09362440674067  0.71917406440644  2.18547934613461
 6 -0.81339522702270  0.16523796529653  1.79419818201820
 6 -0.99325370037004 -0.89696480558056  0.77885459375938
 6 -6.25778187558756  1.31626338223822 -0.25186360016002
 6  0.46272975627563  0.34875279837984  2.46883155195520
 6 -6.62002443414341  0.89402170737074 -1.41035189288929
 6 -0.18240398239824 -1.93283858495850  0.17386456215622
 6  1.12205511671167 -1.80579309190919 -0.30850964416442
 6 -5.32832089018902  0.50120981418142 -2.19137857865787
 6  1.93319918981898 -2.92597617361736 -0.87763307990799
 6 -2.36547328852885  1.67119885188519  3.16612525252525
 6 -7.19399139133913  1.84272980898090  0.95899651355136
 6  3.07925345364537 -2.38070009430943 -1.31753291039104
 6  1.14275104770477  1.77236037823782  2.44857007540754
 6  3.12908944994499 -0.98731817121712 -0.97941157215722
 6  1.49119465736574 -4.22542692229223 -0.84789326322632
 6 -7.89998671957196  0.91365592999300 -2.15476019801980
 6  1.75714740484048 -5.03471971437144  0.50292661916192
 6  4.23193090949095 -3.15388665446545 -1.93700569796980
 6  4.02722166436644  0.02078374017402 -1.44230442554255
 6  2.43247586298630  1.79543371767177  3.20807071217122
 6  3.80217474337434  1.40465972227223 -1.12559833053305
 6 -9.22465063806381  0.83752159595960 -1.70630939353935
 6  1.20897820622062 -6.46425515501550  0.45867666036604
 6  4.64672873777378  2.50093214821482 -1.52114584108411
 6  4.06474210871087  3.69457361756176 -1.13268283958396
 6  2.86461521752175  3.26967866926693 -0.44228277527753
 6  5.89144714911491  2.24239611101110 -2.32164369316932
 6  4.60769156255626  5.05051656885689 -1.23095576747675
 6  6.84436198759876  3.03623004440444 -2.90303497159716
 1 -4.57135508620862  2.16969201410141  0.18035757775778
 1 -5.26732516161616 -0.64971996309631  0.94183543184318
 1 -4.91037115631563  0.74336856595660  2.11008314281428
 1 -2.86427383778378 -1.70654751225122  0.20950855955596
 1 -3.36895258855886  0.61233430963096 -1.53114031133113
 1  0.38022460676068 -0.14024405090509  3.46489182138214
 1  1.06520496449645 -0.57204708870887  2.16255457585759
 1 -0.65763625612561 -2.90866883018302  0.17152697109711
 1 -3.33950610261026  1.65070165546555  3.61399756735674
 1 -1.76377123652365  1.52133076057606  4.16652637723772
 1 -2.15937873717372  2.67461609740974  2.81583373737374
 1 -6.76537043214322  2.60049900200020  1.44791291009101
 1 -7.58618132643264  1.16080240864086  1.82202462506251
 1 -8.17052554385439  2.30047221732173  0.55439443664366
 1  1.29549173047305  1.99335194319432  1.46007601520152
 1  0.58414245434543  2.48454654245424  2.93249360386039
 1  1.84037965626563  0.45351174137414 -0.22146437253725
 1  1.98283654225423 -4.82888841204120 -1.74012207440744
 1  0.40405848624863 -4.56773668706871 -1.10897366706671
 1 -7.66674199919992  1.01948458245825 -3.23812472447245
 1  1.33497643774377 -4.38727303160316  1.30022971057106
 1  2.80827187008701 -5.10872735173517  0.52575651405140
 1  3.70210465426543 -4.08497602610261 -2.34169322192219
 1  5.08199032053205 -3.29072795359536 -1.23069799129913
 1  4.65819291559156 -2.57886994259426 -2.92606292859286
 1  4.91380418751875 -0.34966907570757 -1.99973666186619
 1 -9.47483700590059  0.79962085928593 -0.68301898809881
 1 -10.11629979507951  1.00150452885288 -2.42880262196220
 1  3.71070750215021  3.04677724632463  4.09053723592359
 1  6.09049405500550  1.27821202770277 -2.62383988718872
 1  5.20805181538154  5.18888198019802 -2.22136919191919
 1  3.79412741684168  5.94458152805281 -1.10522360556056
 1  5.36123789528953  5.10662711731173 -0.42403415151515
 1  1.25168270677068 -8.11501274377438  1.27225689878988
 1  7.97362864466447  2.51465877217722 -3.29832859505951
 1  6.71525296959696  4.16289386068607 -2.97327021612161

