%nproc=4
%Mem=2GB
# td=(NStates=1) B3LYP/SVP 

TD

0 1
 8 -5.51238660046005  0.16743085808581 -3.39610244304430
 8  2.78634546064606  3.09678540194019  3.26627289168917
 8  3.10741147894789  0.86362137123712  3.46860882208221
 8  1.65324946084608 -7.10809671407141  1.66116652645265
 8  0.84289103850385 -7.07383828782878 -0.52508643984398
 8  2.05550901020102  4.02289525652565 -0.11416315191519
 7 -2.43055365806581 -0.89302430903090  0.53141966906691
 7 -4.44786869076908  0.59726397499750 -1.33722565466547
 7  1.87090681778178 -0.64646662766277 -0.31532297039704
 7  2.51902317271727  1.82066051615161 -0.71525900090009
 6 -4.87502974927493  1.19096927632763 -0.08860840434043
 6 -4.44753935933593  0.31659807750775  1.15874793549355
 6 -2.98467192339234  0.10338522092209  1.31968730883088
 6 -1.99111415571557  0.66650879787979  2.09848064626463
 6 -0.73435732323232  0.02289373087309  1.70715947814781
 6 -1.07184155915592 -0.98035314441444  0.71845855415542
 6 -6.32222832023202  1.48903065896590 -0.21492990679068
 6  0.61947543084308  0.18800672377238  2.31770643944395
 6 -6.81465389708971  0.97372967816782 -1.44268512621262
 6 -0.24351009300930 -1.99517481858186  0.14152132783278
 6  1.01790470167017 -1.78492100470047 -0.25809460266027
 6 -5.51895995409541  0.47353704690469 -2.17196663746375
 6  1.80501637153715 -2.85839941594159 -0.79764508110811
 6 -2.16833357455746  1.72790452245225  3.21930057005701
 6 -7.08885087728773  2.01260679667967  0.95609622352235
 6  3.11679720802080 -2.36356838113811 -1.20743190029003
 6  1.05199197179718  1.70621376357636  2.43487870627063
 6  3.01786832783278 -0.93639307870787 -0.90161379237924
 6  1.44053959185919 -4.31591597119712 -0.89396787068707
 6 -8.11651837273727  0.95273983838384 -1.97054177617762
 6  1.80204189428943 -5.11526776917692  0.41149747624762
 6  4.35356307270727 -3.04458572437244 -1.66344834223422
 6  3.98451739393939  0.03290495229523 -1.29045924102410
 6  2.43589620502050  1.85266944124412  3.08313821892189
 6  3.75382990889089  1.40602985928593 -1.21222699339934
 6 -9.32682085508551  0.93702154595460 -1.40102886548655
 6  1.37068437683768 -6.58346707620762  0.40380117281728
 6  4.84254831973197  2.49028108310831 -1.50180390689069
 6  4.19131476597660  3.66296045624562 -1.10572014331433
 6  2.83905266126613  3.26355805720572 -0.49610815781578
 6  5.98669667406741  2.15829770117012 -2.10978250705071
 6  4.62720351375138  4.98525004220422 -1.13339601150115
 6  7.01916946834683  3.04429085048505 -2.52461712981298
 1 -4.12499044974497  1.99280432533253 -0.07732819081908
 1 -4.94404283338334 -0.68734372547255  0.92455370367037
 1 -4.76165628482848  0.85459968906891  2.06841897639764
 1 -2.99504691509151 -1.49540639813981 -0.03435582688269
 1 -3.55698139143914  0.80070314651465 -1.60495769306931
 1  0.70319690399040 -0.11512153865387  3.34329966216622
 1  1.35991443544354 -0.37601748574857  1.87005532593259
 1 -0.74861535403540 -2.81785974927493 -0.12055223682368
 1 -3.29297144914491  1.74302088738874  3.50779694729473
 1 -1.56361122052205  1.38263689118912  4.00633035763576
 1 -1.93671647094709  2.79366800260026  2.60518267226723
 1 -6.45043893899390  2.92317126922692  1.20856897569757
 1 -7.42860556885688  1.29239556795680  1.91846426902690
 1 -7.99013750505051  2.44011618171817  0.39057805500550
 1  1.25916809810981  2.20676328432843  1.33395340294029
 1  0.17833187328733  2.29695778357836  2.91899225372537
 1  1.75309092739274  0.43374976517652 -0.18684091019102
 1  1.98100635923592 -4.80851637483748 -1.72634069626963
 1  0.43902198259826 -4.48245815921592 -1.27171994169417
 1 -8.21412673767377  0.68334096809681 -3.14872578457846
 1  1.49107204730473 -4.82903720802080  1.54774446204620
 1  2.98943998689869 -5.05597207620762  0.56482042044204
 1  3.98348279207921 -4.11961949044904 -2.01364041664166
 1  5.29251137263726 -2.96581546234623 -0.97573249474948
 1  4.48999609590959 -2.54663671927193 -2.75420574287429
 1  4.82506531363136 -0.37163127192719 -1.91412810101010
 1 -9.45987550975098  1.23819471667167 -0.28807949414941
 1 -10.33408157325733  1.01015539393939 -2.00934067576758
 1  3.66616304770477  3.08346091469147  3.58733691589159
 1  6.16221122672267  1.18913311981198 -2.25938344154415
 1  4.27545855605561  5.34322741474147 -2.11930898589859
 1  3.92052005610561  5.50565763566357 -0.49930301350135
 1  5.77643941544154  5.29515597019702 -0.80538228632863
 1  1.37378491699170 -8.11926316881688  1.62025169826983
 1  8.00456173797380  2.71088839513951 -2.97223598579858
 1  6.91584302860286  4.24775234653465 -2.23698658775878

