%nproc=4
%Mem=2GB
# td=(NStates=1) B3LYP/SVP 

TD

0 1
 8 -5.34849021082108  0.14686880188019 -3.27754058685869
 8  3.00205703180318  3.02687841124112  3.20517678207821
 8  3.13803454125413  0.82926793589359  3.37607956915692
 8  1.56326046194619 -7.14539044344434  1.61253166296630
 8  0.41956870627063 -6.95183608760876 -0.27988191939194
 8  1.95385884518452  4.08399136613661 -0.00447218281828
 7 -2.37165776847685 -0.90847585418542  0.63027955505551
 7 -4.40358426232623  0.65089933853385 -1.31591352345235
 7  1.84424415151515 -0.72283426442644 -0.49692113021302
 7  2.66994826522652  1.88987743784378 -0.44639211421142
 6 -4.73803604990499  1.12508268766877  0.03285374187419
 6 -4.51621622702270  0.28032445014501  1.21898395909591
 6 -3.00493394959496 -0.01078619621962  1.39996533663366
 6 -1.99926497079708  0.56077822482248  2.10308110631063
 6 -0.75562945044504  0.04355579707971  1.85887464966497
 6 -0.99182355735574 -0.93819892899290  0.83113982228223
 6 -6.32807890529053  1.41222297819782 -0.22439085288529
 6  0.59491297459746  0.24284220732073  2.52868753755376
 6 -6.73829626132613  0.96348865406541 -1.46776763446345
 6 -0.13106884888489 -1.91246654775478  0.22009918561856
 6  1.09579249044905 -1.89273178577858 -0.36801559475948
 6 -5.43742180028003  0.49437913111311 -2.12820226102610
 6  1.92221809170917 -2.93861743774377 -0.97196251285129
 6 -2.15413215441544  1.63561529352935  3.12547118711871
 6 -7.21549354155416  1.88328386438644  0.83205381928193
 6  3.20538606690669 -2.37503952825283 -1.27653881098110
 6  1.06771354395440  1.70682382458246  2.47026224462446
 6  3.04653119411941 -0.95431487088709 -1.05430906190619
 6  1.51639717761776 -4.43245762536254 -0.80806928082808
 6 -7.96206292719272  0.92804736913691 -2.17800252225223
 6  1.70616230633063 -5.10318656105611  0.47231355785579
 6  4.32313002940294 -3.13363462926293 -1.96472847024702
 6  4.00940988318832  0.05709737153715 -1.29210940604060
 6  2.48105072047205  1.78336251055106  2.99479938503850
 6  3.73307783368337  1.45975523182318 -1.09183495419542
 6 -9.20734890789079  1.08455629942994 -1.68602736533653
 6  1.22171948034803 -6.52042077157716  0.54669546224622
 6  4.64503856875688  2.59092114711471 -1.55567929442944
 6  4.05867150165016  3.71683584378438 -1.09032860416042
 6  2.73402215821582  3.28970067146715 -0.43776232323232
 6  6.10517852225223  2.32135400680068 -1.90782231103110
 6  4.52770356375638  5.10264178137814 -1.23983665556556
 6  6.73896144754475  3.17809423082308 -2.83521818991899
 1 -4.27271522222222  2.17990303520352  0.26976651865187
 1 -4.89113754285429 -0.79553454455446  1.09889113741374
 1 -4.84308442764276  0.58327255635564  2.28634076857686
 1 -2.78194560496049 -1.74329118661866 -0.06454884618462
 1 -3.43451914521452  0.65687876407641 -1.79500669796980
 1  0.49567615191519 -0.17635766226623  3.42710804300430
 1  1.40213865786579 -0.40274015801580  2.13374169456946
 1 -0.66423691619162 -2.89036700000000  0.10550036843684
 1 -3.23273542554255  2.04282086738674  3.20429659725973
 1 -1.75304016341634  1.25896452395240  3.99246897149715
 1 -1.71429422872287  2.64110274607461  2.86169832383238
 1 -6.54531842694269  2.39646859895990  1.74255237403740
 1 -7.79147185548555  0.93659998839884  1.17172959555956
 1 -8.05350384168417  2.43025519561956  0.45551454865487
 1  1.01495367666767  2.15671827982798  1.50361036863686
 1  0.64276831693169  2.46054414221422  3.19799015351535
 1  1.62809842814281  0.23627001720172 -0.34123634973497
 1  1.97468572717272 -4.76360188338834 -1.62209027122712
 1  0.47596567696770 -4.55278519191919 -1.16428919861986
 1 -7.85654097909791  1.25491812581258 -3.28536944894489
 1  1.18922186228623 -4.70409471377138  1.36848653625363
 1  2.91142218511851 -5.26085256425643  0.49969390779078
 1  4.16109055285529 -4.16274380288029 -2.35650470307031
 1  5.14934705620562 -3.47225610641064 -1.28059298079808
 1  4.99154625092509 -2.69985204080408 -2.82844316661666
 1  4.88034084118412 -0.22579668846885 -1.63653034123412
 1 -9.26671619381938  0.94743564076408 -0.58828951515152
 1 -9.99536770187019  1.07785216361636 -2.39335907760776
 1  3.97890432183218  3.14442701130113  3.36854503670367
 1  6.54745975157516  1.49195340184018 -1.66246374957496
 1  4.33656466666667  5.50656374837484 -2.20139719471947
 1  3.95619362346235  5.85997306720672 -0.50430351355136
 1  5.65819759125913  5.04178063266327 -1.00009175727573
 1  1.05011254975498 -8.05213645614561  1.79769944304430
 1  7.73176445824582  3.02165947224722 -3.07689645184518
 1  6.56321776607661  4.32305987728773 -3.26969985908591

