%nproc=4
%Mem=2GB
# td=(NStates=1) B3LYP/SVP 

TD

0 1
 8 -5.39939530133013  0.32880699569957 -3.34595742854285
 8  2.77239406550655  3.15762148554855  3.29205546994699
 8  3.11211194899490  0.90552556165617  3.13440540174017
 8  1.25529966586659 -7.15529143354335  1.53126353615362
 8  0.26616336573657 -6.80226113011301 -0.49817374857486
 8  2.11663512281228  4.08927189418942 -0.16650838643864
 7 -2.34743534623462 -0.89864487108711  0.53074960206021
 7 -4.46146004990499  0.68558280688069 -1.16599853195320
 7  1.90425015211521 -0.65749773077308 -0.36934837293729
 7  2.79781105150515  1.87915636573657 -0.54983245824582
 6 -4.88911115741574  1.24253443284328  0.04209466596660
 6 -4.51404601000100  0.23586000370037  1.21283334403440
 6 -2.94650810701070  0.02384726712671  1.35890123022302
 6 -2.02705775007501  0.55468761576158  2.07788858705871
 6 -0.72825671317132  0.05154659615962  1.75207396959696
 6 -1.00169454445445 -0.89169427852785  0.71535824412441
 6 -6.47645374277428  1.18372012791279 -0.14178259205921
 6  0.55743922722272  0.42406032913291  2.47242191099110
 6 -6.76084851655165  0.77410971617162 -1.33151400910091
 6 -0.16268201020102 -1.87413271437144  0.11026820252025
 6  1.12704561576158 -1.81321383398340 -0.23783257645765
 6 -5.51636969506951  0.55882557575758 -2.14937437823782
 6  1.96929279917992 -2.82406598259826 -0.78467378397840
 6 -2.23428016921692  1.66375810781078  3.18873751375138
 6 -7.27839983218322  1.72664820082008  0.90895150905091
 6  3.11347687598760 -2.38829085338534 -1.16196735383538
 6  0.93654042664266  1.84593773597360  2.45538075647565
 6  3.06958349934993 -0.94082352175218 -0.91921555255526
 6  1.60392593049305 -4.30679505910591 -0.85407388128813
 6 -8.08039476037604  0.62971753615362 -2.03589831183118
 6  1.67862955305531 -5.06140238263826  0.44498082458246
 6  4.35352306870687 -3.13956522232223 -1.72196419381938
 6  4.07564650685068  0.01570323212321 -1.32514270937094
 6  2.41580419581958  1.85998017231723  3.00670057515752
 6  3.85653017891789  1.41652090839084 -1.20378614931493
 6 -9.21330950395039  0.55058290209021 -1.45335409800980
 6  1.00688799719972 -6.39413814331433  0.35885667836784
 6  4.95926999189919  2.47116917191719 -1.55449917641764
 6  4.35229086358636  3.64145830603060 -1.09200877217722
 6  2.94791354735474  3.24906660806081 -0.50941948894889
 6  6.26629463386339  2.21820369176918 -2.15569709850985
 6  4.69116991039104  5.01992350955096 -1.18350102200220
 6  7.10437798919892  3.11239766116612 -2.54388905700570
 1 -4.52900085078508  2.13757880278028  0.29922946494649
 1 -5.04524295339534 -0.69782477357736  1.27415866416642
 1 -4.80295041424142  0.67285151425142  2.11165329982998
 1 -2.80211762216222 -1.41905876337634 -0.30426281758176
 1 -3.49752544584458  0.87584066026603 -1.56020321762176
 1  0.45936252055206  0.26306628012801  3.59831516371637
 1  1.35421386538654 -0.35112499649965  2.13441176157616
 1 -0.46357685018502 -2.71503946724672 -0.16498668026803
 1 -3.20309246124612  1.65331191649165  3.67694386198620
 1 -1.56382124152415  1.19862849034903  3.89393911851185
 1 -1.84229702900290  2.74902353815382  3.01112326632663
 1 -6.96650054515452  2.33736268836884  1.70598871767177
 1 -7.87984069236924  0.92333866226623  1.50323274587459
 1 -8.24169266056606  2.21328349844985  0.56345534273427
 1  0.88876105740574  2.35228783678368  1.49193920152015
 1  0.34427846794679  2.46042413021302  3.12584293879388
 1  1.61312693099310  0.38656504670467 -0.32716494259426
 1  2.21998025662566 -4.55163068626863 -1.71739980218022
 1  0.59110719111911 -4.40889080248025 -1.27695046474647
 1 -8.08753407840784  0.68084071807181 -3.08917982998300
 1  1.07888082818282 -4.48285258955896  1.21841152875288
 1  2.60051109400940 -5.18431491049105  1.03371731013101
 1  3.89406385018502 -4.11638916741674 -1.98487754035404
 1  5.16233835533553 -3.34710359115912 -0.92737765926593
 1  4.71166826312631 -2.49862191779178 -2.49093941624162
 1  4.87080988808881 -0.57798190699070 -1.79850653885389
 1 -9.55999552175218  0.56586748394839 -0.40681136733673
 1 -10.00145831093109  0.16382076047605 -2.29504924662466
 1  3.71639807120712  3.07555012361236  3.42037021922192
 1  6.49844485008501  1.12243645014501 -2.20251775497550
 1  4.72084309450945  5.39565265726573 -2.16218327332733
 1  3.98394639873987  5.61636870677068 -0.55523860706071
 1  5.74569634113411  5.33103955855586 -0.81657340544054
 1  0.79167670617062 -7.92538378087809  1.24201387448745
 1  8.03628491029103  2.85357266356636 -3.05019378157816
 1  7.08525997029703  4.22735030633063 -2.44345723482348

