%nproc=4
%Mem=2GB
# td=(NStates=1) B3LYP/SVP 

TD

0 1
 8 -5.54831019281928  0.24060817581758 -3.34365719851985
 8  2.71799862596260  3.01971769516952  3.31199746414641
 8  3.17830856865687  0.77288229732973  3.05180714191419
 8  1.76277041294129 -7.15213111751175  1.55678608840884
 8  0.39959670907091 -6.85200610461046 -0.27199113031303
 8  2.02840629992999  4.06610957795780 -0.04554629022902
 7 -2.34250485318532 -0.87021202780278  0.42909943704370
 7 -4.51230513441344  0.70317456605661 -1.31224315641564
 7  1.84511423852385 -0.74483646464646 -0.34305574367437
 7  2.80377164756476  1.89123757385739 -0.47357483248325
 6 -4.87086933323332  1.15281546094609 -0.02834237773777
 6 -4.48867347274727  0.21663808150815  1.18656071677168
 6 -3.00009346554655  0.07317219961996  1.19259459955996
 6 -1.98992403670367  0.72534468146815  1.99899069726973
 6 -0.76617050455046  0.07185862736274  1.76473523572357
 6 -0.95989036403640 -0.87159226832683  0.72072878117812
 6 -6.35898199559956  1.32911466736674 -0.20386880068007
 6  0.46001948524852  0.20447837093709  2.54483915271527
 6 -6.85458789048905  0.93890619581958 -1.39717057475748
 6 -0.07857359935994 -1.93865916701670  0.20904808050805
 6  1.12904581578158 -1.89987249984998 -0.30963975717572
 6 -5.57167522562256  0.60051974517452 -2.20064950575058
 6  1.89872574247425 -2.91792536853685 -0.78786410301030
 6 -2.22400914211421  1.74563629562956  3.05509414941494
 6 -7.20533252545254  1.91124666066607  0.97473808770877
 6  3.09850537883788 -2.33358538283828 -1.17463862096210
 6  0.99168594119412  1.66380952315232  2.61881710011001
 6  3.05992253325333 -0.88357779717972 -0.99646327732773
 6  1.54867040494049 -4.38659303890389 -0.96201467536754
 6 -8.18114483538354  0.82125669006901 -2.13642836483648
 6  1.76686837693769 -5.00059630203020  0.49773610011001
 6  4.24416213261326 -3.13640490629063 -1.86228822622262
 6  4.06574551675167  0.03888555035504 -1.24646484158416
 6  2.39206182158216  1.77301147544754  3.05269517461746
 6  3.87052157805781  1.45965522182218 -1.08401417211721
 6 -9.29993816681668  0.73063090689069 -1.47190595319532
 6  1.11822913131313 -6.46039476897690  0.57086787948795
 6  4.97865193009301  2.52544459945995 -1.46966069256926
 6  4.24591022552255  3.58443260346035 -0.97450702200220
 6  2.92863161916192  3.24395609700970 -0.37866641364136
 6  6.25073307770777  2.15420729212921 -2.15296682548255
 6  4.70259105250525  5.09346086328633 -1.16471914381438
 6  6.91861941334133  3.14685110651065 -2.86163083118312
 1 -4.51935988668867  2.20335538043804  0.05173471547155
 1 -5.07796622572257 -0.60336532763276  1.18765001330133
 1 -4.81881200040004  0.91098532763276  2.14336647114711
 1 -2.73743115351535 -1.25225208270827 -0.48973136443644
 1 -3.57908360166017  0.68631170737074 -1.47514471177118
 1  0.30277686198620 -0.13365339183918  3.59638497069707
 1  1.26667511151115 -0.57840772477248  2.27189550995099
 1 -0.66393688618862 -2.76011397469747  0.04146396479648
 1 -3.25055720772077  2.12130871617162  3.18837500510051
 1 -1.70732559195920  1.62970159765977  4.11599132373237
 1 -1.84593739303930  2.80481911771177  2.63913606760676
 1 -6.82821671677168  2.46570552265226  1.73000111891189
 1 -7.51127383568357  1.11865819421942  1.80036245884588
 1 -8.20071856315631  2.43660583068307  0.74299329652965
 1  0.62545472677268  2.26109871787179  1.73361336893689
 1  0.46457049714971  2.10695878367837  3.42550290479048
 1  1.53850946924692  0.13095948614861 -0.00395262136214
 1  2.20152841144114 -4.93330885408541 -1.65082314451445
 1  0.56929500990099 -4.37637755115512 -1.12933570327033
 1 -7.98624394939494  0.70043267726773 -3.28030894289429
 1  1.36139908000800 -4.42620692499250  1.18601828942894
 1  2.94211525442544 -5.07078355735574  0.68783272167217
 1  4.19856430023002 -4.20631816031603 -2.01035008760876
 1  5.32447456895690 -2.88106698749875 -1.32021694319432
 1  4.37308440474047 -2.55112716831683 -2.75947626992699
 1  5.07748055515552 -0.25916002480248 -1.71827851605161
 1 -9.18608813101310  0.59143004020402 -0.32568325452545
 1 -10.25295346044605  0.69037341574157 -1.91699144084408
 1  3.62179861126113  2.89715228382838  3.73121130333033
 1  6.50120512611261  1.08189239573957 -2.07338484168417
 1  4.86921793199320  5.42636572857286 -2.14765182018202
 1  3.91877988208821  5.65202227212721 -0.68106118931893
 1  5.67357912941294  5.34356081068107 -0.60305205330533
 1  1.24446198469847 -7.94725596809681  1.30390006310631
 1  7.77243852565257  3.14096140244024 -3.50768953115311
 1  6.64215565986599  4.18662623392339 -2.86968985808581

