%nproc=4
%Mem=2GB
# td=(NStates=1) B3LYP/SVP 

TD

0 1
 8 -5.51408677047705  0.13414752975298 -3.19265209800980
 8  2.79007583368337  3.18667439083908  3.38309457385739
 8  3.27143788158816  0.93324833393339  3.15445740694069
 8  1.52409654555456 -7.22623852825282  1.50176058585859
 8  0.52111886128613 -6.89620052405241 -0.54732866406641
 8  2.25137859715972  4.04027699469947 -0.03402513811381
 7 -2.41655225792579 -0.86439144574457  0.57574410151015
 7 -4.53458736263626  0.75501975057506 -1.22153408550855
 7  1.95366509360936 -0.65283726472647 -0.39769120722072
 7  2.80983225362536  1.86465491559156 -0.50062753775378
 6 -4.94507675397540  1.21383156255626  0.04872532903290
 6 -4.54640924632463  0.27391380908091  1.22741480218022
 6 -3.01934539073907  0.08938382078208  1.25363070317032
 6 -2.01555659996000  0.78209035603560  2.02270306850685
 6 -0.74898878637864  0.21830327182718  1.69752851505151
 6 -1.02989736473647 -0.80937604670467  0.68010471877188
 6 -6.56416251365137  1.29973172907291 -0.19968838263826
 6  0.59437292059206  0.43780170327033  2.35547021582158
 6 -6.85304773647365  0.81450375557556 -1.37205806350635
 6 -0.25747148914891 -1.78630393149315 -0.04873769806981
 6  1.09531244244424 -1.75925843844384 -0.37771656485649
 6 -5.52313037113711  0.42730242344234 -2.08509795059506
 6  1.82108797869787 -2.86727030303030 -0.84425974257426
 6 -2.18951569276928  1.91586331833183  3.02973161316132
 6 -7.36053804600460  1.71810734673467  1.00404101800180
 6  3.04017954625463 -2.33846587088709 -1.23908506560656
 6  1.01757853045305  1.85613875607561  2.46175139353935
 6  3.15362190319032 -0.99206864626463 -0.92713634463446
 6  1.28615415331533 -4.27212159175918 -0.80242871677168
 6 -8.10192691359136  0.56553111751175 -2.01326604860486
 6  1.54678636873687 -5.05638188058806  0.47780410691069
 6  4.24181189758976 -3.09348061386139 -1.96650864826483
 6  4.10254919711971 -0.06157449564957 -1.26235643074307
 6  2.49876249164917  1.89425359965997  3.02882278737874
 6  3.99880440634063  1.37694695099510 -1.04030980168017
 6 -9.35272344534454  0.36729457325733 -1.54879364196420
 6  1.12300960936094 -6.48077680718072  0.47915870857086
 6  5.00643470837084  2.38622067706771 -1.52285601210121
 6  4.28481411591159  3.58232239243924 -1.12075164646465
 6  3.00919967596760  3.24771647304730 -0.56242478947895
 6  6.19627763216322  2.12007387878788 -2.15184671347135
 6  4.69483027642764  5.10028154535454 -1.06649932183218
 6  7.26596414781478  3.02693911531153 -2.21337600570057
 1 -4.55026297699770  2.24587963286329  0.24594413641364
 1 -5.13291172027203 -0.57076206730673  1.34162541084108
 1 -4.81330144934494  0.87031126022602  2.14429656415642
 1 -2.73068047844784 -1.33375023252325 -0.25356774807481
 1 -3.52054774807481  0.64442751895190 -1.51825902320232
 1  0.54821140544054  0.04733470697070  3.49131446364636
 1  1.30606905090509 -0.18639852385239  1.80102842324232
 1 -0.76235672817282 -2.74546250955096 -0.46544672627263
 1 -3.28158031003100  2.24580116541654  3.31671783938394
 1 -1.73299815921592  1.63413204070407  4.02862258685869
 1 -1.72087488678868  2.65719435523552  2.74906706070607
 1 -6.98541243634363  2.21173012511251  1.82679079787979
 1 -8.12268497679768  0.73995032343234  1.30192261486149
 1 -8.06011450275028  2.71690386048605  0.56559555675568
 1  1.16045822712271  2.34199680768077  1.50146015361536
 1  0.22378641874187  2.34577266506651  3.08353870837084
 1  1.79774539283928  0.30439682988299 -0.31352357845785
 1  1.79209746834683 -4.85543106630663 -1.65111317351735
 1  0.17937601800180 -4.11674158755876 -1.07557032673267
 1 -7.84634995999600  0.33583621762176 -2.94333524552455
 1  1.13653659375938 -4.50052435673567  1.52841252885289
 1  2.76093713661366 -5.05351183018302  0.52002594099410
 1  4.04512895669567 -4.07380490899090 -2.12545159775978
 1  5.14718684018402 -3.27083596439644 -1.55346026752675
 1  4.36180327662766 -2.61526358195820 -3.08483880618062
 1  4.87263007010701 -0.41863597239724 -1.81697838603860
 1 -9.62353187538754  0.47320821802180 -0.40835152135214
 1 -10.21007917301730 -0.08537415901590 -2.17525726742674
 1  3.83054948634863  3.13951652025202  3.42031021322132
 1  6.21312631823182  0.88721292779278 -2.73768127132713
 1  5.13962497269727  5.19746283828383 -2.17007406240624
 1  3.91409941404140  5.73920098999900 -0.74954803800380
 1  5.67098887038704  5.47462391699170 -0.50403215131513
 1  1.15246278477848 -8.13799504200420  1.19012868596860
 1  8.06138742054205  2.63431073737374 -2.71802056425643
 1  7.45177662196220  4.32065963726373 -1.96818970807081

