%nproc=4
%Mem=2GB
# td=(NStates=1) B3LYP/SVP 

TD

0 1
 8 -5.35503086488649  0.39434354935494 -3.33979681248125
 8  2.84401122722272  3.03518924232423  3.12442870727073
 8  3.11580231803180  0.86592160126013  3.33626558775878
 8  1.62400653655366 -7.14945084948495  1.51394180398040
 8  0.47037378677868 -6.99649055305531 -0.42836676787679
 8  2.15394885418542  4.09653262026203 -0.10935267086709
 7 -2.44781538423842 -0.94669967656766  0.56392291939194
 7 -4.40029393329333  0.68058230683068 -1.14996692879288
 7  1.83528325542554 -0.58860084108411 -0.39971140924092
 7  2.77944921532153  1.91457990809081 -0.56635411041104
 6 -4.84171641794179  1.20073025242524 -0.02667221072107
 6 -4.49313391879188  0.26890330803080  1.22542460316032
 6 -3.03400685688569  0.07557243964396  1.34395973607361
 6 -2.11776682098210  0.58504065106511  2.12473327152715
 6 -0.74660854835484  0.12434387588759  1.66938570077008
 6 -1.06382075707571 -1.00774588368837  0.75558226652665
 6 -6.38030412781278  1.31511326722672 -0.13130154395440
 6  0.47068055135514  0.37749567266727  2.48255292409241
 6 -6.62998543024302  0.90357266246625 -1.41418227592759
 6 -0.18169391139114 -1.89688498959896  0.07951512721272
 6  1.08621153235324 -1.77959047164716 -0.35515430863086
 6 -5.39647770587059  0.59777947114711 -2.08683812461246
 6  1.90740661056106 -2.91697527352735 -0.80198551515151
 6 -2.30973771497150  1.69781151315131  3.17234587458746
 6 -7.37484947714772  1.80207574357436  0.89229984388439
 6  3.13055858415842 -2.42519454375438 -1.26337749484948
 6  1.03337010961096  1.75719886208621  2.49016423482348
 6  3.03965050605060 -0.92780221962196 -1.00786441744174
 6  1.40760629852985 -4.34045842544254 -0.86391486538654
 6 -8.03788050895090  0.82667723212321 -2.02791751375138
 6  1.62123381348135 -5.05174141654165  0.48935526202620
 6  4.30995871227123 -3.12579384518452 -1.74504650205021
 6  4.05915485768577 -0.03181151935194 -1.35173536863686
 6  2.43512612801280  1.85401957625763  3.01529143424342
 6  3.91935646154615  1.35349460576058 -1.10988675937594
 6 -9.25616378937894  0.53588143194319 -1.45109387198720
 6  1.18239554795480 -6.51931066056606  0.46319711241124
 6  4.84230829572957  2.43103515851585 -1.44034776127613
 6  4.31657729222922  3.65294945514551 -1.16155572687269
 6  3.00882963896390  3.27196889828983 -0.50362890989099
 6  6.16608461286129  2.22862473387339 -2.09150067886789
 6  4.73078387178718  5.08924044124412 -1.13744641654165
 6  6.91515906730673  3.13264968636864 -2.66818148624863
 1 -4.34729267996800  2.27038208310831  0.32638218021802
 1 -5.13710213931393 -0.53960895199520  0.72434368266827
 1 -5.01039115831583  0.88662289138914  2.18377051155116
 1 -3.01888929932993 -1.36606346384638 -0.16940933223322
 1 -3.56124181748175  1.00434351055106 -1.49612680998100
 1  0.24360094439444  0.31015098859886  3.65780111231123
 1  1.14449289328933 -0.47461734573457  2.33828214861486
 1 -0.66891738423842 -2.72140010331033  0.10586040444044
 1 -3.34501665366537  1.47582416771677  3.73555972357236
 1 -1.40246510591059  1.59226785428543  3.86465619021902
 1 -2.51750454975498  3.00395903170317  2.63094524852485
 1 -7.01344523962396  2.61327027912791  1.51773989278928
 1 -7.73230593889389  0.94729105750575  1.54743716631663
 1 -8.16390488178818  2.27176934703470  0.42468146534653
 1  1.01914409570957  2.19648225622562  1.54748475607561
 1  0.27421146124612  2.33429151695170  3.15428578307831
 1  1.41082670097010  0.34312070227023 -0.48023024912491
 1  2.10855911451145 -4.93094861806181 -1.77710577277728
 1  0.39364744514451 -4.61493140654065 -1.08846161586159
 1 -7.87477280228023  0.81858449244924 -3.15787669966997
 1  0.97504044414441 -4.50947525182518  1.30276996459646
 1  2.64851589448945 -4.81483796279628  0.87073101150115
 1  4.13704814861486 -4.28344587308731 -1.60893994659466
 1  5.20115223672367 -2.55579446024602 -1.15822074357436
 1  4.55560265656566 -2.90595265086509 -2.80900122242224
 1  4.98375118221822 -0.16361046984699 -1.73912060026003
 1 -9.58379790199020  0.45496639383938 -0.43872455865587
 1 -10.17164532963296  0.55826020442044 -2.19551929362936
 1  3.67036346774677  2.88073064166417  3.65454363656366
 1  6.50959596519652  1.13822802930293 -2.10026752995300
 1  4.37301831203120  5.60212330433043 -2.16854390939094
 1  3.94129213331333  5.48839590949095 -0.39303238643864
 1  5.69917168866887  5.30211666626663 -0.91218296639664
 1  1.35176271477148 -8.16043728622862  1.51113078617862
 1  7.79027030883088  3.19529683598360 -3.14216297849785
 1  6.53104454875488  4.12867043834383 -2.72947583668367

