%nproc=4
%Mem=2GB
# td=(NStates=1) B3LYP/SVP 

TD

0 1
 8 -5.25172053385339  0.19669378437844 -3.28683151595160
 8  2.69114594069407  3.16929265266527  3.26558282268227
 8  3.36457719551955  1.00038504760476  3.18523048424842
 8  0.91465560146015 -6.97067297169717  1.74467487728773
 8  0.78366511591159 -7.02358326232623 -0.81594552575258
 8  2.02779623892389  4.07795076207621 -0.07284902050205
 7 -2.35071567426743 -0.95696070267027  0.56313284038404
 7 -4.36747065096510  0.46524077267727 -1.11133306540654
 7  1.92225195229523 -0.71010299129913 -0.33280471857186
 7  2.73926519691969  1.89743819391939 -0.52077955295530
 6 -4.84210645694569  1.11736191559156  0.12737319381938
 6 -4.48924352975297  0.18503492119212  1.28848090879088
 6 -2.93761721792179 -0.03909902750275  1.34803014311431
 6 -1.99615465976598  0.54515666266627  2.24894569276928
 6 -0.72475636313631 -0.01527008550855  1.81815057725773
 6 -0.97632200720072 -0.87942305140514  0.82512922122212
 6 -6.34108020542054  1.24394615051505 -0.16854526832683
 6  0.51652513581358  0.24811273437344  2.53034770357036
 6 -6.64391682338234  0.79428173337334 -1.34096495419542
 6 -0.13673941594159 -1.89962526362636  0.14917209290929
 6  1.09818272947295 -1.74101661426143 -0.33579237243724
 6 -5.36425448354835  0.43526321952195 -2.11754119491949
 6  1.92005787568757 -2.88972254825483 -0.90742605920592
 6 -2.28267500870087  1.66257798979898  3.15228386838684
 6 -7.23540553275328  1.93618915491549  0.88101871577158
 6  3.12947847614761 -2.32828485278528 -1.23650480758076
 6  1.03939071167117  1.71083422562256  2.57604282268227
 6  3.13731027202720 -0.89683912331233 -0.88078170917092
 6  1.48254379227923 -4.28745312491249 -0.90889936383638
 6 -7.89406612751275  0.92223678807881 -2.16468119011901
 6  1.60263195329533 -5.04024026642664  0.35261158765877
 6  4.34657237363736 -2.98802006780678 -1.74232623002300
 6  3.99218816101610  0.03861552335234 -1.27690788588859
 6  2.49240185558556  1.83192736703670  3.02591249634964
 6  3.79122364826483  1.40162941924192 -1.11548731943194
 6 -9.10067824082408  0.82699054285429 -1.55994475707571
 6  1.01182849124912 -6.35537426692669  0.38080887358736
 6  4.71623568846885  2.51686374137414 -1.54679840634063
 6  4.05814144864486  3.68297245744574 -1.19617918921892
 6  2.81661041704170  3.22701440284028 -0.64882342934293
 6  6.04997300170017  2.14016588798880 -2.04242577137714
 6  4.52306309970997  5.04012552975298 -1.47875054695470
 6  7.02112966436644  3.02885930733073 -2.52586725482548
 1 -4.46917486818682  2.15467051195119  0.23391293329333
 1 -4.98933736283628 -0.91949694079408  1.29010025832583
 1 -4.72285240444044  0.76254048314832  2.12827496199620
 1 -2.66876428682868 -1.47775463296330 -0.28577096839684
 1 -3.40339603290329  0.68408148434844 -1.32382958025803
 1  0.18073465776578 -0.09958998549855  3.52382771497150
 1  1.24352279627963 -0.42357224122412  2.12406072647265
 1 -0.61759225172517 -2.73959192249225 -0.03607378897890
 1 -3.31026317831783  1.96869345464546  3.28295446304631
 1 -2.01397625702570  1.44904353185319  4.15103482808281
 1 -1.88879167846785  2.49501813761376  2.80772292629263
 1 -6.58035193029303  2.64363331543154  1.60987910671067
 1 -7.86279898819882  1.21252758115812  1.72558498109811
 1 -8.13669216051605  2.39376154625463  0.41963096029603
 1  0.98476065736574  2.02794540254025  1.48216822442244
 1  0.49514355445545  2.28351643944394  2.99951030553055
 1  1.68792441074107  0.20269665986599  0.01775954985499
 1  1.85512377097710 -4.70395591879188 -1.84685274747475
 1  0.37065514591459 -4.35626553995400 -1.13551632133213
 1 -7.84832015701570  0.94461709570957 -3.22319323132313
 1  1.32394533463346 -4.55527983228323  1.19590927852785
 1  2.72986402930293 -5.29527600660066  0.60939487788779
 1  4.17280172397240 -4.05675320382038 -1.96002505510551
 1  4.91770389188919 -3.02123100390039 -0.79879480098010
 1  5.05637273357336 -2.70686274187419 -2.81676199849985
 1  4.89088189528953 -0.14509861866187 -1.77386407460746
 1 -9.58178770097010  0.72506340354035 -0.61307199339934
 1 -9.68451661676168  0.96492087048705 -2.41398113981398
 1  3.57363379477948  3.22322489108911  3.32629081128113
 1  6.21554656025603  1.03111731823182 -1.99665716891689
 1  4.67756876707671  5.20309340134013 -2.46794384938494
 1  3.85433343744374  5.97333440334033 -1.12033511671167
 1  5.60569234073407  5.28905536013601 -1.11779352745275
 1  0.53607114561456 -7.86347759025903  1.76801647474747
 1  7.99367064886489  2.80001730803080 -3.02383114531453
 1  6.81825326962696  4.09909748104810 -2.36759964906491

