%nproc=4
%Mem=2GB
# td=(NStates=1) B3LYP/SVP 

TD

0 1
 8 -5.20990635243524  0.11097521252125 -3.27654048684869
 8  2.76344317041704  3.07957368076808  3.44593085748575
 8  3.22451318911891  0.90507551665167  3.25534749594959
 8  1.35312944884488 -7.23629953435344  1.55211562136214
 8  0.81448819821982 -7.15902680668067 -0.69334326552655
 8  2.01029448874887  4.06471943894389  0.11059932433243
 7 -2.40542114481448 -0.94300930753075  0.67469399649965
 7 -4.27300120402040  0.61624587318732 -1.23786571867187
 7  1.84525425252525 -0.71511349234923 -0.27930936903690
 7  2.76916818721872  1.83051150125012 -0.39793726872687
 6 -4.77083933023302  1.19972015141514 -0.04811435493549
 6 -4.50085469086909  0.41252767046705  1.19060112081208
 6 -3.03649710591059  0.11260614301430  1.31401674177418
 6 -1.99092413671367  0.79584173117312  2.11579237743774
 6 -0.74803869136914  0.19137057855786  1.78690745294529
 6 -1.00466484148415 -0.89476458555856  0.79876658495850
 6 -6.23050914831483  1.35634739063906 -0.27849626342634
 6  0.58003148644864  0.32570049314931  2.57095176397640
 6 -6.56013844554455  0.82786509170917 -1.44565542324232
 6 -0.21026676867687 -1.88300360146015  0.23230040574057
 6  1.03175608680868 -1.80647315991599 -0.25551434463446
 6 -5.32744080218022  0.45383507670767 -2.04904434523452
 6  1.81579744964496 -2.89109268526853 -0.82170748734873
 6 -2.26100284148415  1.88390012201220  3.08326696669667
 6 -7.20692268446845  1.94697023302330  0.77436805070507
 6  3.09529505780578 -2.45486751105111 -1.20056121322132
 6  1.07039381198120  1.78021116331633  2.66824204260426
 6  3.04458099909991 -1.04493393279328 -0.88235186618662
 6  1.41322686058606 -4.37975235483548 -0.88202667656766
 6 -7.86848356925693  0.80457502190219 -2.07830255225523
 6  1.65695738583858 -5.21053729612961  0.37632395889589
 6  4.30918863526353 -3.00956222202220 -1.76505850325032
 6  4.00937988018802 -0.03926226442644 -1.18655885098510
 6  2.45107772317232  1.81596577087709  3.14537444254425
 6  3.78485301120112  1.41044030033003 -1.07222299299930
 6 -9.11758993199320  1.05782362616262 -1.60485924852485
 6  1.24348165656566 -6.63061179067907  0.29624041674167
 6  4.66557062196220  2.48892094709471 -1.54876860336034
 6  4.06612224672467  3.62219637983798 -1.19110868216822
 6  2.79964872087209  3.20741244264426 -0.39911845884588
 6  5.91194919931993  2.29462133353335 -2.25543707250725
 6  4.37426822022202  4.97130864806481 -1.52912558445845
 6  6.67361491289129  3.24169059045905 -2.88233290139014
 1 -4.34579252995299  2.33887893279328  0.09440898289829
 1 -4.83485191429143 -0.69202419351935  1.03043429172917
 1 -4.92008212741274  0.72535676477648  2.07355949044905
 1 -2.97812522292229 -1.63823068056806  0.08599620832083
 1 -3.27030272357236  0.91238431463146 -1.49354655195520
 1  0.53113969826983 -0.05270529702970  3.67824315651565
 1  1.39159760376038 -0.16963684768477  1.96612493289329
 1 -0.83204369686969 -2.88974693799380 -0.16879706130613
 1 -3.45856800880088  2.04145073037304  3.20212638023802
 1 -2.02230709010901  1.55855448294830  4.28332805740574
 1 -1.66881968126813  2.79879851565157  2.75251740574057
 1 -6.55656955205521  2.37758671077108  1.51377949674968
 1 -7.76596930523052  1.06667299569957  1.34839726232623
 1 -7.93322181348135  2.68503067316732  0.31150014721472
 1  0.88545072637264  2.33319592759276  1.89271927952795
 1  0.53268730883088  2.59046713451345  3.33669402390239
 1  1.64129974827483  0.27138352855286 -0.10483270937094
 1  1.80445870447045 -4.78959448264826 -1.74219228142814
 1  0.57703578397840 -4.33462337573757 -1.09331210091009
 1 -7.85466079107911  0.37505013901390 -3.13431434343434
 1  1.37896083618362 -4.76193049734974  1.30511019861986
 1  2.93599464236424 -5.14832131113111  0.32177611601160
 1  4.12428687248725 -4.10955848434843 -2.22147119971997
 1  5.18342046354636 -3.25357423822382 -1.17880280178018
 1  4.52428952525253 -2.38753080868087 -2.74924524682468
 1  4.78204101120112 -0.43414752355236 -1.95613230143014
 1 -9.47105662786279  1.40945184238424 -0.54524521072107
 1 -9.98661682678268  1.01197557595760 -2.25586532823282
 1  3.88728515991599  3.14124669326933  3.74573275547555
 1  6.27198220382038  1.16858106460646 -2.36573407660766
 1  4.28200921112111  5.23747683968397 -2.65039209420942
 1  3.64146215031503  5.47508457835784 -0.80006308950895
 1  5.34592636413641  5.19832628722872 -0.99173092119212
 1  1.33278081658166 -8.25452669516952  1.41449112221222
 1  7.65392667446745  2.67396470277028 -3.29977874007401
 1  6.51835327962796  4.38003557485749 -3.11648453755376

