%nproc=4
%Mem=2GB
# td=(NStates=1) B3LYP/SVP 

TD

0 1
 8 -5.64428979077908  0.06155027002700 -3.33325615841584
 8  2.90840766686669  3.14048977237724  3.46580284468447
 8  3.34895563336334  1.00358536763676  3.09468142934293
 8  1.13518765466547 -7.17203310771077  1.48088849864987
 8  0.48223497289729 -6.91499240324032 -0.63685761696170
 8  2.00560401970197  4.10634360136014 -0.15827756335634
 7 -2.32555315801580 -0.84789979657966  0.57728425552555
 7 -4.52024592849285  0.57431167976798 -1.37446937903790
 7  2.06092581968197 -0.75338731973197 -0.14844628272827
 7  2.79030030043004  1.85791424152415 -0.34219169416942
 6 -4.84110635693569  1.19503968336834 -0.00062960646065
 6 -4.39381398679868  0.31336775447545  1.16459852055206
 6 -2.94733819001900  0.09851473387339  1.26879221932193
 6 -1.97238228252825  0.71324347134713  2.01977277547755
 6 -0.72006589408941  0.21511295279528  1.70945970817082
 6 -0.92504687968797 -0.79268437753775  0.79205591389139
 6 -6.35433153055305  1.31894365026503 -0.15072348614861
 6  0.52959644294429  0.43755167826783  2.46193086188619
 6 -6.80758319001900  0.72652495769577 -1.37607846554655
 6 -0.15126086808681 -1.80827612871287  0.07363453915392
 6  1.18067097829783 -1.86341885448545 -0.15109390259026
 6 -5.66856491459146  0.40530022322232 -2.15669511031103
 6  1.96422229212921 -2.89979355535554 -0.85516083268327
 6 -2.27015375657566  1.76185791779178  3.09472811281128
 6 -7.21914390659066  1.83017855385539  0.92675328922892
 6  3.19243477177718 -2.40990301460146 -1.25771692879288
 6  1.12347912051205  1.82541568376838  2.47225244364436
 6  3.22697923892389 -1.07396683608361 -0.77717134813481
 6  1.49957549544954 -4.37453183278328 -0.91318979287929
 6 -8.16523324422442  0.77599216361636 -2.08057277927793
 6  1.53495518561856 -5.08451469386939  0.32759908640864
 6  4.37690540694069 -3.20021128692869 -1.75211720912091
 6  4.17211615381538  0.00798246004600 -1.17231742684268
 6  2.52215483088309  1.91262543684368  3.01091099619962
 6  3.92870739663966  1.29414867116712 -0.89276504720472
 6 -9.34284245724572  0.59660750455046 -1.48175693829383
 6  1.03160046844684 -6.47491622112211  0.31670246294629
 6  4.88289235413541  2.53659571457146 -1.40868459495950
 6  4.18459409390939  3.66155031523152 -1.06441601290129
 6  2.85919467546755  3.21938363976398 -0.53706225322532
 6  6.14539254365437  2.24374624602460 -2.07536906570657
 6  4.63749454285429  5.07184870207021 -1.26899957185719
 6  6.83763131453145  3.21355777717772 -2.71059572767277
 1 -4.45132308300830  2.02770781568157  0.22240178217822
 1 -4.82727115621562 -0.72020701180118  1.33055430373037
 1 -4.62249236843684  0.70959518861886  2.13438557305731
 1 -2.79993740414041 -1.28232509000900 -0.21228361966197
 1 -3.63381907520752  0.86217929412941 -1.78195539283928
 1  0.37278386268627  0.38795876937694  3.45587091929193
 1  1.31230967496750 -0.37442732673267  2.16869518991899
 1 -0.53845433793379 -2.67740570387039 -0.41429161076108
 1 -3.32066421842184  1.97309389468947  3.33769993759376
 1 -1.87021188058806  1.40156878437844  4.05259498409841
 1 -1.84365716501650  2.76023465926593  2.81568372237224
 1 -6.81343523862386  2.60006895899590  1.67357547634764
 1 -7.43836654495450  1.06728305670567  1.70242266486649
 1 -8.11592008330833  2.15262743284328  0.36937593479348
 1  1.24571675297530  2.17151975997600  1.37771777937794
 1  0.55027906800680  2.52298038583858  2.96831718621862
 1  1.75450106840684  0.21822821302130 -0.03214544064406
 1  2.10230848944894 -4.96280180338034 -1.83551161336134
 1  0.37358543894389 -4.32643255665567 -1.38952172187219
 1 -8.08665399039904  0.77081971597160 -3.13694460646065
 1  0.93720666076608 -4.56638094239424  1.13371305890589
 1  2.51655269816982 -5.19607608660866  0.87798173657366
 1  4.06806124992499 -4.20848837733773 -2.28241729432943
 1  5.22382450395040 -3.29618849964996 -0.90409533103310
 1  4.95280237653765 -2.56362841844184 -2.58576889918992
 1  5.11120392749275 -0.46237034583458 -1.79569625782578
 1 -9.36732625482548  0.81914281148115 -0.39760044624462
 1 -10.18867703280328  0.45106948534854 -2.19459920162016
 1  3.74604103550355  3.10707327592759  3.91203938613861
 1  6.53786879247925  1.22870707720772 -1.83302080528053
 1  4.51585259545955  5.32868596059606 -2.34718177317732
 1  4.07268527262726  5.71046811671167 -0.70175325852585
 1  5.63900567206721  5.29809626422642 -0.97204895299530
 1  0.69967750625063 -8.03117435993599  1.20777045014501
 1  7.62573385518552  3.00356766306631 -3.23738250045004
 1  6.40785222952295  4.23111068236824 -2.82551544064406

