%nproc=4
%Mem=2GB
# td=(NStates=1) B3LYP/SVP 

TD

0 1
 8 -5.25729109090909  0.22917703270327 -3.33655648844884
 8  3.08929575567557  3.15588131153115  2.92324858925893
 8  3.12811354915492  0.80747575667567  3.28532049324932
 8  1.46240037593759 -7.19125502990299  1.48191860166017
 8  0.39828657805781 -6.90906181018102 -0.43348727992799
 8  1.96996045534553  4.04379734673467 -0.17564930053005
 7 -2.39547014971497 -0.90046505310531  0.57252377947795
 7 -4.36303020692069  0.52858710731073 -1.27797973007301
 7  1.92029175627563 -0.65547752875288 -0.26935837393739
 7  2.62758402880288  1.84895334543454 -0.52289976497650
 6 -4.87460970727073  1.21038121752175  0.03076353285329
 6 -4.49854445984598  0.31948836653665  1.24156621732173
 6 -2.97535099129913  0.02288717111711  1.36602194229423
 6 -2.03949899419942  0.65822796979698  2.08131893009301
 6 -0.80682456995700  0.11925336683668  1.78969773197320
 6 -0.99491386638664 -0.87596270537054  0.86077278557856
 6 -6.35367146454645  1.29923167906791 -0.14353276707671
 6  0.45283876717672  0.34412233533353  2.51394606340634
 6 -6.70683311501150  0.92751505670567 -1.40222107980798
 6 -0.22663840584058 -1.96544184528453  0.19423659935994
 6  1.16747965916592 -1.87680019261926 -0.29891868506851
 6 -5.33411146924692  0.55345503870387 -2.16941638243824
 6  2.00914678457846 -2.97875145114511 -0.82907822442244
 6 -2.26414315551555  1.65768750075007  3.20593923392339
 6 -7.14972696489649  1.89637517351735  0.90560117401740
 6  3.20894642294229 -2.38700072437244 -1.20217137423742
 6  1.11421819441944  1.71834497669767  2.46397161556156
 6  3.11069761076108 -0.96392583198320 -0.90498412941294
 6  1.57678321622162 -4.47207158675868 -0.89858833273327
 6 -7.90725744664466  0.78665322972297 -2.18000272227223
 6  1.76233792389239 -5.16840308270827  0.46113243974397
 6  4.29667738413841 -3.09716098189819 -1.85094709210921
 6  3.96700564276428  0.01753341514151 -1.26875707080708
 6  2.52809542494249  1.85452962726273  3.00072997809781
 6  3.70298482438244  1.36104536083608 -1.07523329402940
 6 -9.14626279927993  0.95786363016302 -1.56863562616262
 6  1.10389769816982 -6.49959868936894  0.49530032273227
 6  4.73177724262426  2.45888794379438 -1.43256698319832
 6  4.16738237273727  3.67213137333733 -1.01049062036204
 6  2.75827458345835  3.29195089648965 -0.53892243924392
 6  5.93731173557356  2.22405427682768 -2.10717224602460
 6  4.47712850625062  5.11942345954595 -1.15659833173317
 6  6.82262981438144  3.23104952635264 -2.55300996909691
 1 -4.47058500920092  2.25949099399940  0.22654219621962
 1 -5.28832726182618 -0.51651664276428  0.87202845114511
 1 -4.96873699289929  0.75946017511751  2.18935106960696
 1 -2.78828623902390 -1.42509936743674 -0.09073146444644
 1 -3.51743743704370  1.13223629982998 -1.79659685698570
 1  0.25403198749875  0.09034900840084  3.52723805600560
 1  1.30475891989199 -0.28871875587559  2.37165548594859
 1 -0.67838833133313 -2.96144410771077 -0.15174535613561
 1 -3.41393354535454  1.84324090939094  3.61468763636364
 1 -1.73485834523452  1.23682230973097  4.09452917751775
 1 -2.10936373567357  2.61191982778278  2.92032418641864
 1 -6.56576047114712  2.32357130923092  1.65045316411641
 1 -7.59275198349835  1.01255758415842  1.61842426502650
 1 -8.03290178147815  2.39090126022602  0.57098609580958
 1  1.35053723502350  2.17018962696270  1.33798380598060
 1  0.58052209230923  2.32032011981198  3.15284563906391
 1  1.69052467076708  0.39447583778378  0.02652042594259
 1  1.94961321992199 -5.08189371257126 -1.84241230343034
 1  0.29601768216822 -4.45849576297630 -1.07641041074107
 1 -7.80931625662566  0.51096373037304 -3.27107801980198
 1  1.07726066616662 -4.68965326962696  1.23476316391639
 1  2.78527957085709 -5.11530800980098  0.96098003640364
 1  4.05867031083108 -4.20167769626963 -2.09100815341534
 1  5.42128424992499 -3.20038891969197 -1.43318824032403
 1  4.62738983528353 -2.39179123472347 -2.68679900220022
 1  5.03881668876888 -0.23540764956496 -1.55717240544054
 1 -9.24924444664467  1.08355925312531 -0.41936262246225
 1 -10.03971213631363  1.02045642404240 -1.98691843354335
 1  4.08236466786679  3.03016558515852  3.16567474967497
 1  6.08037304290429  1.11215542204220 -2.31229873307331
 1  4.16070708090809  5.54813790579058 -2.21763881888189
 1  3.59499750385038  5.61194826472647 -0.47939102230223
 1  5.51036280778078  5.66511296589659 -0.79097084518452
 1  1.10744828332833 -7.94377562006201  1.28515818891889
 1  7.83324460626063  3.01949925622562 -3.14825358755875
 1  6.51021246554656  4.41065863716372 -2.33971686078608

