%nproc=4
%Mem=2GB
# td=(NStates=1) B3LYP/SVP 

TD

0 1
 8 -5.33930929272927  0.03687780278028 -3.24712754555456
 8  2.93858068416842  3.11808753215322  3.34175043944394
 8  3.17731846964696  0.89558456755676  3.08660062126213
 8  1.65064920082008 -7.31918782318232  1.35830624042404
 8  0.46983373277328 -6.88687959195920 -0.45829976117612
 8  2.13889734903490  4.03993696069607  0.05804406880688
 7 -2.38927953065307 -0.77315232183218  0.77663419051905
 7 -4.42718662256226  0.73780802940294 -1.22725465756576
 7  1.81629135623562 -0.69366134713471 -0.39942138023802
 7  2.68804007440744  1.78747719781978 -0.63587106210621
 6 -4.85083733003300  1.24726490589059  0.03529398589859
 6 -4.55003960936094  0.27155357305731  1.22604466516652
 6 -3.09279273547355  0.16673155555556  1.47281262136214
 6 -2.07404244854485  0.85178732573257  2.16793759195920
 6 -0.77004089158916  0.22618405990599  1.76268503070307
 6 -1.04004837983798 -0.84714982408241  0.88678538683868
 6 -6.36001209860986  1.33928568446845 -0.22025043884388
 6  0.52221570487049  0.49436735983598  2.60260492929293
 6 -6.72783521522152  0.80007231243124 -1.41302215991599
 6 -0.25790153215322 -1.83978928002800  0.18073524922492
 6  1.00704361556156 -1.78327083968397 -0.29459825302530
 6 -5.48440649874987  0.41666135933593 -2.06261570237024
 6  1.74734060396040 -2.89185276127613 -0.86005132173217
 6 -2.20563730493049  1.81818355035504  3.23290193019302
 6 -7.28938093029303  1.87511304730473  0.84235484938494
 6  2.95899142744274 -2.31375339963996 -1.21443260036004
 6  1.12218899149915  1.84946808900890  2.54398961736174
 6  3.05179172017202 -0.97515695509551 -0.91837546854685
 6  1.38504404230423 -4.28102248184818 -0.91646011991199
 6 -7.94297101800180  0.50766533093309 -2.16312103410341
 6  1.88483017311731 -5.13157940034003  0.35003132963296
 6  4.05444316071607 -3.17627889368937 -1.83208520592059
 6  4.00511945414541 -0.06552489068907 -1.29036923202320
 6  2.40550316571657  1.83699787408741  3.06918682378238
 6  3.89496402230223  1.32613186948695 -1.22801857255726
 6 -9.24329250225023  0.56699454325433 -1.76291505410541
 6  1.23518082648265 -6.48620735023502  0.31321211391139
 6  4.86718078297830  2.47937999299930 -1.54427815431543
 6  4.27490312481248  3.63683784398440 -1.06169574087409
 6  2.89428818481848  3.18617031843184 -0.58676722372237
 6  6.09646765116512  2.18222009340934 -2.14737626642664
 6  4.75386618001800  5.01972348954896 -1.18499117101710
 6  6.99645719711971  3.18574499589959 -2.41777644574457
 1 -4.41169912061206  2.25073011791179  0.21547108910891
 1 -5.26195462456246 -0.49962495359536  1.03207445574557
 1 -4.82081220042004  1.04601883098310  2.08288042254225
 1 -2.74707211761176 -1.26921377887789  0.20211782048205
 1 -3.42411810511051  0.65322839903990 -1.56562375967597
 1  0.37645422972297  0.29952992649265  3.77573290549055
 1  1.32147059105911 -0.14745462946295  1.91362968336834
 1 -0.73263375587559 -2.82959092239224  0.02695251365137
 1 -3.40704285628563  2.19504608990899  3.53371953955395
 1 -1.63060792019202  1.62713134063406  4.18978870347035
 1 -1.92843564286429  2.76034467026703  2.77527968196820
 1 -6.91128502360236  2.79027797989799  1.10769888868887
 1 -7.44557726602660  1.04969129752975  1.79730215281528
 1 -8.25477396869687  2.19728189828983  0.37681667886789
 1  0.99666184748475  2.13407601560156  1.45737574517452
 1  0.66467050715072  2.66150423822382  3.02674302880288
 1  1.60238585688569  0.25730212041204 -0.23738596469647
 1  1.54631288988899 -4.69379490269027 -1.89055711791179
 1  0.15217329772977 -4.28852876627663 -0.95036780648065
 1 -7.73140846584658  0.11805443944395 -3.20804171617162
 1  1.68922186228623 -4.59171347564757  1.36778646624662
 1  3.01049209210921 -5.22106858585859  0.23955789418942
 1  3.94698914271427 -4.34889241774177 -1.88729778237824
 1  5.16180830233023 -3.12622150295029 -1.30019494099410
 1  4.54259135543554 -2.84065612121212 -2.78989931223122
 1  4.87812061916192 -0.40791490029003 -1.73285997419742
 1 -9.45624514671467  0.85572646984698 -0.60525121132113
 1 -10.13326149124913  0.52825720412041 -2.37395713741374
 1  3.85516194759476  2.84337690629063  3.33432161436144
 1  6.49459446504650  1.05603981048105 -2.62041954515452
 1  5.07361837203720  5.18287137913791 -2.24558161316132
 1  3.82336034013401  5.59587665756576 -0.91195427862786
 1  5.78350012151215  4.99789624422442 -0.60402215031503
 1  1.03977151565157 -7.87042828532853  1.13142281538154
 1  7.88916019781978  2.83425073137314 -2.82875163736374
 1  6.93616506080608  4.22881045234524 -2.04288717781778

