%nproc=4
%Mem=2GB
# td=(NStates=1) B3LYP/SVP 

TD

0 1
 8 -5.35655101690169  0.08474258925893 -3.32885571837184
 8  2.78654548064806  3.18610433383338  3.17131339573957
 8  3.18157889568957  0.97286229532953  3.17824978617862
 8  1.66541067696770 -7.22188809320932  1.47115752555256
 8  0.51543829322932 -6.97201810581058 -0.48281221242124
 8  2.13890735003500  4.14427739473947 -0.15001673727373
 7 -2.44072467516752 -0.91263627022702  0.61725825292529
 7 -4.52320622452245  0.62530677927793 -1.24230616271627
 7  1.83731345844584 -0.62441442244224 -0.42295373347335
 7  2.74049531993199  1.91768021812181 -0.54795227022702
 6 -4.88163040934093  1.22250242964296 -0.02327187068707
 6 -4.48827343274327  0.36685310301030  1.18787084778478
 6 -3.04722817901790  0.13473835623562  1.37046238633863
 6 -2.08064310861086  0.65888803580358  2.09209000720072
 6 -0.82819670717072  0.08226966846685  1.78271703390339
 6 -1.04668904390439 -0.87295240434043  0.87037374567457
 6 -6.43172927032703  1.33139489538954 -0.21006942074207
 6  0.45156864016402  0.37996591969197  2.53083775257526
 6 -6.76756918861886  0.87043934913491 -1.40415127282728
 6 -0.21473721572157 -1.82006730783078  0.15826300200020
 6  1.04963787498750 -1.72333484608461 -0.31417021022102
 6 -5.52788084618462  0.40978067126713 -2.19001844264426
 6  1.80989685958596 -2.91353492949295 -0.96836215281528
 6 -2.30108684988499  1.61029276127613  3.11299993999400
 6 -7.29679167136714  1.89861539753975  0.87736835073507
 6  3.04564009230923 -2.38121014531453 -1.23320447754775
 6  1.04935170777078  1.73966710891089  2.45978119651965
 6  3.06836337733773 -0.97298673807381 -0.97003063406341
 6  1.47700323822382 -4.40497487708771 -0.94796327022702
 6 -8.12298901980198  0.80954551895190 -1.94477919991999
 6  1.76703839393939 -5.10985722812281  0.35758208470847
 6  4.23470118651865 -3.10304156995700 -1.81488348574857
 6  4.10228917111711 -0.07024536273627 -1.13953414851485
 6  2.48523113851385  1.82615678997900  2.97403730883088
 6  3.92676720262026  1.40250950725073 -0.96246201690169
 6 -9.30821899489949  0.77144498829883 -1.39611837443744
 6  1.23691099949995 -6.57657638713871  0.38091888458846
 6  4.89973403830383  2.45151720672067 -1.34484821132113
 6  4.31148678317832  3.62425658585859 -1.01049062036204
 6  2.94334309030903  3.33568526992699 -0.52577112411241
 6  6.30815882028203  2.18303017441744 -1.91982351115112
 6  4.77432822622262  5.06341785898590 -1.22319499139914
 6  6.91208876027603  3.10679710111011 -2.71879654775478
 1 -4.55021297199720  2.24716976187619  0.28212775477548
 1 -5.03871230033003 -0.63338832993299  0.99606085438544
 1 -4.76242636183618  0.92449667876788  2.14892702720272
 1 -2.94256166656666 -1.51605846334633  0.01594920362036
 1 -3.64037973127313  0.48664174037404 -1.76930412771277
 1  0.12913949824982  0.25889586308631  3.74168950115012
 1  1.19640808480848 -0.41849173317332  2.38384670507051
 1 -0.54449494199420 -2.67005496879688 -0.01420160176018
 1 -3.34844699669967  1.82078866416642  3.61630779837984
 1 -1.58567342674267  1.44964359185919  3.84561428602860
 1 -2.17254005330533  2.49169780558056  2.52709486348635
 1 -6.72151604670467  2.67448640074007  1.39896801560156
 1 -7.53915662396240  1.18053438183818  1.69092151475148
 1 -8.11273976527653  2.35643781388139  0.46344534173417
 1  1.21043322462246  1.96705931393139  1.36095610321032
 1  0.50499453955396  2.57076516431643  3.08827918241824
 1  1.72937855615562  0.42204859505951 -0.28692091819182
 1  2.11507976657666 -4.74271979517952 -1.97325538773877
 1  0.31471955235524 -4.51055096849685 -1.10188295799580
 1 -8.01228655365537  0.67251988598860 -3.09915082708271
 1  1.45289822992299 -4.66078038233823  1.37837752535253
 1  2.69144018691869 -5.39464594359436  0.75945988438844
 1  4.04435887968797 -4.21325885438544 -1.97544659725973
 1  5.12163428492849 -2.98251713251325 -1.24215913741374
 1  4.39489658595860 -2.62874493009301 -2.88513883618362
 1  5.08406121322132 -0.36866097489749 -1.48082477067707
 1 -9.22221174337434  0.88288918611861 -0.29529021522152
 1 -10.15097326242624  0.71534591299130 -2.05742548424843
 1  3.61336776817682  3.08355092369237  3.57338552075208
 1  6.73344835043504  1.25795000150015 -1.65175267846785
 1  4.33248425862586  5.39272236423642 -2.33530058505851
 1  4.31280928502850  5.46125319521952 -0.35185826902690
 1  5.96538831033103  5.05612206680668 -1.13668541664166
 1  1.51279881838184 -8.16870811331133  1.49097877097710
 1  7.98195947774777  2.76253355965597 -2.92105086728673
 1  6.45722716701670  4.10246781808181 -2.89193208230823

