%nproc=4
%Mem=2GB
# td=(NStates=1) B3LYP/SVP 

TD

0 1
 8 -5.50253561536154  0.21012512751275 -3.28773160596060
 8  2.77663448954895  3.30085580898090  3.19840610501050
 8  3.19909064686469  1.02659766886689  3.34749671087109
 8  1.39536367226723 -7.17450335473547  1.45009541934193
 8  0.44205095449545 -6.90106101010101 -0.62283621482148
 8  2.19689314861486  4.05878884588459 -0.04800653625363
 7 -2.44798540124012 -0.91384639123912  0.60466699379938
 7 -4.48571247514751  0.61341559015902 -1.31292322442244
 7  1.99167889498950 -0.71381336233623 -0.34423586168617
 7  2.81506277667767  1.80780923102310 -0.36031350635064
 6 -4.92929517581758  1.11270144954495  0.02616307280728
 6 -4.48847345274527  0.17804422212221  1.23265532623262
 6 -3.03408686488649 -0.01015613321332  1.29667500760076
 6 -2.03868891319132  0.70713286028603  2.10851164936494
 6 -0.80362424992499  0.11793323482348  1.85764452665267
 6 -1.02896727172717 -0.86758186728673  0.79996670497050
 6 -6.37510360776078  1.23109486538654 -0.10812922672267
 6  0.58613209650965  0.42665058815882  2.61727639643964
 6 -6.78448087978798  0.78329063426343 -1.28038889658966
 6 -0.21907764976498 -1.80435573667367  0.24208138383838
 6  1.07068998019802 -1.84511702430243 -0.31534032723272
 6 -5.56456451455145  0.51283097629763 -2.17237667846785
 6  1.84947081698170 -2.90014359035904 -0.89515483208321
 6 -2.31732847404740  1.79099083108311  3.05398403840384
 6 -7.20535252745275  1.87001253725373  0.99016963086309
 6  3.14478000630063 -2.39902192649265 -1.15559671677168
 6  1.03583035563556  1.86360950315031  2.40246546494649
 6  3.18198473947395 -0.94831427082708 -0.96916054705471
 6  1.43116865476548 -4.31624600420042 -0.90824929882988
 6 -8.05607232813281  0.66049061346135 -2.10291501350135
 6  1.68680037013701 -4.97682392479248  0.38208453495350
 6  4.24344206060606 -3.07544881068107 -1.88429042644264
 6  4.12413135533553 -0.02045038323832 -1.27137733283328
 6  2.44209682508251  1.93533770807081  3.00796070117012
 6  3.93692821872187  1.30958021432143 -0.97652342304230
 6 -9.28932710571057  0.66635447924792 -1.53635239783978
 6  1.11064837323732 -6.41174990449045  0.32728352105211
 6  4.86062012691269  2.41733378837884 -1.42794652115211
 6  4.28027366186619  3.55181934213421 -1.18450802210221
 6  2.91638039403940  3.18728042944294 -0.54762330933093
 6  6.22627063146315  2.16329820122012 -2.07422895169517
 6  4.78403919731973  5.03459497669767 -1.24362703460346
 6  6.98684623602360  3.10907732913291 -2.56021068916892
 1 -4.52901085178518  2.08232327722772  0.22313185518552
 1 -5.07571600070007 -0.89695468656866  1.16769801810181
 1 -4.62476259545955  0.74788901800180  2.23602573707371
 1 -2.89145655605560 -1.33331018851885 -0.14054644594459
 1 -3.54112980628063  0.51237431363136 -1.50428762606261
 1  0.32832941724172 -0.06424645114511  3.50757608980898
 1  1.21318976297630 -0.28752863686369  2.29430775117512
 1 -0.74954544704470 -2.77168513181318 -0.22881306290629
 1 -3.26361851385139  1.79420600590059  3.25845201280128
 1 -1.89361422082208  1.75598422592259  4.03814353895390
 1 -2.29749254855486  2.78532716851685  2.51342349634964
 1 -6.78957285238524  2.90679963206321  1.28634675347535
 1 -7.18431113941394  1.25147147554755  1.84124654725472
 1 -8.16761525282528  2.04627679777978  0.31325032223222
 1  0.90913309460946  2.17706031403140  1.22843285088509
 1  0.50612465256526  2.45300338813881  3.06302665716572
 1  1.61485710401040  0.20482687288729 -0.26611883798380
 1  2.12327058565857 -4.83108863206321 -1.82560062226223
 1  0.40676875727573 -4.46244615801580 -1.07570033973397
 1 -7.70673599859986  0.55553818781878 -3.18160907290729
 1  1.33104604470447 -4.37881218551855  1.26232592019202
 1  2.78906994989499 -5.09411589058906  0.36102004040404
 1  4.18054249804980 -4.19535706420642 -2.02436148874888
 1  5.23848597009701 -3.08164704550455 -1.26656157765777
 1  4.54818191449145 -2.63865592119212 -2.90431075337534
 1  5.08108091519152 -0.25217932673267 -2.01078776697670
 1 -9.52136165836584  0.54097499469947 -0.50031071727173
 1 -10.19161732683268  0.57173155155516 -2.16435617731773
 1  3.59419585098510  3.11120368896890  3.53841202340234
 1  6.60864587018702  1.09724393089309 -1.97812531573157
 1  4.82702371257126  5.27109020102010 -2.32258931393139
 1  3.94133213731373  5.72336940684068 -0.74431751495149
 1  5.65247701920192  5.42408886348635 -0.71435318341834
 1  1.14003154165417 -8.04856609910991  1.27415708880888
 1  8.05388667046705  3.04157146344634 -3.19023778597860
 1  6.52412385668567  4.00156772807281 -2.73030591969197

