%nproc=4
%Mem=2GB
# td=(NStates=1) B3LYP/SVP 

TD

0 1
 8 -5.29258462026203  0.06663077807781 -3.35367820062006
 8  2.99699652575258  2.98946466986699  3.22362862726273
 8  3.13241397919792  0.76274128322832  3.42347430863086
 8  1.55733986988699 -7.04322022642264  1.57864827462746
 8  0.72438918831883 -7.17023792779278 -0.56885081628163
 8  2.08068152745275  4.05195816281628  0.10222848724872
 7 -2.35533613631363 -0.83517852445245  0.56915344244424
 7 -4.40711461536154  0.61659590819082 -1.28277020912091
 7  1.79612934003400 -0.66741872287229 -0.43847528562856
 7  2.67849912031203  1.93421187128713 -0.48937641264126
 6 -4.80409265556556  1.22089226862686 -0.01048059155916
 6 -4.42419702510251  0.29947636533653  1.16384844554455
 6 -3.03433688988899  0.10887576997700  1.38097343744374
 6 -2.04770981528153  0.71121326832683  2.25290608880888
 6 -0.78336222372237  0.18716015751575  1.79950871307131
 6 -0.97479185418542 -0.74306941604160  0.77384409270927
 6 -6.30999709710971  1.34079583548355 -0.26024443824382
 6  0.48487197049705  0.33758168126813  2.49244391319132
 6 -6.72146457815782  0.80508281348135 -1.41927278497850
 6 -0.26767250925092 -1.76591189228923  0.08244542024202
 6  1.01664457565757 -1.78252076467647 -0.32816160936094
 6 -5.40540859895990  0.38064775797580 -2.14305374617462
 6  1.76856272617262 -2.85409898589859 -0.95147046364636
 6 -2.29385612681268  1.61025275727573  3.32176081608161
 6 -7.21375336753675  1.96724226022602  0.77729834373437
 6  3.03109863816382 -2.42584460876088 -1.19381053815382
 6  1.11181795439544  1.74504764696470  2.43975919431943
 6  3.05552209320932 -0.95229466886689 -1.10701433243324
 6  1.39536507440744 -4.36720109970997 -0.83709218311831
 6 -8.00513723462346  0.72385695009501 -2.05622034403440
 6  1.71919360946095 -5.00698694109411  0.45726205270527
 6  4.29600731713171 -3.04910617641764 -1.74027602500250
 6  4.04465340754075  0.04516617841784 -1.25956615171517
 6  2.49504211961196  1.74454862916292  3.01109101420142
 6  3.81086561246125  1.36187544384438 -0.98544431513151
 6 -9.21282945594560  0.94233207700770 -1.57337610021002
 6  1.17937524592459 -6.54479320882088  0.46199699239924
 6  4.78072213711371  2.48018007300730 -1.45698942544254
 6  4.14685031953195  3.66097025722572 -1.10537010831083
 6  2.87294605060506  3.31942364376438 -0.38471701870187
 6  6.00559856425643  2.24008587998800 -2.08298982778278
 6  4.65881667506751  5.05871738893889 -1.25330800270027
 6  6.70243779517952  3.07056347774778 -2.90609527762776
 1 -4.36818476917692  2.26746179107911  0.23365290729073
 1 -4.87783621272127 -0.57730272137214  0.90397164546455
 1 -4.73828394759476  0.61578580768077  2.22185431993199
 1 -2.79266667706771 -1.18531538903890 -0.22456484778478
 1 -3.38630432373237  0.50187326352635 -1.57001419871987
 1  0.47405398969897  0.08764873837384  3.55541087328733
 1  1.15075351935194 -0.40180006400640  2.12001032143214
 1 -0.99974046654665 -2.70636860016002 -0.20859104070407
 1 -3.41427357935794  1.61588817411741  3.57838400600060
 1 -1.88614347374737  1.32687131463146  4.21526125072507
 1 -1.95104790409041  2.63766240204020  3.08774092809281
 1 -6.69731362646265  2.82550150225023  1.26972509130913
 1 -7.54361707000700  1.21334766316632  1.43780620322032
 1 -8.08845733703370  2.40328249834984  0.39912891009101
 1  1.21934411571157  2.31836444444444  1.43410341794179
 1  0.49981402150215  2.54361244904490  3.21322167666767
 1  1.55363098139814  0.13480987118712 -0.13753597969797
 1  1.88675693429343 -4.81989751295129 -1.72601066326633
 1  0.21709979037904 -4.40824073747375 -0.83425619531953
 1 -8.03693901890189  0.50829346334633 -3.06171708370837
 1  1.29410235033503 -4.39973427772777  1.31078076567657
 1  2.73027407030703 -5.26160263926393  0.40304424282428
 1  4.24578902270227 -4.29209673817382 -1.82402145474547
 1  5.22208432993299 -2.75036391719172 -1.25318023952395
 1  4.42526962326233 -2.69677173277328 -2.78898922122212
 1  4.89171197829783 -0.49317342614261 -1.84858154635464
 1 -9.62287180938094  0.94401529872987 -0.54011469766977
 1 -10.04623278837884  0.94890926932693 -2.35204494619462
 1  3.87175360676068  2.83791636023602  3.66025420762076
 1  6.41091609720972  1.18156236273627 -2.17083458665867
 1  4.46052706290629  5.33608670067007 -2.32174922992299
 1  4.18674667876788  5.65255232513251 -0.54179726292629
 1  5.85482725422542  5.01102755735574 -1.24258600670067
 1  1.38189572807281 -7.92819406190619  1.73211288438844
 1  7.64813609540954  2.72820012631263 -3.25571433363336
 1  6.31424286858686  4.00883845514551 -3.20805369446945

