%nproc=4
%Mem=2GB
# td=(NStates=1) B3LYP/SVP 

TD

0 1
 8 -5.47131249304930  0.03660777577758 -3.33447628042804
 8  2.93610043614361  3.06184190759076  3.33129939433943
 8  3.09489022682268  0.85214022312231  3.46012797399740
 8  1.41656579247925 -7.12908881328133  1.54932534233423
 8  0.81986873627363 -7.08257916191619 -0.66897082828283
 8  2.00546400570057  3.99743271027103  0.05917418181818
 7 -2.43134373707371 -0.74356936353635  0.60932745984598
 7 -4.52212611651165  0.58563281188119 -1.29380131223122
 7  1.86205593269327 -0.57386936793679 -0.44508594669467
 7  2.77004827522752  1.87373582368237 -0.56032350735074
 6 -4.83684593089309  1.20399057845785 -0.00915045854585
 6 -4.44003860926093  0.44540095779578  1.22919498019802
 6 -3.00834429062906  0.16770165256526  1.34212955305531
 6 -2.02073711801180  0.73242538953895  2.21854265246525
 6 -0.80679456695670  0.12767420892089  1.82551131333133
 6 -1.03758813381338 -0.74336944604460  0.79362607090709
 6 -6.38648474587459  1.41892364826483 -0.23905231903190
 6  0.56283976727673  0.35042296539654  2.55514018281828
 6 -6.75679811151115  0.74972727792779 -1.41830268796880
 6 -0.23908965096510 -1.76836213731373  0.18227540324032
 6  1.11294420562056 -1.75885839843984 -0.36453524672467
 6 -5.50642870097010  0.41852154535454 -2.16657609840984
 6  1.92595846574657 -2.90310388638864 -0.80603592019202
 6 -2.22763950515052  1.67174890689069  3.30083872387239
 6 -7.27249924212421  1.94418995499550  0.86778739263926
 6  3.11916744504450 -2.43854587888789 -1.17752890999100
 6  1.02052882548255  1.83406654885489  2.44745996439644
 6  3.19033557455746 -1.00139957935794 -0.94135776677668
 6  1.46152169006901 -4.37030140974097 -0.96114458835884
 6 -8.00889761066107  0.68395295969597 -2.01344606660666
 6  1.60654234433443 -5.07314355675568  0.46981330783078
 6  4.23417113351335 -3.15575684148415 -1.85686768416842
 6  4.11135007720772  0.02209387118712 -1.22349254435444
 6  2.45575819121912  1.84871904620462  3.13267317241724
 6  3.88144267016702  1.38595785208521 -1.07086285698570
 6 -9.27904607760776  0.80191803560356 -1.68937770037004
 6  1.28338564696470 -6.55226395589559  0.31212200490049
 6  4.80097416231623  2.51318337333733 -1.54228795529553
 6  4.19716535103510  3.62605676587659 -1.10703027432743
 6  2.84965372137214  3.17129883128313 -0.40830937793779
 6  6.06373437783778  2.18788065946595 -2.34392592139214
 6  4.60674146754675  5.07158867606761 -1.13692636453645
 6  6.98944649604960  2.96118253965397 -2.88807347544754
 1 -4.27189514021402  2.12006705160516  0.12963250525052
 1 -5.06718514761476 -0.48203319441944  1.36886813511351
 1 -4.66882700190019  0.94204843394339  1.95200733523352
 1 -2.71098850925093 -1.14707156465647 -0.20006239753975
 1 -3.65021071437144  0.93662673887389 -1.75665286258626
 1  0.43963054735474  0.01176114961496  3.63338867106711
 1  1.40303874787479 -0.21232111611161  2.15671399179918
 1 -0.83560405290529 -2.59085704900490 -0.07465764736474
 1 -3.26057820982098  1.51755834113411  4.00471663926393
 1 -1.42829768916892  1.79939856735674  4.12436216081608
 1 -2.19943274257426  2.80450908670867  3.10250240424042
 1 -6.71929582468247  2.59426837893789  1.34783290209021
 1 -7.62966567486749  1.14051037943794  1.50514293689369
 1 -8.26474496579658  2.54503667376738  0.75051404860486
 1  0.96435861716172  2.16643925192519  1.48587859545955
 1  0.38727276737674  2.37029511731173  3.06535689018902
 1  1.60565618391839  0.51749814001400 -0.17169939603961
 1  2.39846810541054 -4.90461598479848 -1.65283334553455
 1  0.37867594799480 -4.48878879227923 -1.29526229592959
 1 -7.90256558155816  0.25299793379338 -3.10192110411041
 1  1.04674761486149 -4.41757606190619  1.23617330493049
 1  2.56921796469647 -4.84178065706571  0.90611454985498
 1  3.90952539633963 -4.25192272077208 -1.82335138773877
 1  5.07000912241224 -3.21066994779478 -1.04325924742474
 1  4.51716881318132 -2.70324237983798 -2.72660298259826
 1  5.07886069316932 -0.23815792459246 -1.68383507170717
 1 -9.56318584078408  1.10894179137914 -0.65059574577458
 1 -10.12084024912491  0.75428980738074 -2.35464520622062
 1  3.85233166456646  2.98843141174117  3.67877605980598
 1  6.26082108770877  1.08628283478348 -2.21901940514051
 1  4.61306231643164  5.44899799179918 -2.17522457745775
 1  3.78391639573957  5.50059712961296 -0.60823390659066
 1  5.65896766826683  5.27696415101510 -0.86466821492149
 1  1.11825936443644 -8.07618886138614  1.31428110121012
 1  7.89171045284528  2.38902620892089 -3.32696145834583
 1  6.82754419871987  4.12528009930993 -2.87326021512151

