%nproc=4
%Mem=2GB
# td=(NStates=1) B3LYP/SVP 

TD

0 1
 8 -5.36226158795880  0.12066618161816 -3.33455628842884
 8  2.83781060716072  3.13536926032603  3.04990125452545
 8  3.07686842464246  0.88542355145515  3.66884884608461
 8  1.52856699259926 -7.36875277967797  1.35914632443244
 8  0.25598234763476 -6.77084798879888 -0.49313324452445
 8  2.05293875317532  4.15188815581558 -0.06050778637864
 7 -2.31751235393539 -0.86418142474247  0.50972749984998
 7 -4.30344424832483  0.73261751035104 -1.32142407450745
 7  1.88811853895390 -0.64425640664066 -0.31301273937394
 7  2.68401967236724  2.00553900400040 -0.62556003100310
 6 -4.72500474677468  1.14198437783778 -0.11844138763876
 6 -4.40187479287929  0.26605302300230  1.25173723442344
 6 -2.94512796899690  0.08280316271627  1.31235657575758
 6 -2.04476952125213  0.61129327632763  2.14259505770577
 6 -0.78100198769877  0.05642708420842  1.73887264946495
 6 -0.95908028302830 -0.84590970007001  0.77182389068907
 6 -6.20389648704870  1.27440919681968 -0.19062747654765
 6  0.57135061836184  0.25108303140314  2.49564423322332
 6 -6.70593302500250  0.80948325352535 -1.45431628932893
 6 -0.18744448644864 -1.92112741384138  0.18527570327033
 6  1.08887179837984 -1.84266677927793 -0.21904069726973
 6 -5.48795685378538  0.50960065326533 -2.18749819061906
 6  1.92613848374838 -2.94614819081908 -0.75905122172217
 6 -2.30134687588759  1.67116884888489  3.20558919891989
 6 -7.07014900710071  1.97498303430343  0.93040365426543
 6  3.17115264356436 -2.37068909320932 -1.12890404750475
 6  1.10239701230123  1.76235937813781  2.60557577597760
 6  3.12365890689069 -0.92001144054405 -0.87868149914992
 6  1.41878741664166 -4.33942832243224 -0.94851332523252
 6 -7.96990371127113  0.77462202660266 -2.11980670267027
 6  1.64948663876388 -5.14369061146115  0.44054038053805
 6  4.32728044444444 -3.05171643744374 -1.69848184558456
 6  3.98817775997600  0.01698336013601 -1.24279447454745
 6  2.36762937833783  1.76715088938894  3.16379628472847
 6  3.75756028192819  1.47236649294930 -1.03272904360436
 6 -9.15668384138414  0.69989783358336 -1.37713647624762
 6  1.04090139853985 -6.54197292679268  0.39019981268127
 6  4.77346141104110  2.39504155915592 -1.54995872237224
 6  4.24295993049305  3.70341450165016 -1.14528409970997
 6  2.85350410641064  3.35579728112811 -0.51470001700170
 6  6.00695870027003  2.25004687608761 -2.17464899369937
 6  4.44512530593059  5.10055157235724 -1.40592326422642
 6  6.88189574097410  3.08427484888489 -2.70919558765877
 1 -4.08259621032103  2.08882392729273  0.25553509550955
 1 -5.00033846294630 -0.88900389148915  1.34710595889589
 1 -4.64054417361736  0.75365959505951  2.16176831133113
 1 -2.92735014541454 -1.18610546804680 -0.33706609790979
 1 -3.28371406470647  0.42195527172717 -1.57630482778278
 1  0.49406599089909 -0.16737676417642  3.48835416761676
 1  1.31954039803980 -0.32946283028303  2.10317863826383
 1 -0.76937743024302 -2.80941890519052 -0.12482266386639
 1 -3.30294244624462  1.95122170747075  3.04409057665767
 1 -1.88885374477448  1.08555718321832  4.11380110471047
 1 -1.64218701800180  2.60372900870087  3.07693984798480
 1 -6.55783967906791  2.75916486858686  1.32180029882988
 1 -7.30892360066006  1.03568989738974  1.57224964756476
 1 -8.03215170647065  1.96606877697770  0.38196719391939
 1  0.87740992229223  2.09682229022902  1.41002100970097
 1  0.35235927602760  2.54525261306131  2.85782613711371
 1  1.57889350765077  0.37468385858586 -0.04087631373137
 1  1.77805606420642 -4.94636015921592 -1.82761082328233
 1  0.33901198159816 -4.42230214361436 -1.11433420312031
 1 -7.90418574357436  0.97369000300030 -3.30436134813481
 1  1.34834777487749 -4.44806911121112  1.26429611721172
 1  2.61602264516452 -5.19818629762976  0.65041898029803
 1  4.04831927572757 -4.22216974547455 -1.63349240184018
 1  5.29031115261526 -2.85276415721572 -0.92736765826583
 1  4.45990308660866 -2.83638569416942 -2.81811213351335
 1  4.74189699679968 -0.31026513531353 -1.82058874707471
 1 -9.33968349054905  0.77878877607761 -0.29071975817582
 1 -10.09789795489549  0.68022240064006 -2.01614135583558
 1  3.81454788618862  3.39493206180618  3.53773195539554
 1  6.25163016861686  0.99575378187819 -2.31675917911791
 1  4.52334334453445  5.39526261826183 -2.44751180618062
 1  3.58398640274027  5.78409547944795 -0.85454853805381
 1  5.44758653015301  5.47492394699470 -1.00746249434943
 1  1.12786032453245 -8.13922516501650  1.29112878597860
 1  7.84649593139314  2.57707501380138 -3.10894965716572
 1  6.91404284858486  4.16115368666867 -2.77117000610061

