%nproc=4
%Mem=2GB
# td=(NStates=1) B3LYP/SVP 

TD

0 1
 8 -5.25349071087109 -0.12087797279728 -3.24364719751975
 8  3.02678950505050  3.08752447584759  3.18715497989799
 8  3.27397813561356  0.87402241134113  3.33519548074807
 8  1.66421055695570 -7.30011591599160  1.39074948474847
 8  0.51326807620762 -7.07715861986199 -0.48771270247025
 8  1.98177163646365  4.05083805080508 -0.02386412201220
 7 -2.34952555525553 -0.86321132773277  0.60861738883888
 7 -4.33638754265427  0.58098234683468 -1.26850878297830
 7  1.70906063316332 -0.66526850785078 -0.38653009110911
 7  2.56590786118612  1.87729617971797 -0.64557203220322
 6 -4.79131137743774  1.19874005340534 -0.00329987348735
 6 -4.45245985138514  0.54489090679068  1.32609467016702
 6 -2.93360681688169  0.05738062046205  1.39913525362536
 6 -1.98787383168317  0.70846299329933  2.16834763296330
 6 -0.73220710821082  0.05401684318432  1.81267002920292
 6 -1.00606498149815 -0.97576268536854  0.79585629392939
 6 -6.25738183558356  1.43953570947095 -0.25037345114511
 6  0.63331681498150  0.20509843294329  2.55430009880988
 6 -6.58518094979498  0.86777908310831 -1.53550440814081
 6 -0.26775251725173 -1.94874017511751  0.25454262996300
 6  1.07122003320332 -1.84375688828883 -0.08892768596860
 6 -5.34331238933893  0.46394608780878 -2.10410985178518
 6  1.78870474037404 -2.90728430443044 -0.74855017161716
 6 -2.26549329052905  1.82722445444544  3.31991063106311
 6 -7.21339333153315  2.01449698569857  0.77863847774777
 6  2.98656418471847 -2.32978500280028 -1.23885504260426
 6  1.22805957855786  1.73830697289729  2.59793501190119
 6  2.96844338533853 -0.94893433283328 -0.92103573457346
 6  1.40895643354335 -4.34502888248825 -0.95869434333433
 6 -7.86099282018202  0.89687425182518 -2.21687640964096
 6  1.70065175527553 -5.14783102550255  0.44480080658066
 6  4.15852356875688 -3.24705597139714 -1.75951794919492
 6  3.93545248744875  0.06420808260826 -1.25720591569157
 6  2.59967258265827  1.78514268856886  3.05176508160816
 6  3.74363888978898  1.43538279457946 -1.13359913061306
 6 -9.12336050905091  0.88626647044704 -1.76442520512051
 6  1.23263057145715 -6.65582431193119  0.33925471817182
 6  4.60542460736074  2.50937299229923 -1.52312603910391
 6  4.02172780728073  3.67430159035904 -1.19044861616162
 6  2.75006376237624  3.21051275267527 -0.52693124012401
 6  5.98104610901090  2.42724459585959 -1.96215774457446
 6  4.44554534793479  5.10272178937894 -1.29285195709571
 6  6.78848640004000  3.29717613901390 -2.65531019911991
 1 -4.43683163386339  2.21175622052205 -0.08310876887689
 1 -5.15302373147315 -0.35332032313231  1.45474672297230
 1 -4.65642576177618  1.01587581668167  2.36940907540754
 1 -2.97295470587059 -1.37921477897790 -0.04250664196420
 1 -3.29907560086009  0.69179225542554 -1.56122331963196
 1  0.39314589888989 -0.01457148364837  3.76052138433843
 1  1.41516996099610 -0.45043492749275  2.14480280068007
 1 -0.75371586408641 -2.80746871017102  0.09417923632363
 1 -3.44336648864886  1.59911649694970  3.72218838643864
 1 -1.47872273167317  1.66740536803680  4.16398612321232
 1 -2.27005980528053  2.88086672247225  2.66725887988799
 1 -6.66419031413141  2.90950990309031  1.34830294909491
 1 -7.41399410771077  1.12578890729073  1.44635705830583
 1 -8.10638913021302  2.57400957105711  0.43699269646965
 1  1.21941412271227  2.26242885088509  1.48515852345234
 1  0.61666570667067  2.33405149294929  3.38081843634363
 1  1.35508112641264  0.23630002020202 -0.26209843594359
 1  1.72009026762676 -4.76725224842484 -1.77031509370937
 1  0.32875095549555 -4.40428034143414 -1.04580735043504
 1 -7.58951427642764  0.87560019401940 -3.22269318131813
 1  1.25866880698070 -4.65588989328933  1.14665435303530
 1  2.79974101700170 -5.21439791879188  0.58778271667167
 1  4.00609505330533 -4.25502303080308 -1.89533858645865
 1  5.12959508100810 -2.96731561236124 -1.37753267476748
 1  4.38751584788479 -3.04987704330433 -2.96173649594960
 1  4.94473728082808 -0.42002611141114 -1.56623331153115
 1 -9.45883540574058  0.77841873907391 -0.69144983118312
 1 -9.83283144824482  0.92747712611261 -2.61951169286929
 1  3.96022245364536  2.97232980158016  3.17905608780878
 1  6.46147115271527  1.42628683518352 -1.71055855905591
 1  4.04212522272227  5.66282937493749 -2.21618867386739
 1  3.97976598069807  5.50518758865887 -0.24697778097810
 1  5.62741451295129  5.12337879247925 -1.28761050915091
 1  0.99316685518552 -8.10422166466647  1.54576424952495
 1  7.64929621142114  3.03191049734973 -2.90558932113211
 1  6.38200964526453  4.26955452675268 -3.17895078417842

