%nproc=4
%Mem=2GB
# td=(NStates=1) B3LYP/SVP 

TD

0 1
 8 -5.39167452925293  0.26188030303030 -3.35052788558856
 8  2.66213303940394  3.19334505790579  3.38750501490149
 8  3.33360409820982  0.96204121322132  2.82550451165116
 8  1.74701883778378 -7.34454035843584  1.45690610041004
 8  0.52691944134413 -7.08067897189719 -0.34601853305331
 8  1.79985344464446  3.93445641264126 -0.04769650525053
 7 -2.46717732043204 -0.91681668826883  0.61157768486849
 7 -4.38231213511351  0.82243649224922 -1.18334026612661
 7  1.86661638873887 -0.71154313531353 -0.38923036113611
 7  2.61455272567257  1.79899834993499 -0.60382785778578
 6 -4.86533878017802  1.39697987738774  0.04468492499250
 6 -4.35280988638864  0.37074349204920  1.16288834953495
 6 -2.90420387658766  0.08258314071407  1.40285562566257
 6 -1.98741378567857  0.78817096409641  2.09681047924792
 6 -0.75430931843184  0.11530297179718  1.76185494769477
 6 -1.08481285628563 -0.95856096519652  0.78075478377838
 6 -6.29716581398140  1.37661941784178 -0.10994940874087
 6  0.60455393869387  0.33793171627163  2.44880954975498
 6 -6.73824625632563  0.97969027422742 -1.39308016571657
 6 -0.22241798379838 -1.92152745384538  0.28146532223222
 6  1.11615452665267 -1.86785929852985 -0.29528832203220
 6 -5.46586464456446  0.56536622982298 -2.10855029582958
 6  1.87489335923592 -3.01701527752775 -0.81775709230923
 6 -2.20355709690969  1.70758249024903  3.22990163016302
 6 -7.19183117531753  1.94871040704070  0.89777039093909
 6  3.08382391069107 -2.46945897019702 -1.32769392649265
 6  1.06650342294229  1.81502464466447  2.40302552095210
 6  3.11730827182718 -1.01065050445044 -0.91608523952395
 6  1.49132467036704 -4.42611699129913 -0.91796026992699
 6 -7.96870359125913  0.86144070847085 -2.14844956695670
 6  1.76004769486949 -5.17318356075608  0.38220454695470
 6  4.25122283868387 -3.17764903070307 -1.90919291669167
 6  4.07282622482248 -0.08291662986299 -1.23574376947695
 6  2.49475209060906  1.88724289858986  2.87525743084308
 6  3.84145867176718  1.34709396569657 -1.01673744444444
 6 -9.18046621962196  0.81801964576458 -1.64206296889689
 6  1.22970027842784 -6.58981771127113  0.45172596529653
 6  4.74224828972897  2.46898895389539 -1.44877860436044
 6  4.00408604310431  3.53315747594759 -1.14611418271827
 6  2.64719347534753  3.15602730413041 -0.48228677567757
 6  6.20931893629363  2.30347221862186 -1.81963349214921
 6  4.36152694609461  5.13028454565457 -1.32136480838084
 6  6.92239979137914  3.20158658005801 -2.42125679377938
 1 -4.27588553925392  2.39385443034303  0.09433897589759
 1 -4.78454688378838 -0.63487847894789  1.41171241954195
 1 -4.69876999619962  0.72786701580158  2.01260339483948
 1 -2.77847525792579 -1.28711556905691 -0.36359875117512
 1 -3.43171886518652  1.05719879607961 -1.51424862216222
 1  0.45695227952795 -0.04076410291029  3.59463479567957
 1  1.45698414241424 -0.36765664966497  2.02011033143314
 1 -0.81922241474147 -2.81561952525253 -0.07442762436244
 1 -3.21179333133313  1.64451103640364  3.75339150675068
 1 -1.28954381378138  1.57835646314631  3.99817954255426
 1 -2.18169096839684  2.81743037883788  2.77059921392139
 1 -6.56876077117712  2.79241819391939  1.40956907570757
 1 -7.21849455775578  1.16767309570957  1.74639706230623
 1 -8.10925941724172  2.17871004110411  0.37293629082908
 1  1.03194537583758  2.24768737673767  1.40204021162116
 1  0.55741978207821  2.60970905870587  3.09508986348635
 1  1.81302692099210  0.30000639083908 -0.17453968006801
 1  2.11441970057006 -5.00507603080308 -1.61967002920292
 1  0.31064914531453 -4.46303621702170 -1.02818558825883
 1 -7.61807713271327  0.64530716471647 -3.31631254325433
 1  1.31665460556056 -4.64405871017102  1.35136482408241
 1  2.70416145904590 -5.15496197519752  0.82723666206621
 1  4.04751919571957 -4.38260578907891 -2.09494854745475
 1  5.20765288678868 -3.20087896869687 -1.11264618611861
 1  4.49702679897990 -2.59182123772377 -2.87644796709671
 1  4.94022682978298 -0.26895100390039 -1.72561925012501
 1 -9.31257077927793  1.22766366356636 -0.74886557275728
 1 -10.05219338443844  0.42049642804280 -2.48528827052705
 1  3.68654508590859  3.36417898649865  3.68003618581858
 1  6.82008701430143  1.25955016151615 -1.40939844304430
 1  4.44247525772577  5.54897798979898 -2.51170822582258
 1  3.33952195629563  5.59312638253825 -0.73228631183118
 1  5.22907467896790  5.21218767336734 -0.56693844194419
 1  1.42845038353835 -8.10376161866187  1.27132680578058
 1  8.30903218501850  3.07611491779178 -2.75146390859086
 1  6.55317676197620  4.19224679597960 -2.67851074017402

