%nproc=4
%Mem=2GB
# td=(NStates=1) B3LYP/SVP 

TD

0 1
 8 -5.29251461326133  0.17232134713471 -3.21683451625163
 8  3.05307213331333  2.99329505290529  2.90524678907891
 8  3.25557629542954  0.78382339143914  3.28906086728673
 8  1.49724386028603 -7.15003090749075  1.68356876667667
 8  0.80857760716072 -6.99580048404840 -0.48059199039904
 8  1.76380984028403  3.94160712771277 -0.20912264786479
 7 -2.41673227592759 -1.00824583118312  0.66531305840584
 7 -4.42365626952695  0.57235148374837 -1.14758669076908
 7  1.88810853795380 -0.77030901190119 -0.45210664876488
 7  2.57290856125613  1.83538198829883 -0.55041251625163
 6 -4.84177642394239  1.19069924932493  0.01679213571357
 6 -4.48101270667067  0.42021843954395  1.26404846554655
 6 -2.99405286148615  0.02468735113511  1.39870521062106
 6 -2.01515655995600  0.75122726972697  2.06350714891489
 6 -0.73359724722472  0.03560500200020  1.77857661986199
 6 -1.01122549754975 -0.89879498859886  0.79545625392539
 6 -6.24899099649965  1.43566532243224 -0.16092450625063
 6  0.55977946124612  0.33463138623862  2.55561022982298
 6 -6.66868930063006  1.05476778197820 -1.43767462516252
 6 -0.24097983998400 -1.93848915001500  0.13530070577058
 6  1.08668157935794 -1.87783029562956 -0.36904569776978
 6 -5.51000905900590  0.53952364556456 -2.10124956575658
 6  1.95297116701670 -2.94351792779278 -0.89695501210121
 6 -2.25992273347335  1.78409014101410  3.00644928492849
 6 -7.17810980318032  1.96217175317532  0.83572418631863
 6  3.16069159745975 -2.42311433573357 -1.21005216231623
 6  1.12847962056206  1.70811395359536  2.45968118651865
 6  3.07944448544854 -1.02549198859886 -1.01367499849985
 6  1.50988652655266 -4.42815719531953 -0.91926039993999
 6 -7.92297901880188  1.08536310071007 -2.16043076507651
 6  1.75346703680368 -5.10410665306531  0.45678200470047
 6  4.33425114151415 -3.09579084488449 -1.81987398479848
 6  3.93268221042104  0.05879754155416 -1.26721691679168
 6  2.50946356175618  1.73320749504950  2.95946585168517
 6  3.70015454135414  1.43816307260726 -1.08666443714371
 6 -9.15119329232923  1.00899874367437 -1.59038780138014
 6  1.34773208160816 -6.54041277077708  0.48845963866387
 6  4.59332339723972  2.47664971997200 -1.42838656515652
 6  3.97518315281528  3.60459461966197 -1.15792536383638
 6  2.64565332133213  3.22954465586559 -0.58284683168317
 6  5.97997600200020  2.24922679407941 -1.82663419221922
 6  4.40469126252625  5.12950446764676 -1.11231390329033
 6  6.82176972837284  3.21319774117412 -2.36237090519052
 1 -4.24623257395739  2.14269931483148  0.25992553455346
 1 -4.97242567166717 -0.54241923302330  1.20587183548355
 1 -4.96992711191119  0.88606283538354  2.10064219871987
 1 -2.91223863426343 -1.66436329382938 -0.01432382368237
 1 -3.40964665796580  0.41670474667467 -1.46404360166017
 1  0.41098768306831 -0.09505953245325  3.60657598979898
 1  1.41199964396440 -0.42258214221422  2.12469078947895
 1 -0.60530102260226 -2.84208217151715 -0.07401758335834
 1 -3.40441259325933  1.74510109540954  3.58669483708371
 1 -1.42079693909391  1.72757138463846  3.68038776337634
 1 -2.05036783608361  2.81652028782878  2.58296045004500
 1 -6.90052394749475  2.55191414351435  1.64167228602860
 1 -7.28690139843984  1.05128145654565  1.57994041664166
 1 -8.01729022032203  2.49493166326633  0.36662565976598
 1  1.13583576487649  2.10949355735574  1.46097610521052
 1  0.69231327142714  2.57315540334033  3.03110346484648
 1  1.41829744804480  0.01611800200020 -0.34811703780378
 1  1.99423768236824 -4.66487201040104 -1.80702876507651
 1  0.56097417781778 -4.42386229962996 -1.28957172687269
 1 -7.87307263226323  1.15531816581658 -3.32405331733173
 1  1.25947888798880 -4.58446275057506  1.33477316491649
 1  2.97249829272927 -5.02794927392739  0.71139507790779
 1  4.11781622542254 -4.22900042854285 -1.93384243684368
 1  5.33932605410541 -2.92244112491249 -1.14280920242024
 1  4.62866996329633 -2.84651670727073 -2.93083340564056
 1  4.82606541364136 -0.08814292309231 -1.99810649884988
 1 -9.17351687388739  0.88591948914892 -0.66501718791879
 1 -10.14262242734273  1.07586196459646 -2.25578532023202
 1  3.95507193859386  3.05857842644264  3.29094727692769
 1  6.37873287888789  1.34112831933193 -1.42800030323032
 1  4.76711772197220  5.40661375337534 -2.24235129012901
 1  3.62266027012701  5.80117718761876 -0.60740382358236
 1  5.48737050855086  5.10390684528453 -0.74297604570457
 1  1.25696323482348 -8.16413765626563  1.36196586968697
 1  7.91645292709271  2.93686099239924 -2.66325508770877
 1  6.33983542784278  4.04652222352235 -2.77331022012201

