%nproc=4
%Mem=2GB
# td=(NStates=1) B3LYP/SVP 

TD

0 1
 8 -5.46603196499650  0.23614772977298 -3.32223505630563
 8  2.64921174727473  3.15931165456546  3.18760502490249
 8  3.14610534833483  1.00309531863186  3.12272423362336
 8  1.70758489438944 -7.20555646004600  1.55192560236024
 8  0.39056580598060 -6.96820772477248 -0.27036096729673
 8  1.86975043434343  3.95428839583958 -0.15424716031603
 7 -2.41911251395140 -1.05213021962196  0.55789231633163
 7 -4.42856676057606  0.70719496809681 -1.29319125122512
 7  1.93064279137914 -0.71455343634363 -0.41191262936294
 7  2.65144641504150  1.78608705880588 -0.59165664066407
 6 -4.75906815311531  1.20295047444744  0.07787824432443
 6 -4.43516812221222  0.22699911761176  1.29698175887589
 6 -3.07243069926993 -0.05424054165417  1.23522886298630
 6 -1.99565460976098  0.54883703070307  2.04512531073107
 6 -0.79521340884088 -0.05721427992799  1.74856361856186
 6 -1.05463983898390 -1.09822493159316  0.77826453475348
 6 -6.33908000540054  1.42551430733073 -0.11603001680168
 6  0.50126360966097  0.25206312941294  2.45575024382438
 6 -6.75012744444444  1.03857616281628 -1.40445130283028
 6 -0.14064980698070 -1.98516381748175  0.16386356205621
 6  1.17552046324632 -1.78166067866787 -0.40254904810481
 6 -5.51108916701670  0.58889858305831 -2.18941838263826
 6  2.04971084098410 -2.94119769576958 -0.80352566916692
 6 -2.21731847304731  1.64588632063206  3.10151879187919
 6 -7.11547353955396  1.97335287128713  1.07311792569257
 6  3.27658318661866 -2.42607463176318 -1.19037019411941
 6  1.10679745234523  1.73473661586159  2.38383360176018
 6  3.12625916691669 -1.02907234663466 -1.00865449644964
 6  1.53177871577158 -4.32589696929693 -0.85430390429043
 6 -7.96677339823982  1.12891745614561 -2.11034575657566
 6  1.73158484858486 -5.08842508490849  0.41641796829683
 6  4.42120983738374 -3.10200146594659 -1.77111910931093
 6  4.05953489568957 -0.00751909010901 -1.41199139423942
 6  2.36001861726173  1.84476865116512  2.93800370547055
 6  3.75442996889689  1.34165342164216 -1.10670644134413
 6 -9.16116428942894  0.99203704750475 -1.50711947454745
 6  1.21252856125613 -6.57478620812081  0.52108290099010
 6  4.79215328022802  2.50244229922992 -1.38067179367937
 6  4.11312694719472  3.65308946914691 -1.13197276857686
 6  2.77160591659166  3.20051175257526 -0.53825237223722
 6  6.15401340574057  2.30771264266427 -1.82618414721472
 6  4.43299409280928  5.00442195939594 -1.22054472637264
 6  6.97078462986299  3.21262768416842 -2.48918358645865
 1 -4.50326827752775  2.30023506840684  0.24529407140714
 1 -5.25699412851285 -0.57354234533453  1.22874412271227
 1 -4.77721784098410  0.83714794389439  2.04418655315532
 1 -2.75359276967697 -1.54995185268527 -0.23091548284828
 1 -3.57863355665567  0.76380945714571 -1.69815701300130
 1  0.20955754005401  0.09123909740974  3.58718405060506
 1  1.10106855085509 -0.68760864486449  2.09042736313631
 1 -0.59607009950995 -3.07232519581958 -0.04807498909891
 1 -3.27643979597960  1.89165575087509  3.44292045964596
 1 -1.62714757415742  1.51798042554255  3.97114683928393
 1 -1.72265506480648  2.80361899769977  2.81248340234023
 1 -6.44393828892889  2.81265021712171  1.56833495229523
 1 -7.22274498279828  1.21502783118312  1.86639906250625
 1 -8.17572606390639  2.38060023012301  0.84541353855386
 1  1.13999618091809  2.12215482348235  1.29269927752775
 1  0.49877391749175  2.52041012881288  2.86996735123512
 1  1.60372599089909  0.39566595679568 -0.49683190929093
 1  2.04712297089709 -4.83608913211321 -1.51802986518652
 1  0.47184526492649 -4.31602151555156 -1.51333410311031
 1 -7.74436976197620  1.00429306330633 -3.22211312331233
 1  1.47008994909491 -4.61040534483448  1.43824351195120
 1  2.79755079797980 -4.99078555755576  0.41823576197620
 1  4.34661910571057 -4.07450497899790 -2.03496254885489
 1  5.31512363386339 -2.93212209300930 -1.16542146364636
 1  4.56567366366637 -2.48973102870287 -2.73175349764977
 1  4.90108291539154 -0.36890099889989 -1.86672336053605
 1 -9.16876639883989  1.13771466866687 -0.42563324952495
 1 -10.19151731683168  0.87223160156016 -2.01380112181218
 1  3.66483291469147  3.32290485908591  3.47278546074607
 1  6.55875088068807  1.30552475897590 -1.61660916411641
 1  4.24578558875888  5.67645073707371 -2.22850990599060
 1  3.89449745384538  5.69082615251525 -0.53855693889389
 1  5.52087385888589  5.39186564116412 -0.86614836293629
 1  1.32717025552555 -7.98984022652265  1.45855552865286
 1  7.76515779757976  2.99063636993699 -2.79483824602460
 1  6.53943538783878  4.20659823112311 -2.89960284938494

