%nproc=4
%Mem=2GB
# td=(NStates=1) B3LYP/SVP 

TD

0 1
 8 -5.35422078387839  0.01629574457446 -3.40949378217822
 8  2.85791261736174  2.91017674107411  3.47866413081308
 8  3.18626936473647  0.74961997109711  3.45428738993899
 8  1.34607874377438 -7.08043394779478  1.51942235203520
 8  0.62931968136814 -6.94919582358236 -0.52810674187419
 8  2.11994545384538  4.02231519851985  0.00190845524552
 7 -2.31843244594459 -0.77271227782778  0.57027355445545
 7 -4.42243614751475  0.60637488608861 -1.43066499859986
 7  1.94751447854786 -0.63428540954095 -0.36781821992199
 7  2.80316158655866  1.87703615371537 -0.49442691769177
 6 -4.76871911821182  1.30261044044404 -0.09639918341834
 6 -4.40217482288229  0.48942536023602  1.20075213591359
 6 -2.97053050925093  0.19273415581558  1.39129446954695
 6 -1.97177222152215  0.75207735473547  2.21933273147315
 6 -0.64690857835784  0.04966640814081  1.79626838903890
 6 -1.05530990599060 -0.76266137523752  0.77004371267127
 6 -6.34767086448645  1.33058481438144 -0.25366378017802
 6  0.55729921322132  0.25634355745575  2.51666633543354
 6 -6.71356378807881  0.81205351055106 -1.40945180288029
 6 -0.20978672067207 -1.77286258735874  0.11841901760176
 6  1.11012392359236 -1.77948046064606 -0.25137393059306
 6 -5.49456751485148  0.29529922312231 -2.26009545034503
 6  1.84503037293729 -2.85668924492449 -0.87458277487749
 6 -2.28067480868087  1.72970470247025  3.38616725672567
 6 -7.27617961016102  1.97902343834383  0.73944455835584
 6  3.04343987228723 -2.34628665296530 -1.16577773487349
 6  1.05006177877788  1.59275241744174  2.69830504890489
 6  3.08375491649165 -0.99723916331633 -0.93549718071807
 6  1.39307484538454 -4.29886426602660 -0.92786126002600
 6 -8.02720944184419  0.64635920032003 -2.04907962996300
 6  1.56461815191519 -5.01575781818182  0.45172149864986
 6  4.35226294269427 -3.06649791559156 -1.83528552595260
 6  4.05486442864286  0.05292695449545 -1.26894708980898
 6  2.44562717811781  1.65486966126613  3.21191109620962
 6  3.86632115801580  1.40552980928093 -1.07500327102710
 6 -9.18636680968097  0.52074991879188 -1.34374313691369
 6  1.06485379377938 -6.40111884138414  0.39618041074107
 6  4.77447151205121  2.46767882288229 -1.57678140464046
 6  4.13093872837284  3.64672883308331 -1.23402297359736
 6  2.87915667166717  3.26915861726173 -0.48560710771077
 6  6.15247325172517  2.25274714611461 -2.12220374917492
 6  4.55573636703670  5.09266078327833 -1.52914558645865
 6  6.85110266166617  3.15604202560256 -2.79721438953895
 1 -4.41116906760676  2.31145619051905 -0.20845130313031
 1 -5.04925335443544 -0.51580657175718  1.05843709200920
 1 -5.00923104230423  0.91493572267227  1.98943107760776
 1 -2.68680609100910 -1.31286814431443 -0.05429782108211
 1 -3.41305699899990  0.85591866806681 -1.70730792809281
 1  0.32329891419142 -0.19829985648565  3.59541487368737
 1  1.29053749774977 -0.31042092609261  2.03951227162716
 1 -0.47683817631763 -2.66315427872787  0.03419323772377
 1 -3.56663881588159  2.06664324962496  3.01896806440644
 1 -1.87713257265727  1.36366499399940  4.36415614021402
 1 -1.77050985028503  2.75317395319532  3.41231338533853
 1 -6.64336823192319  2.65056400850085  1.44667278607861
 1 -7.54798750705071  1.18599492789279  1.45046746934693
 1 -7.95495398669867  2.55285745584559  0.32868186538654
 1  0.96717889918992  2.06917952595259  1.67958796639664
 1  0.30168420852085  2.12245033283328  3.23586394089409
 1  1.52883850215021  0.40634702490249 -0.43990621672167
 1  2.04392265086509 -4.92262778597860 -1.74040210241024
 1  0.24816289668967 -4.21808172157216 -1.13398616831683
 1 -8.05698102310231  0.53427606160616 -3.18839975197520
 1  1.07361030113011 -4.56406071037104  1.41872155975598
 1  2.60755179807981 -5.02036851585158  0.45477941634163
 1  3.94799924372437 -4.07656518501850 -2.11062011461146
 1  5.25438756025603 -2.89039792059206 -1.36136105760576
 1  4.33578067436744 -2.43724578017802 -2.82015233753375
 1  4.80511331843184 -0.06130023882388 -2.10039672787279
 1 -9.51354087628763  0.76738763596360 -0.20669135533553
 1 -10.08354651975197  0.74268864726473 -2.04340408210821
 1  3.78709514091409  2.83033560216022  3.67723590579058
 1  6.53477848344834  1.22698690519052 -1.98471597479748
 1  4.74265527572757  5.29569266126613 -2.76480353535354
 1  3.72453045714571  5.75569263916392 -1.19198228142814
 1  5.37133890539054  5.13656011061106 -1.04091583968397
 1  1.03460099859986 -8.08290953345334  1.40892056515652
 1  7.98859014081408  2.84814212051205 -3.05101386358636
 1  6.53155459975998  4.33495106640664 -3.03454634373437

