%nproc=4
%Mem=2GB
# td=(NStates=1) B3LYP/SVP 

TD

0 1
 8 -5.57157251905191  0.45014912991299 -3.35776860966097
 8  2.80982780888089  3.20148587198720  3.05240150455045
 8  3.12960369816982  1.05387039613961  3.47080904210421
 8  1.64738887478748 -7.28633453785378  1.49805021482148
 8  0.47397414681468 -6.99438034203420 -0.35105903710371
 8  2.13959741904190  3.91945491249125  0.00944920932093
 7 -2.36876747944794 -0.74592959955996  0.47564409150915
 7 -4.56951085498550  0.84831908050805 -1.30371230333033
 7  1.89222894999500 -0.63362534353435 -0.44859629772977
 7  2.72164343474347  1.78256670677068 -0.60608808380838
 6 -4.97505975227523  1.25085526492649  0.03115357185719
 6 -4.41102570797080  0.35849226692669  1.21882394309431
 6 -2.89186264246425  0.18858374077408  1.20546588668867
 6 -2.00910595489549  0.72381452845285  2.04554535273527
 6 -0.72883677117712  0.11038247974797  1.79390815301530
 6 -1.05265964096410 -0.80286539563956  0.82080878917892
 6 -6.51015711311131  1.19223097899790 -0.12023043684368
 6  0.56596007930793  0.24934285738574  2.51473614241424
 6 -6.92511494319432  0.79923222842284 -1.31623248094809
 6 -0.21766750875088 -1.90342564366437  0.14586176187619
 6  1.09610252145215 -1.80499301190119 -0.28327712091209
 6 -5.67798585668567  0.59248894209421 -2.18630807160716
 6  1.98416428632863 -2.89358293429343 -0.87061237783778
 6 -2.16187292849285  1.74140587258726  3.15525416541654
 6 -7.43763575577558  1.69763529952995  0.95346596049605
 6  3.15972150045005 -2.38280030433043 -1.17896905400540
 6  1.06249302190219  1.78983212541254  2.44405962436244
 6  3.17591413241324 -0.87157659705971 -1.00578420942094
 6  1.41493703160316 -4.41214559415942 -0.86509498339834
 6 -8.10366708760876  0.63150771517152 -2.05410013201320
 6  1.82035372547255 -5.12120836323632  0.48566489298930
 6  4.30377809420942 -3.09390065586559 -2.03094509190919
 6  4.13550249244924 -0.00999933813381 -1.36158635373537
 6  2.38655127052705  1.90303447774778  3.11043094819482
 6  3.92846737263726  1.35959521582158 -1.17173294399440
 6 -9.44032220522052  0.65675351915192 -1.60427919051905
 6  1.18627593599360 -6.54015274477448  0.44214500720072
 6  4.84260832573257  2.48261031603160 -1.44661838833883
 6  4.26086172067207  3.59943410361036 -1.10745031633163
 6  2.91210996699670  3.24298600000000 -0.48581712871287
 6  6.18544654905491  2.12526439783978 -2.00310183898390
 6  4.79266005940594  5.01131264846485 -1.13587625952595
 6  7.05684323572357  3.05140156155616 -2.47509217731773
 1 -4.63016096679668  2.23086813171317  0.20475001700170
 1 -4.82632106120612 -0.74288928002800  1.14574582288229
 1 -4.86083620282028  0.65509973907391  2.22225435993599
 1 -2.82640005040504 -1.33915077257726 -0.13226561786179
 1 -3.51894758805881  0.44645772197220 -1.37646484378438
 1  0.46731331563156 -0.01306133263326  3.63714904710471
 1  1.33021146514651 -0.38317820182018  2.09490781118112
 1 -0.75316580908091 -2.68084604790479 -0.00191037263726
 1 -3.18780093209321  1.80033661896190  3.35531169876988
 1 -1.64099895929593  1.32656128362836  4.07746747134714
 1 -1.88999179847985  2.78392702850285  2.81389354335434
 1 -7.15119901500150  2.16673562566257  2.03918203700370
 1 -8.13265597389739  0.81028735713571  1.34595701830183
 1 -8.27187567886789  2.57968013811381  0.55604460166017
 1  1.17208939023902  2.27459006700670  1.40850085768577
 1  0.45036907700770  2.38351643944394  3.02679303380338
 1  1.67089270757076  0.22891928212821 -0.42745497159716
 1  2.04108236683668 -4.78473399659966 -1.79518758095810
 1  0.49777785818582 -4.61312122552255 -1.32141491119112
 1 -7.93774909990999  0.72881551555156 -3.01445235723572
 1  1.56791973207321 -4.77999230353035  1.51596128372837
 1  2.88154919781978 -5.30298677767777  0.50928486688669
 1  4.12668711251125 -4.28630615911591 -1.93978303090309
 1  5.25763788528853 -2.54131301210121 -1.68630355185519
 1  4.36776387268727 -2.86982903850385 -3.18218854115412
 1  5.23227603470347 -0.51827593639364 -1.67611429962996
 1 -9.71940146234624  0.78191908910891 -0.47813850005001
 1 -10.25949411451145  0.64380875927593 -2.23396313801380
 1  3.63919035043504  3.05485805440544  3.50593877607761
 1  6.61287629322932  1.07864207070707 -1.80309781298130
 1  5.11348235843584  5.34279737173717 -2.10460751575158
 1  4.02967097119712  5.77341441134114 -0.72099518271827
 1  5.71483325482548  5.10154660926093 -0.46848859695970
 1  1.24045158365837 -8.19046028852885  1.38653832693269
 1  8.00458173997400  2.78425573187319 -3.09716847904790
 1  6.94668611291129  4.21315888718872 -2.65823871297130

