%nproc=4
%Mem=2GB
# td=(NStates=1) B3LYP/SVP 

TD

0 1
 8 -5.35616097789779  0.14514862986299 -3.27462029482948
 8  2.95726255235524  3.04355007840784  3.02495876027603
 8  3.18127886568657  0.81363637273727  3.18144010521052
 8  1.31358549444944 -7.13582948734873  1.71044145394539
 8  0.77747449684969 -7.09277018101810 -0.57863179437944
 8  1.87395085438544  4.01427439443945 -0.05323705930593
 7 -2.37226782948295 -0.90288529512951  0.49870639773977
 7 -4.53519742364236  0.73458770737074 -1.26644857695770
 7  1.90576030313031 -0.70192217321732 -0.36072751085109
 7  2.66071734213421  1.83686213631363 -0.66031350635064
 6 -4.83128537483748  1.25042522192219  0.03664412091209
 6 -4.42586719211921  0.27511392909291  1.16456851755176
 6 -3.00777423362336  0.07339222162216  1.35659099919992
 6 -2.01757680198020  0.71654380138014  1.97426822502250
 6 -0.72848673617362  0.12360380188019  1.68007676987699
 6 -1.01739611461146 -0.86468157725773  0.76869357765777
 6 -6.32706880428043  1.40088184408441 -0.11668008180818
 6  0.51635511881188  0.30619854295430  2.42418708750875
 6 -6.70620305200520  1.01258356355636 -1.45600645834583
 6 -0.20777651965197 -1.83327862896290  0.16690386608661
 6  1.10800371157116 -1.85839835243524 -0.27365615881588
 6 -5.51748980708071  0.60623031623162 -2.14338377917792
 6  1.98001387128713 -2.99671324732473 -0.76782209880988
 6 -2.36762350355036  1.76717844984498  3.12213085308531
 6 -7.18354034623462  1.89285482148215  0.92286290019002
 6  3.19644517281728 -2.46282830713071 -1.16553771087109
 6  1.17960473307331  1.74741788398840  2.46537175557556
 6  3.03861040204020 -0.97535697509751 -0.90741437243724
 6  1.50163570147015 -4.34118849844985 -0.87913638753875
 6 -8.00014673557356  0.84786935133513 -2.05215993799380
 6  1.66235792589259 -5.08670491289129  0.46449277577758
 6  4.44484220062006 -3.13590485628563 -1.80384238163816
 6  4.05642458465847  0.02778444024402 -1.28491868696870
 6  2.57968058345835  1.74045822012201  2.84375428052805
 6  3.81551607750775  1.41391064736474 -1.18287405810581
 6 -9.26571474447445  0.81070891469147 -1.49607837043704
 6  1.17818512691269 -6.47439616911691  0.47876866956696
 6  4.74601866676668  2.53615567056706 -1.42367609410941
 6  4.07219285378538  3.63661782198220 -1.01357092839284
 6  2.72788154415442  3.29681138253825 -0.52064061106111
 6  6.07999600400040  2.25504737613761 -1.99515104390439
 6  4.55427622102210  4.99893141034103 -1.01885455735574
 6  6.88244579597960  3.20344676607661 -2.56635130323032
 1 -4.35765371607161  2.21318636353635  0.20412995499550
 1 -4.94877330643064 -0.75060005110511  0.84282553085309
 1 -4.79475959515952  0.44439866896690  2.19328146264627
 1 -2.80707811821182 -1.70889774727473 -0.11802419371937
 1 -3.57831352465247  0.56436951315131 -1.57914511181118
 1  0.58664524882488 -0.05122514901490  3.49534486668667
 1  1.42841128512851 -0.10173005700570  2.12955127552755
 1 -0.68813930643064 -2.70265822912291  0.00448026642664
 1 -3.31403355535554  1.39179576487649  3.63292946054605
 1 -1.78953381278128  1.46750537803780  4.03480320492049
 1 -2.24834763406341  2.81985062086209  2.82548470247025
 1 -6.83848774387439  2.59861881398140  1.59918803760376
 1 -7.37263997229723  0.94824115251525  1.70207262986299
 1 -8.14564305560556  2.30937310741074  0.62294129132913
 1  1.10903308460846  2.13235584358436  1.44496450405041
 1  0.72162620272027  2.34584267206721  3.06681703620362
 1  1.87000261856186  0.23123951415142 -0.24333655975598
 1  1.79622788138814 -4.96649217241724 -1.60609867206721
 1  0.55224330473047 -4.71660157355736 -1.09063183288329
 1 -8.10315564056406  0.68536117011701 -3.15079599159916
 1  1.20086302640264 -4.39214351865187  1.15821550915092
 1  2.70645168806881 -4.83887036603660  0.79627356575657
 1  4.27142158595860 -4.27662519101910 -1.44401345394539
 1  5.42562468396840 -2.45925480628063 -1.41228615011501
 1  4.37381447774777 -2.84989704530453 -2.92102242454245
 1  4.90062286938694 -0.28193230203020 -1.82049873807381
 1 -9.36967648984898  1.04245514271427 -0.46692737893789
 1 -10.17195536063606  0.74057843624362 -1.97965770747075
 1  3.85102153355336  3.08222079067907  3.61472965516552
 1  6.34490949654965  1.15686989348935 -1.92172967616762
 1  4.12479348954896  5.66696978897890 -1.98934598959896
 1  4.19214721882188  5.55080215011501  0.03260017681768
 1  5.80178194969497  5.06539299389939 -0.98709045714571
 1  1.11302884138414 -8.04563580608061  1.58310798389839
 1  7.87998928072807  2.95219252555256 -2.67520628282828
 1  6.57446889118912  4.21682925422542 -2.75860874997500

