%nproc=4
%Mem=2GB
# td=(NStates=1) B3LYP/SVP 

TD

0 1
 8 -5.35674103590359  0.61637575257526 -3.42580541334133
 8  2.75858268436844  3.20583630703070  3.42710897529753
 8  3.31675241304130  1.06854186328633  3.28518047924792
 8  1.33126726262626 -7.17678358275828  1.57069747954796
 8  0.32487923732373 -6.82634353835384 -0.44711864306431
 8  2.07535099439944  4.04306727372737 -0.08432016761676
 7 -2.30199080178018 -1.04753976057606  0.62183871097110
 7 -4.37061096499650  0.88110235883588 -1.36722865496550
 7  1.97506723382338 -0.76626860786079 -0.37616905500550
 7  2.65268653905391  1.79314776487649 -0.52620009500950
 6 -4.81923416971697  1.25619579897990  0.03918437493749
 6 -4.40366497189719  0.13782019971997  1.11121318201820
 6 -2.94161761796180 -0.04869998759876  1.23494883498350
 6 -1.96595163946395  0.70263241024102  2.03665446364636
 6 -0.72854674217422  0.15997743924392  1.71612037423742
 6 -0.94972934793479 -0.88874398349835  0.78906561486149
 6 -6.31937803520352  1.19441119701970 -0.16195460926093
 6  0.55479896319632  0.30296821992199  2.51398606740674
 6 -6.64371680338034  0.99679198439844 -1.41768262596260
 6 -0.07983372537254 -1.84575987708771  0.18852602830283
 6  1.17704061526153 -1.80789330193019 -0.30419921312131
 6 -5.43065112321232  0.75486517971797 -2.22920236103610
 6  1.96155202510251 -2.94943851985198 -0.78207352395240
 6 -2.37145388658866  1.58679041104110  3.14565320532053
 6 -7.29595158735874  1.61991752775278  0.91293190709071
 6  3.23811934023402 -2.43744576887689 -1.15706686378638
 6  1.07749452205221  1.72889603180318  2.52542776117612
 6  3.11966850785078 -1.04744418381838 -0.97236086708671
 6  1.53400893879388 -4.37860223982398 -0.88690716461646
 6 -7.97556427732773  0.83167773217322 -2.03445816781678
 6  1.67699939003900 -5.09848609100910  0.48329465596560
 6  4.34427214361436 -3.31532279807981 -1.81046304370437
 6  3.95917485968597  0.01235289708971 -1.34218441354135
 6  2.45921853725373  1.90346452075208  3.08772867796780
 6  3.76508103400340  1.35650490679068 -1.09672544324432
 6 -9.19955812881288  0.49078692249225 -1.37089585218522
 6  1.08409571797180 -6.40945967546755  0.40339113181318
 6  4.83209727462746  2.48268032303230 -1.37845157165717
 6  4.13763939843984  3.66183034323432 -1.09766933823382
 6  2.87437619361936  3.23590529192919 -0.60488903590359
 6  6.07624562896290  2.22452432383238 -2.03069459825983
 6  4.53167396079608  5.01077259445945 -1.31560423232323
 6  6.70596814821482  3.17620404180418 -2.77935260336034
 1 -4.37207515821582  2.31669671457146  0.19891943394339
 1 -4.88662709180918 -0.84806979807981  0.91946319461946
 1 -4.85119523872387  0.46002023112311  2.07642977747775
 1 -2.63072048244825 -1.45989284678468 -0.32786517781778
 1 -3.45906159945995  1.02809588578858 -1.79180637793779
 1  0.23079966426643 -0.00764079057906  3.47266259845985
 1  1.30210865486549 -0.24184406840684  2.10012833323332
 1 -0.61879237173717 -2.82009997329733  0.08079789818982
 1 -3.56331848384838  1.64665125042504  3.28148431603160
 1 -1.92797765716572  1.37651627912791  4.00761048564856
 1 -2.00000279957996  2.78428706450645  3.05698785278528
 1 -6.96653054815482  2.24435338743874  1.74400251905190
 1 -7.83016572487249  0.66732306070607  1.53095551815182
 1 -8.09706819811981  2.23431560166017  0.62837183438344
 1  1.24661684298430  2.05094770277028  1.48641864946495
 1  0.36636067616762  2.66653474127413  3.05610596509651
 1  1.68281389968997  0.19963635383538 -0.10284251035104
 1  2.03795205380538 -4.89171469466947 -1.76401446364636
 1  0.66580466086609 -4.40189010241024 -1.16881965166517
 1 -8.16734205920592  0.99407204120412 -3.15909682168217
 1  1.18946188628863 -4.48158246254626  1.23054274187419
 1  2.87133817671767 -5.32274875387539  0.65562950135013
 1  4.24386883068307 -4.18300582908291 -1.85214426702670
 1  5.26942906440644 -3.10455933673367 -1.08829375087509
 1  4.56283337963796 -2.90411246684668 -2.72376269856986
 1  4.95955876297630 -0.47658176697670 -1.77275396359636
 1 -9.54916443864387  0.07058795599560 -0.23593427962796
 1 -10.05252341744174  0.64783916231623 -2.04535427712771
 1  3.64575100650065  3.26152872147215  3.59403758595860
 1  6.47915292089209  1.23756796329633 -1.88208571177118
 1  4.34243525372537  5.35907899989999 -2.30484753975398
 1  3.82492049614961  5.73581065096510 -0.84931801500150
 1  5.82808457995800  5.05486194079408 -1.12442419051905
 1  0.98338587708771 -8.11208245074507  1.56574624772477
 1  7.74100538233823  3.25265257155716 -3.23405216741674
 1  6.21204264856486  4.11064863616362 -3.28745163426343

