%nproc=4
%Mem=2GB
# td=(NStates=1) B3LYP/SVP 

TD

0 1
 8 -5.34630999279928  0.04946906190619 -3.31349418221822
 8  2.72471929802980  3.02498822222222  3.26373263766377
 8  3.22231296909691  0.83625863496350  3.29482144334433
 8  1.87646178207821 -7.24169007340734  1.50393080288029
 8  0.28338508790879 -6.96306721072107 -0.14580851205121
 8  1.89843330263026  4.08116108310831  0.01524978937894
 7 -2.38016861956196 -0.92548755535554  0.67067359445945
 7 -4.38535243914391  0.65886013461346 -1.31962389448945
 7  1.86792651975198 -0.68888086908691 -0.44796623472347
 7  2.67479875027503  1.90379882998300 -0.63998147314731
 6 -4.83426567286729  1.30484066346635 -0.04714425792579
 6 -4.39699430483048  0.38036445414541  1.24452651335134
 6 -3.04584804100410  0.08523340574057  1.28359369946995
 6 -2.03057810211021  0.71147329432943  2.07601840004000
 6 -0.79790367786779  0.19611105260526  1.81584034623462
 6 -1.05110948594859 -0.85928103720372  0.92892960126013
 6 -6.33778987638764  1.47310906680668 -0.28661707550755
 6  0.54688817211721  0.32907083018302  2.52407707650765
 6 -6.62899533123312  0.89140144534453 -1.51253211091109
 6 -0.31333707570757 -1.79268456955696  0.18748592429243
 6  1.02778568976898 -1.80408292089209 -0.28445723892389
 6 -5.43644170227023  0.40694038723872 -2.15468490929093
 6  1.82344821472147 -3.00730430643064 -0.88095341194119
 6 -2.14895163636364  1.87940967296730  3.08091673167317
 6 -7.19415140734073  1.97664320032003  0.87471808570857
 6  2.96676220452045 -2.42110413471347 -1.41967312441244
 6  1.17904467706771  1.73614675687569  2.46573179157916
 6  3.00996753775378 -0.98181762116212 -1.11902553355336
 6  1.16605214311431 -4.31706608620862 -0.73887236113611
 6 -7.96736345724572  0.63902846724672 -2.09098382038204
 6  1.96241793189319 -5.20185642804281  0.29545587208721
 6  4.15365308170817 -3.08491975777578 -2.09284128152815
 6  4.01370031223122  0.07721938373837 -1.49550974607461
 6  2.48602121752175  1.72704687898790  3.01158106320632
 6  3.81186571247125  1.32020127642764 -1.17206297699770
 6 -9.20268844184418  0.65663350715072 -1.51979074167417
 6  1.26063337173717 -6.55395412491249  0.47373816651665
 6  4.78626269116912  2.48247030203020 -1.46397012351235
 6  4.18195382988299  3.62858701890189 -1.03889346064606
 6  2.71592034803480  3.25593729512951 -0.44421296829683
 6  6.16434443884388  2.28843071447145 -1.99801132993299
 6  4.71139193259326  5.04921643884388 -0.90009268116812
 6  7.02056960836084  3.22991941334133 -2.56474114221422
 1 -4.43839178987899  2.18523356825683  0.09256879887989
 1 -4.99366779587959 -0.58476346744674  1.52409365766577
 1 -4.50508062726273  1.34265849494950  2.03425556005601
 1 -2.81080849124913 -1.53219007650765 -0.05214760606061
 1 -3.37789348264826  0.56859993619362 -1.59863706100610
 1  0.60884746904690 -0.23783380988099  3.40882621482148
 1  1.28149659365937 -0.37321720572057  1.73051137153715
 1 -0.93198369086909 -2.69617758105811  0.01269108750875
 1 -3.26490864286429  2.15693227852785  3.39084525212521
 1 -1.47793265266527  1.89211783928393  4.09010873547355
 1 -1.67861066036604  2.74931356715672  2.53611576557656
 1 -6.65405930103010  2.66359531163116  1.40687880668067
 1 -7.46181889018902  1.24599092749275  1.77558998159816
 1 -8.05533402470247  2.51005317541754  0.55520451765177
 1  1.00627280858086  1.95004761276128  1.44163417101710
 1  0.44358839893989  2.60025811361136  2.98931928642864
 1  1.65075069336934  0.27033342354235 -0.17334956105611
 1  1.52201045964596 -4.89632515571557 -1.73588165036504
 1  0.15066314671467 -4.52029194259426 -0.77782055175518
 1 -7.90047537253725  0.71475410941094 -3.33209412141214
 1  2.12792573267327 -4.64472877717772  1.49001868946895
 1  3.15355639853985 -5.31236771577158 -0.22437849944994
 1  3.89625406920692 -4.08655618411841 -2.23931298389839
 1  5.04353647514752 -3.49675855665567 -1.36203112461246
 1  4.64424152045205 -2.65140719631963 -2.89899022132213
 1  5.17562036913691 -0.09437354615461 -1.82032872107211
 1 -9.50832035423542  0.72789368656866 -0.42401308750875
 1 -10.00124828992899  1.08649302770277 -2.18658840054005
 1  3.52440887228723  2.86578914751475  3.56694487668767
 1  6.47168217381738  1.20836504300430 -1.86603410661066
 1  4.70864187438744  5.49925301730173 -1.89475653065306
 1  3.85604360846085  5.56848391829183 -0.41565464866487
 1  5.79903167466747  5.16262271687169 -0.45486723482348
 1  1.12561009950995 -8.03049429192919  1.78538821192119
 1  8.13067434923492  3.22978028432843 -2.65859462166217
 1  6.59611105540554  4.15196276757676 -2.76134902400240

