%nproc=4
%Mem=2GB
# td=(NStates=1) B3LYP/SVP 

TD

0 1
 8 -5.42849821162116  0.34377849284929 -3.29866269906991
 8  2.94475130123012  3.15408113151315  3.09794605900590
 8  3.19910064786479  0.94786979607961  3.43493545474547
 8  1.72878701460146 -7.23560946534653  1.43323373317332
 8  0.42227897729773 -6.95224612861286 -0.46830076127613
 8  1.88057151645164  4.02516548354836 -0.29538127372737
 7 -2.37679828252825 -0.96337134373437  0.50286681378138
 7 -4.49217312121212  0.61985623422342 -1.27454938703870
 7  1.94450417751775 -0.69224120512051 -0.47012845094509
 7  2.72491376177618  1.82075052515252 -0.45504297929793
 6 -4.95635788208821  1.17117729712971  0.03684414091409
 6 -4.40815542094209  0.20292671037104  1.20023208390839
 6 -2.97678113431343 -0.05604072167217  1.23203854395440
 6 -2.03504854915492  0.74148629562956  1.94264506270627
 6 -0.75268915641564  0.16882832433243  1.72418118031803
 6 -1.00415479047905 -0.92989809890989  0.75358206650665
 6 -6.38014411181118  1.37663941984198 -0.14080249404940
 6  0.56607009030903  0.42830075317532  2.45131980078008
 6 -6.75564799649965  0.94859716491649 -1.42223308100810
 6 -0.14500024202420 -1.88615391649165  0.22113928962896
 6  1.16191910311031 -1.81510402300230 -0.29126791999200
 6 -5.54191224932493  0.53718341154115 -2.16541598239824
 6  1.94642051195120 -3.03867744374437 -0.83915923252325
 6 -2.35393213441344  1.88275000700070  2.84368300830083
 6 -7.29142113431343  1.90935647164716  0.96064667856786
 6  3.13077860616062 -2.40303232753275 -1.21341249834983
 6  1.08336510911091  1.77483062526253  2.59594481288129
 6  3.06012255325533 -0.92464190359036 -1.08514214521452
 6  1.57845338323832 -4.34284866446645 -0.84330280418042
 6 -8.08451517241724  0.90311487588759 -2.01064578657866
 6  1.68819050915092 -5.13449969236924  0.58056438293829
 6  4.26271398779878 -3.13515478127813 -1.91263326072607
 6  4.15461440364036 -0.02157049524953 -1.22438263336334
 6  2.52574518991899  1.84040821512151  3.12185209030903
 6  3.88516304220422  1.27446670297030 -1.01361713241324
 6 -9.29982815581558  0.77934577837784 -1.38636739933993
 6  1.20806811521152 -6.55483421292129  0.34712550525053
 6  4.81735580048005  2.40087214221422 -1.31783551005101
 6  4.21557719221922  3.66202036223622 -1.06134570587059
 6  2.80846960296030  3.23618531993199 -0.55637418441844
 6  6.16960496489649  2.23823569496950 -1.93489501830183
 6  4.41870266366637  5.03770528772877 -1.24771744364436
 6  6.93476102750275  3.16426284768477 -2.45877054515452
 1 -4.35981393209321  2.10196524142414  0.27689723172317
 1 -4.96301473057306 -0.74606959805981  0.98709995829583
 1 -4.58072819201920  0.63095732483248  2.07276941144114
 1 -2.96072348274828 -1.52826968446845 -0.15245763706371
 1 -3.48727442074207  0.64981805800580 -1.64626182348235
 1  0.41229781408141 -0.19284931143114  3.41422675487549
 1  1.14207265126513 -0.36295617961796  2.10543886428643
 1 -0.56174666716672 -2.95679364266427 -0.03918410001000
 1 -3.43129528152815  1.94253083838384  3.17527369496950
 1 -1.86958181758176  1.67049567706771  3.95391511611161
 1 -1.97656045534553  2.72999163496350  2.33663581758176
 1 -6.75903979907991  2.85808476057606  1.39947806660666
 1 -7.37199990829083  1.04676100450045  1.89967238983898
 1 -8.14137262856286  2.31755392549255  0.59391838903890
 1  1.37595977727773  2.09114172217222  1.60335034263426
 1  0.55720976107611  2.46172426022602  3.14567492199220
 1  1.79718533683368  0.41518790899090 -0.15192741884188
 1  2.22001025962596 -4.85911143434344 -1.64829289148915
 1  0.52960104050405 -4.57704761816182 -1.19808257795780
 1 -7.94881020602060  0.84677731173117 -3.12906381838184
 1  0.75412835293529 -4.65155946024602  1.12491217881788
 1  2.60932197509751 -5.32074855385539  1.22606654505451
 1  3.95802024582458 -4.11223875237524 -2.04532358495850
 1  5.06790891239124 -3.14940382118212 -1.26030095159516
 1  4.33634073037304 -2.68993104870487 -2.69558988128813
 1  5.12810561766177 -0.40870497929793 -1.62377906610661
 1 -9.34986450865087  0.88654955215522 -0.30743142934293
 1 -10.32816098119812  0.57498187658766 -1.78629837153715
 1  3.83974040544054  3.07782035063506  3.29573775597560
 1  6.55286029162916  1.12842704920492 -1.66703420662066
 1  4.34860587078708  5.44159725172517 -2.20671772677268
 1  3.63251125522552  5.46053312321232 -0.63137622082208
 1  5.39567133863386  5.48864531913191 -0.62700444854485
 1  1.12803034153415 -8.15776701920192  1.58177785088509
 1  7.94664594639464  2.95953325962596 -2.90807957015702
 1  6.77116856115612  4.14462203350335 -2.49710259935994

