%nproc=4
%Mem=2GB
# td=(NStates=1) B3LYP/SVP 

TD

0 1
 8 -5.24250961276128  0.55174928992899 -3.34697753055306
 8  2.90261708780878  3.13970969436944  3.18026429082908
 8  3.12787352515252  0.89264427352735  3.19092105330533
 8  1.81267540344034 -7.36018192259226  1.42758316811681
 8  0.15218196759676 -6.91621252525253 -0.27993192439244
 8  1.96957041634163  4.01725469246925 -0.09504123972397
 7 -2.30836143884388 -0.91627663426343  0.53931045814581
 7 -4.40168407230723  0.78202245084508 -1.22926485858586
 7  1.96737646474647 -0.62252423342334 -0.42616405450545
 7  2.76723799419942  1.82903135323532 -0.52564003900390
 6 -4.78805105140514  1.27693787318732  0.09791024752475
 6 -4.46638124352435  0.26428284598460  1.21412347304730
 6 -2.96244970117012 -0.00422554015402  1.40999633973397
 6 -2.10747579187919  0.63869601660166  2.14842564076408
 6 -0.86174006150615  0.13353479497950  1.83073183538354
 6 -0.94448882388239 -0.86622173127313  0.76734344264426
 6 -6.32275837323732  1.25070682658266 -0.17272568636864
 6  0.53777726102610  0.30189811291129  2.43740840964096
 6 -6.66299873157316  1.01123342854285 -1.40171102880288
 6 -0.13465920792079 -1.82690799189919  0.19056623232323
 6  1.17335024622462 -1.74453696629663 -0.28474726792679
 6 -5.35608366646665  0.73454314751475 -2.19775921672167
 6  1.97943381328133 -2.87964154015402 -0.72999831643164
 6 -2.42072881408141  1.71041277327733  3.16948558855886
 6 -7.35936792899290  1.70454599059906  0.89196981088109
 6  3.10345587388739 -2.47973999829983 -1.12643380048005
 6  1.07349412201220  1.82193533573357  2.48958417681768
 6  3.16621316231623 -0.97491693109311 -1.00273390439044
 6  1.37002254015402 -4.32098647824782 -0.75735420932093
 6 -7.94894161506151  0.84732929732973 -2.09642436443644
 6  1.82018370847085 -5.20053629602960  0.45301162766277
 6  4.25430314671467 -3.25271653745375 -1.72344434183418
 6  4.03576251845185  0.01105276707671 -1.42820301540154
 6  2.46458907430743  1.83799797409741  2.94078398349835
 6  3.74543906980698  1.35775503180318 -1.18412418311831
 6 -9.20076824982498  0.56133397719772 -1.62327108970897
 6  1.15777308570857 -6.62744147364737  0.40007079977998
 6  4.70059412431243  2.48026008100810 -1.56879060556056
 6  4.11780741524152  3.57775193539354 -1.14516408770877
 6  2.77121587758776  3.19790149154916 -0.50386893389339
 6  6.02830083448345  2.18700057145715 -2.15080660946095
 6  4.50656144954495  5.08101961916192 -1.18959163106311
 6  6.89258681008101  3.23677009840984 -2.52017668576858
 1 -4.42226017671767  2.32882792769277  0.34589413141314
 1 -5.20448887798780 -0.69971496259626  1.12313356165617
 1 -4.62954307350735  0.74951918101810  2.14696683118312
 1 -2.82530994139414 -1.15670252775277 -0.24579697099710
 1 -3.41279697299730  0.75100817701770 -1.66370356765677
 1  0.51750833513351 -0.13281330783078  3.58442377457746
 1  1.24457290129013 -0.29077896189619  1.88646696709671
 1 -0.46602709520952 -2.98562652595259  0.02632245064506
 1 -3.36502865486549  1.63533011831183  3.69119528712871
 1 -1.76927178657866  1.79899852735274  4.11893161776178
 1 -2.40011281058106  2.66650528632863  2.60562271627163
 1 -6.85931982708271  2.44920387248725  1.64517263606361
 1 -7.74847755605561  1.11376770517052  1.60649307190719
 1 -8.13871236253625  2.13052522262226  0.24644364156416
 1  1.22775495679568  2.18428103610361  1.56200620822082
 1  0.46312035213521  2.78112620042004  3.06046640114011
 1  1.72234785308531  0.40413680388039 -0.23833605970597
 1  2.07093535213521 -4.79639516271627 -1.62906096829683
 1  0.33210129052905 -4.39297921132113 -0.77464023372337
 1 -8.05310063506351  1.17723035703570 -3.16998791079108
 1  1.60926386648665 -4.73496780108011  1.49374906250625
 1  2.90916195909591 -5.37748422742274  0.45837977637764
 1  3.78988343214321 -4.25397292579258 -1.82488154075407
 1  5.25669779127913 -3.12675155595560 -1.19397431893189
 1  4.65332242854285 -2.87492954855486 -2.86514683698370
 1  4.84056686378638 -0.46553066186619 -1.87309399759976
 1 -9.38529805200520  0.60423132033203 -0.58171885808581
 1 -10.21792995809581  0.38178255665567 -2.08376811851185
 1  3.69721615301530  3.13767633623362  3.70068825102510
 1  6.45927093269327  1.03666787328733 -2.20696820002000
 1  4.61542255245525  5.32722581458146 -2.26331338633863
 1  3.63826183028303  5.67745481538154 -0.75364844804480
 1  5.48198997049705  5.10586704130413 -0.45497724582458
 1  1.65858339683968 -8.36777802030203  1.24542421552155
 1  7.85957723952395  3.14322162846285 -2.70112887508751
 1  6.38720016431643  4.14388195949595 -2.57717060616062

