%nproc=4
%Mem=2GB
# td=(NStates=1) B3LYP/SVP 

TD

0 1
 8 -5.10845620742074  0.03273738873887 -3.23933676647665
 8  2.78071489758976  3.09833555695570  3.24487075147515
 8  3.27997873567357  0.87125213431343  2.95746770797080
 8  1.58869300520052 -7.38549445384538  1.43791420122012
 8  0.44077082648265 -7.05606651065106 -0.55778971017102
 8  1.97801126042604  4.08471143814381 -0.06701843744374
 7 -2.40482108480848 -0.92074708130813  0.72527905500550
 7 -4.31413531743174  0.53366761536154 -1.20294222632263
 7  1.86431615871587 -0.63861584258426 -0.28581001910191
 7  2.70540181058106  1.88282673277328 -0.47046452145215
 6 -4.73617586388639  1.26035621502150  0.09570002650265
 6 -4.46344094949495  0.47592401010101  1.38395045574557
 6 -2.97052050825083  0.08282316471647  1.42527786788679
 6 -1.95983102740274  0.75561770877088  2.15824662286229
 6 -0.79253314081408  0.09609105060506  1.80094885708571
 6 -1.04075845084508 -0.93687879697970  0.91739844814481
 6 -6.24826092349235  1.49649140504050 -0.30325873967397
 6  0.59500298359836  0.27915583868387  2.49232390119012
 6 -6.60888332003200  0.94350665586559 -1.49887074477448
 6 -0.20909665166517 -1.92659796089609  0.24020119581958
 6  1.09166207740774 -1.81175368796880 -0.18071686488649
 6 -5.40046810491049  0.41063075627563 -2.05007444824482
 6  1.85386125602560 -2.91036461246125 -0.80744606120612
 6 -2.26341308250825  1.81761349334933  3.12135077507751
 6 -7.22047403960396  2.00346588258826  0.84433504740474
 6  3.02918844714471 -2.34127615191519 -1.23031418851885
 6  1.05703247584758  1.74416755895590  2.40649586798680
 6  3.00575711671167 -0.92131157055706 -0.94270790179018
 6  1.43939947784778 -4.34792917251725 -0.82851132503250
 6 -7.86133285418542  0.82527709210921 -2.23194791679168
 6  1.73652534263426 -5.21460770317032  0.42592891939194
 6  4.19959767616762 -3.01168243404340 -1.94126612401240
 6  3.97191613381338 -0.03614195239524 -1.27104729982998
 6  2.48896151155116  1.85133930823082  2.85739564466447
 6  3.76989151505151  1.39995925222522 -0.98311408210821
 6 -9.22542071507151  0.79285712951295 -1.65715447804780
 6  1.17273458185819 -6.64516324582458  0.38925971867187
 6  4.73349741464146  2.52962501750175 -1.39498322482248
 6  4.03424905940594  3.66277043724372 -1.12696226752675
 6  2.79754851085108  3.30364206560656 -0.58388693569357
 6  6.03114111851185  2.27835970737074 -1.93432496129613
 6  4.42394318771877  5.08965048224823 -1.18645131703170
 6  6.84529208060806  3.12550897229723 -2.71482615071507
 1 -4.30907885858586  2.37345239013901  0.14540408240824
 1 -5.02017044614461 -0.35717070817082  1.12903415171517
 1 -4.82041216041604  1.04271850095010  2.21419355385539
 1 -3.06395380578058 -1.67151400890089  0.25426303500350
 1 -3.38300399369937  0.34998807500750 -1.43729092639264
 1  0.41079766406641 -0.16563659015902  3.53555888808881
 1  1.45572401640164 -0.43018290229023  2.03281160156016
 1 -0.65605609810981 -2.89040700400040  0.22578239663966
 1 -3.32615476747675  1.62523910921092  3.91615778337834
 1 -1.49188404780478  1.71877050455045  4.08064778937894
 1 -2.31579437873787  2.97000563636364  2.73697585158516
 1 -6.61502539763976  2.80339929202920  1.31761988078808
 1 -7.82177488578858  1.14090041844184  1.31924434703470
 1 -8.01117960926092  2.46884905500550  0.18017701490149
 1  0.96747892919292  2.41439404740474  1.46899690729073
 1  0.44805884598460  2.32615070287029  3.09608996349635
 1  1.50988660696070  0.34683107330733 -0.16888911501150
 1  1.99901816041604 -4.84676019921992 -1.65710377257726
 1  0.36746482688269 -4.31229114251425 -1.19587235693569
 1 -7.48675400040004  0.66360899489949 -3.46715762776278
 1  1.31882482258226 -4.85607991229123  1.32183187078708
 1  2.87765880878088 -5.11438791779178  0.60464440284028
 1  4.04960940474047 -4.25094262276228 -2.07871692429243
 1  5.19451157265727 -2.74461334213421 -1.25145006650665
 1  4.30138723502350 -2.72200425602560 -2.99402972527253
 1  4.82006481358136 -0.27158126692669 -1.77874456265627
 1 -9.16077559975998  0.98338923612361 -0.51893257945795
 1 -10.04850301540154  0.40649502790279 -2.25959570127013
 1  3.76194262566257  2.88369093769377  3.40464864706471
 1  6.60937594319432  1.37729193569357 -1.73495099829983
 1  3.87722873307331  5.49882297429743 -2.18615567056706
 1  3.93254125822582  5.64447151705171 -0.26161924512451
 1  5.53199497099710  5.23288974357436 -1.07243899199920
 1  1.05140267876788 -8.14800604310431  1.28034770787079
 1  7.74663594539454  2.67848515481548 -3.12790155235524
 1  6.48519996429643  4.13967153845385 -2.94064695379538

