%nproc=4
%Mem=2GB
# td=(NStates=1) B3LYP/SVP 

TD

0 1
 8 -5.21832719451945  0.20926504150415 -3.30960379317932
 8  2.97492431853185  3.09607533093309  3.13283954835484
 8  3.20932166996700  0.87172218131813  3.24562652385239
 8  1.41954609050905 -7.41157706210621  1.41711212101210
 8  0.41502825222522 -6.92948385238524 -0.41376530773077
 8  1.89841330063006  3.92321528852885 -0.05269700530053
 7 -2.30054065676568 -0.85653065966597  0.58526505360536
 7 -4.42001590549055  0.78709295789579 -1.25152708480848
 7  1.98915864296430 -0.66224820582058 -0.36259769786979
 7  2.65211648204820  1.79147759785979 -0.52010948594860
 6 -4.89603184948495  1.29192937233723  0.01513196969697
 6 -4.48707331273127  0.34853127082708  1.18028008870887
 6 -3.03535699189919  0.07758264066407  1.44373971407141
 6 -1.99057410171017  0.76563871087109  2.18296909510951
 6 -0.73659754725473  0.12089353085309  1.78526728892889
 6 -0.94999937493749 -0.79157426652665  0.77901460976098
 6 -6.42329842724272  1.33685544144414 -0.25667408120812
 6  0.54156764006401  0.36374429752975  2.48955362416242
 6 -6.63820625232523  1.05453775897590 -1.51023188088809
 6 -0.14143988598860 -1.79769507060706  0.15371254695470
 6  1.20816372757276 -1.77851036363636 -0.26918571177118
 6 -5.44604266236624  0.67391708490849 -2.16576601740174
 6  1.96203207310731 -2.94403797979798 -0.83359867646765
 6 -2.24647138833883  1.80175190719072  3.22631127112711
 6 -7.36713870607061  1.73927946394639  0.86285689958996
 6  3.18695422372237 -2.40312233653365 -1.18650980808081
 6  1.09306607920792  1.74031717391739  2.42120733913391
 6  3.22577911891189 -1.05616505590559 -0.96532016301630
 6  1.50470600850085 -4.41664604420442 -0.80009848374837
 6 -7.97131385228523  0.71204576897690 -2.10671539353935
 6  1.76241793189319 -5.17004324672467  0.47075340184018
 6  4.35440315671567 -3.12999426522652 -1.88405040244024
 6  4.07384632683268 -0.05604394259426 -1.19102929802980
 6  2.49485210061006  1.83920809510951  2.98770867596760
 6  3.82891741764176  1.36103535983598 -1.02072784348435
 6 -9.19705787878788  0.75300314411441 -1.55714447704770
 6  1.10609791819182 -6.53129185868587  0.42909370207021
 6  4.74101816671667  2.50812286728673 -1.39507323382338
 6  3.94200983548355  3.64137829802980 -1.11221079237924
 6  2.72924168016802  3.13908560996100 -0.47301584858486
 6  6.01833983838384  2.35693756515652 -2.01163269206921
 6  4.37370816421642  5.09250076727673 -1.32160483238324
 6  6.85651320272027  3.16678309970997 -2.67047171527153
 1 -4.48253620432043  2.34392943784378  0.44291383338334
 1 -5.21113954305431 -0.64718971007101  1.18646989528953
 1 -4.91661178037804  0.94599882898290  2.16769890439044
 1 -2.79520693109311 -1.29942680018002 -0.17387977927793
 1 -3.42249794309431  0.94926800300030 -1.47202439973997
 1  0.29452603690369  0.03643361686169  3.49734506670667
 1  1.29360780478048 -0.40536042004200  2.24219253965397
 1 -0.41084157665767 -2.95918388168817  0.33765358375838
 1 -3.35108726072607  1.80685727102710  3.46671283888389
 1 -1.81118597799780  1.26735536303630  4.24954467906791
 1 -1.87321012031203  2.83890252605261  3.11962411641164
 1 -6.89576347144714  2.47548650075008  1.74305242404240
 1 -7.40908361666167  0.96407273567357  1.61492391499150
 1 -8.22047053835384  2.03964613471347  0.46834583178318
 1  1.30081226252625  2.27719032703270  1.45699570717072
 1  0.67312135223522  2.51947003480348  3.01560191469147
 1  1.58275389368937  0.35868225842584 -0.15873809990999
 1  1.89653791239124 -4.99397492069207 -1.60444850705071
 1  0.48860694109411 -4.19057897129713 -1.07926069576958
 1 -7.73743906890689  0.31876451045104 -3.17724863686369
 1  1.21666460656066 -4.63032733703370  1.29935962356236
 1  2.79222026492649 -5.12054853385338  0.69635357375737
 1  3.99267371117112 -4.17588511701170 -2.12434148674867
 1  5.08529065056506 -3.30425930673067 -1.16038095959596
 1  4.55573266956696 -2.49237129272927 -2.85807612991299
 1  5.03077588468847 -0.42753686248625 -1.60706739493949
 1 -9.29559908210821  0.78176907410741 -0.51600228642864
 1 -10.02948111321132  0.54612899129913 -2.22311205290529
 1  3.89074550595060  2.98495106370637  3.29091727392739
 1  6.43332833843384  1.38040224672467 -2.29590709390939
 1  4.28578958915892  5.51078417041704 -2.41249830483048
 1  3.83882188628863  5.87953502340234 -0.66264934813481
 1  5.45580735223522  5.14937139173917 -1.14155590369037
 1  1.19247678617862 -8.14161540404040  0.96646631973197
 1  7.88975025682568  2.94836214251425 -3.09448821102110
 1  6.55866731103110  4.13261083238324 -2.85196808590859

