%nproc=4
%Mem=2GB
# td=(NStates=1) B3LYP/SVP 

TD

0 1
 8 -5.48319368116812  0.28347246224622 -3.39419225202520
 8  2.70004683078308  3.17486320972097  3.24430069446945
 8  3.21351208900890  0.98868387748775  3.44129609080908
 8  1.23544768066807 -7.14016992139214  1.64786519631963
 8  0.74569131853185 -7.12226313031303 -0.64822875407541
 8  2.19053251255126  4.09113208020802 -0.14743647924792
 7 -2.34568517121712 -0.94830983758376  0.60943747084708
 7 -4.54050795469547  0.65433968256826 -1.28156008810881
 7  1.88831855895590 -0.66932891389139 -0.51263270137014
 7  2.77787905830583  1.84020247034703 -0.67216469146915
 6 -4.90144239053905  1.20325050445044  0.00905136163616
 6 -4.56097070247025  0.24347076477648  1.11261332203220
 6 -3.00144360056006  0.00420530293029  1.37656299639964
 6 -2.09651469576958  0.60713286028603  2.12033283148315
 6 -0.83891777927793  0.10215165666567  1.77288605080508
 6 -1.04626900190019 -0.90389549864986  0.90410711901190
 6 -6.40908700610061  1.31386314221422 -0.16413482728273
 6  0.47752123542354  0.35604352745275  2.58302297109711
 6 -6.79445187688769  0.80952325752575 -1.32908376607661
 6 -0.14072981498150 -1.82412771387139  0.18083525922592
 6  1.15025793699370 -1.75544805740574 -0.34851364456446
 6 -5.48058611671167  0.56472616581658 -2.21013045384538
 6  1.92770864076408 -2.85788936493649 -0.69986530313031
 6 -2.31361810301030  1.60641237323732  3.24546318631863
 6 -7.15142713491349  1.97181271727173  0.94073468736874
 6  3.11790731903190 -2.34146617091709 -1.27829898699870
 6  1.11022779537954  1.75467861006101  2.34611983038304
 6  3.10903744474447 -0.92478191759176 -1.08123175417542
 6  1.41964750265027 -4.34220860046005 -0.88031650555055
 6 -8.02110883178318  0.69935449984998 -2.01582630463046
 6  1.60376206630663 -5.06296253865387  0.44494082058206
 6  4.39448716511651 -2.98476974277428 -1.76934893229323
 6  4.01824076627663  0.03172483428343 -1.47654784988499
 6  2.41580419581958  1.84534870917092  3.12226213131313
 6  3.86904143004300  1.38046730303030 -1.15324109480948
 6 -9.23622179517952  0.71761960576058 -1.39460822342234
 6  1.06487379577958 -6.54059278877888  0.40927171987199
 6  4.93827789268927  2.37756981198120 -1.47018074457446
 6  4.35309094359436  3.52646680688069 -1.09880945224522
 6  2.95877463346335  3.22705440684068 -0.57899644664466
 6  6.18860686508651  2.18757062846285 -2.10759228802880
 6  4.68580937433743  5.07602912011201 -1.21268394029403
 6  6.98855640704070  3.22987940934093 -2.53194786288629
 1 -4.39414736543654  2.17353239813981  0.16413595559556
 1 -5.09468789788979 -0.73060805190519  0.99931117941794
 1 -4.77277739693969  0.83065729482948  2.01628376287629
 1 -2.72239965036504 -1.42521937943794 -0.15860825212521
 1 -3.39220491379138  0.58507158335834 -1.65084228152815
 1  0.32804938923892  0.28298827232723  3.62437776997700
 1  1.29830827482748 -0.54768465246525  2.52453077347735
 1 -0.39070956345635 -2.91003896719672  0.14717453585359
 1 -3.35622777477748  1.95122170747075  3.36550271787179
 1 -2.06852171157116  1.14350297779778  4.32012173677368
 1 -1.89484228352835  2.61860049584959  3.04745689968997
 1 -6.63377727282728  2.67487643974397  1.43510162896290
 1 -7.37785049334934  1.07290361876188  1.69970239283928
 1 -8.13114160546055  2.10703287338734  0.64778377557756
 1  1.21397357865787  2.02018462646265  1.22246225382538
 1  0.36660070017002  2.52920100790079  2.75766612111211
 1  1.53673929222922  0.30674706490649 -0.41238346444644
 1  2.08823708230823 -4.88136365956596 -1.58998706090609
 1  0.33783186358636 -4.53063297669767 -1.31243401310131
 1 -8.05001032603260  0.66589922392239 -3.22667357935794
 1  1.14924786488649 -4.45662996729673  1.33483317091709
 1  2.65315635853585 -4.93376985598560  0.72590652905290
 1  4.33807825162516 -4.16659418791879 -1.40993004560456
 1  5.25616773827383 -2.64151303210321 -1.02495741724172
 1  4.42751984828483 -2.74755681128113 -2.89176949924992
 1  5.06955976307631 -0.40827493629363 -1.65547223542354
 1 -9.45031455365537  0.56678757595760 -0.32949363556356
 1 -10.09727789288929  0.46206058445845 -1.97839758145815
 1  3.67002343374337  3.20521308990899  3.56276445864586
 1  6.50778578417842  1.19043324982498 -2.31060856405641
 1  4.79234024422442  5.49185227722772 -2.10088714371437
 1  3.90786879097910  5.56263333323332 -0.51211429462946
 1  5.82264403590359  5.22183863846385 -0.75159690779078
 1  1.07082462096210 -8.06987823032303  1.54746441954195
 1  7.82492377417742  2.84989229552955 -3.33159192139214
 1  6.69172061636164  4.22629020032003 -2.34679756885689

