%nproc=4
%Mem=2GB
# td=(NStates=1) B3LYP/SVP 

TD

0 1
 8 -5.29631499329933  0.21232534753475 -3.38374120692069
 8  2.81506833293329  3.12890861426143  3.21643790819082
 8  3.19105984378438  0.88953396249625  3.25218717991799
 8  1.73503763966397 -7.25625152955296  1.42697310711071
 8  0.14248099749975 -6.90033093709371 -0.20281421262126
 8  1.82733619291929  3.92339530653065 -0.07375911151115
 7 -2.36878748144814 -0.92209721632163  0.64425095219522
 7 -4.41249515341534  0.50568481708171 -1.23241517361736
 7  1.89236896399640 -0.74942692369237 -0.35443688178818
 7  2.72773404380438  1.79523797389739 -0.56744421942194
 6 -4.85096734303430  1.20220039943994  0.03141359785979
 6 -4.45615022042204  0.22284870257026  1.24656671737174
 6 -2.97855131133113  0.04492937533753  1.32152749284929
 6 -1.96062110641064  0.60615276227623  2.18816961516152
 6 -0.77942182968297  0.00023146464646  1.82786154835484
 6 -0.97991236623662 -1.00522563166317  0.85050175847585
 6 -6.31964806220622  1.36727848374837 -0.22058047184718
 6  0.61227471077108  0.32423034613461  2.48525319411941
 6 -6.67469990169017  0.95257756295630 -1.51804266196620
 6 -0.21499724172417 -1.92133743484348  0.22491966766677
 6  1.09851276247625 -1.84984749734973 -0.31280007320732
 6 -5.43261131923192  0.47080677387739 -2.19113855465547
 6  1.89369523942394 -2.90639421542154 -0.88969428602860
 6 -2.33775051625163  1.77112884488449  3.17200584058406
 6 -7.19299129132913  1.91591712771277  0.96041665556556
 6  3.13174870317032 -2.34155617991799 -1.29222037913791
 6  1.03422019461946  1.76257940014001  2.51611683008301
 6  3.02869941094109 -0.89219865926593 -1.04800843184318
 6  1.49941547944794 -4.40544492409241 -0.88942741664166
 6 -7.96148286918692  0.96515107950795 -2.16802152415242
 6  1.78020971107111 -5.11478772117212  0.32753908040804
 6  4.25404312071207 -3.06855812161216 -1.87801979937994
 6  4.12370131233123  0.03304496629663 -1.31465166026603
 6  2.49944255965597  1.88937311161116  3.10648055315532
 6  3.86460098599860  1.42971222752275 -1.11286705740574
 6 -9.14838301130113  0.89641748554855 -1.55453421602160
 6  1.13424073247325 -6.41825055455546  0.49589038173817
 6  4.81280534543454  2.55806786178618 -1.48527225372537
 6  4.09994562906291  3.62788694889489 -1.06080565186519
 6  2.68485724172417  3.23464516591659 -0.46892543954395
 6  6.15399340374037  2.27370924232423 -2.08200972977298
 6  4.55309610301030  5.07063858105811 -1.20452312421242
 6  6.90775832723272  3.19531595299530 -2.62498716681668
 1 -4.01695964666467  1.98548359325933  0.28078762076208
 1 -4.85136356545655 -0.89496448754875  1.11535278357836
 1 -4.94799491869187  0.75727995709571  2.05062719721972
 1 -2.80152756315632 -1.54309116661666 -0.04877726902690
 1 -3.52930862416242  0.56994007020702 -1.49987718501850
 1  0.74698128242824 -0.00609063556356  3.41320665286529
 1  1.35289373337334  0.00743085908591  2.00192851325133
 1 -0.81013150565056 -2.69254721802180 -0.10520070167017
 1 -3.34389654165417  1.69945653095309  3.41401756935694
 1 -1.39430428982898  1.66938556605661  3.94494421902190
 1 -2.38503130243024  2.89274791059106  2.53040519451945
 1 -6.88839273437344  2.87989694179418  1.46024414321432
 1 -7.36751946024602  1.12427875627563  1.71000342294230
 1 -8.19201769306931  2.28099026912691  0.56983598079808
 1  0.95287746904690  2.28117072507251  1.43347335493549
 1  0.37286132623262  2.49076716451645  3.15729608410841
 1  1.78396401470147  0.20794718491849 -0.15160738683868
 1  1.72953121172117 -5.00445596879688 -1.71693975617562
 1  0.45526360676068 -4.53058297169717 -0.97524029372937
 1 -7.86432175717572  1.04438707270727 -3.31320223222322
 1  1.56638957905791 -4.41737604190419  1.13148283588359
 1  2.87227827072707 -5.24916139513951  0.59472341074107
 1  3.91660610441044 -4.13610113861386 -2.04783383598360
 1  5.08224034553455 -3.09943882468247 -1.07078199969997
 1  4.84930202650265 -2.74737679327933 -2.87975829812981
 1  5.02677548464847 -0.41458556735674 -1.75437212541254
 1 -9.61833135533553  0.83044394159416 -0.47564825102510
 1 -9.94292245734574  0.86297067546755 -2.24040378207821
 1  3.98209464086409  3.47888045664566  3.18871705390539
 1  6.65022002760276  1.41226543304331 -2.01463896709671
 1  4.37799881008101  5.24139723172317 -2.20569762476248
 1  3.77752575667567  5.69917698759876 -0.62610569376938
 1  5.50596236773677  5.28568502310231 -0.84711645974598
 1  1.21863940244024 -8.12409365186519  1.40139981308131
 1  7.89423070487049  2.93519082538254 -3.02645140734073
 1  6.73545498979898  4.24866243754375 -2.88690157925793

