%nproc=4
%Mem=2GB
# td=(NStates=1) B3LYP/SVP 

TD

0 1
 8 -5.51236659845985  0.38669278427843 -3.29955278807881
 8  2.78389521562156  3.02642836623662  3.07833409780978
 8  3.21844258205821  0.87186219531953  3.13504546574657
 8  1.39050318621862 -7.04125002940294  1.65832624242424
 8  0.55808255765577 -7.05129603360336 -0.47369130033003
 8  2.04692815211521  4.02540550755076 -0.15826756235624
 7 -2.32543314601460 -0.90052505910591  0.48349487658766
 7 -4.59218312221222  0.71998624722472 -1.21493342544254
 7  1.96513624072407 -0.66837881888189 -0.33284472257226
 7  2.76177744814481  1.83583203330333 -0.54392186718672
 6 -4.93197544384438  1.29861004040404 -0.03474301780178
 6 -4.54903950935094  0.20552697039704  1.19044110481048
 6 -2.94233768996900  0.01116599899990  1.25685102520252
 6 -2.06595163946395  0.55582772977298  2.06908770697070
 6 -0.77395128262826 -0.00515907440744  1.75351411361136
 6 -0.93262763776378 -0.90711582068207  0.74020072837284
 6 -6.46467256465647  1.36566832273227 -0.09626804060406
 6  0.58937242054205  0.22283020612061  2.41250591939194
 6 -6.89230166186619  1.02449475467547 -1.43016387408741
 6 -0.12632837483748 -1.91815711681168  0.18994617031703
 6  1.24236714791479 -1.80126263886389 -0.29338813201320
 6 -5.58184624272427  0.60353004620462 -2.12363180398040
 6  2.05089095899590 -2.93140671667167 -0.76361167776778
 6 -2.25381212241224  1.57523925592559  3.12386102610261
 6 -7.25124711691169  1.87410294629463  0.97712832673267
 6  3.26967249554956 -2.40971299559956 -1.15468662576258
 6  0.97044381698170  1.71477461966197  2.34597981638164
 6  3.23746028702870 -0.92136157555756 -0.84091772277228
 6  1.54129966786679 -4.33965834543454 -0.89623809770977
 6 -8.14338105900590  0.89362392679268 -2.10003472547255
 6  1.80946263636364 -5.16303254565457  0.46726305280528
 6  4.39817753415342 -3.23778504430443 -1.79486148354835
 6  4.17090603280328  0.02294395619562 -1.17258745384538
 6  2.44310692609261  1.80662483678368  2.85088499359936
 6  3.88400292619262  1.36576583288329 -0.96198196889689
 6 -9.37105527852785  0.81148899269927 -1.44120288288829
 6  1.17854516291629 -6.51986071557156  0.45138593129313
 6  4.85002906780678  2.43037509250925 -1.39695342184218
 6  4.24309994449445  3.70190435063506 -1.17160673197320
 6  2.84575333133313  3.19962166356636 -0.55310385738574
 6  6.19383738813881  2.25960783218322 -2.00351187998800
 6  4.50032082548255  5.15142665986599 -1.26744941684168
 6  6.88750630203020  3.24411083248325 -2.54983965206521
 1 -4.62536048674867  2.27711275617562  0.25440498249825
 1 -5.14422285138514 -0.70838582968297  0.95627687598760
 1 -5.13927404660466  0.65388961806181  2.16082821732173
 1 -2.74355176557656 -1.37234409190919 -0.41872426372637
 1 -3.57252294559456  0.87027010321032 -1.73081027832783
 1  0.37512409670967 -0.14385441194119  3.43194852705270
 1  1.24683312731273 -0.52380226422642  2.05609392979298
 1 -0.65396588908891 -2.90270823412341  0.07268708710871
 1 -3.35075722772277  1.77041362666267  3.16291245884588
 1 -1.65415027442744  1.28473710121012  3.95945567016702
 1 -1.86162896219622  2.65808444424442  2.88747090109011
 1 -6.85222911801180  2.78366731883188  1.45335345414541
 1 -7.42130483878388  1.26722305070507  1.88862128472847
 1 -8.20479897119712  2.18991116121612  0.71323032023202
 1  1.14844702600260  2.04515712371237  1.37522753035304
 1  0.46795083518352  2.52025011281128  3.05079543404341
 1  1.50710632893289  0.22003839403940 -0.28288051415142
 1  2.07175543414341 -4.89017454065407 -1.58607666986699
 1  0.56511459185919 -4.39346926032603 -0.93873664336434
 1 -7.95232055705571  0.91919455345535 -3.32019293129313
 1  1.37555049514952 -4.64928923322332  1.30736042364236
 1  2.96391743464346 -5.37605408440844  0.40255419381938
 1  4.07800224402440 -4.32113964246425 -1.85804485708571
 1  5.28263038453845 -3.22612149294929 -1.29485440694069
 1  4.55962305860586 -2.63410546614662 -2.64444476677668
 1  5.28173098019802 -0.20597470627063 -1.26787347554756
 1 -9.21321084328433  0.54566546374637 -0.32674336053605
 1 -10.23255142024203  1.10189456785679 -2.27407714941494
 1  3.59763619501950  2.94430699929993  3.61339952215222
 1  6.58070307590759  1.25670987748775 -1.65431293449345
 1  4.46058706890689  5.47079017101710 -2.37307436243624
 1  3.73582158625863  5.87169423932393 -0.69743282648265
 1  5.40235200670067  5.41458791339134 -0.69371111921192
 1  0.63501103960396 -7.76720796329633  1.76970664376438
 1  7.87145842764276  3.12985029132913 -3.10708947114711
 1  6.28292973727373  4.33063063436344 -2.94713760286029

