%nproc=4
%Mem=2GB
# td=(NStates=1) B3LYP/SVP 

TD

0 1
 8 -5.27896325812581  0.12921703670367 -3.22647548034803
 8  2.82605943204320  3.24501022442244  3.17840410481048
 8  3.34720545834583  1.08288329742974  3.31653361456146
 8  1.72500663656366 -7.26979288368837  1.30853126292629
 8  0.18157490689069 -6.75602650665067 -0.40129406060606
 8  2.09446290559056  4.05180814781478  0.03415167956796
 7 -2.43460406310631 -0.83930893749375  0.57335386248625
 7 -4.43237714161416  0.74752900150015 -1.16764869696970
 7  1.88731845894589 -0.70116209720972 -0.47530896899690
 7  2.71192246264626  1.88243669376938 -0.47068454345435
 6 -4.90891313761376  1.29467964736474  0.06737719421942
 6 -4.42844745014501  0.39163558125813  1.38560062076208
 6 -2.96728018421842  0.08386326872687  1.45044038413841
 6 -1.97151219551955  0.71467361436144  2.12623342154215
 6 -0.81626551405141  0.14564600610061  1.68726748894889
 6 -1.00248462346235 -0.91467657675768  0.79741644994499
 6 -6.43233933133313  1.30820257615762 -0.13709212301230
 6  0.53941742504250  0.36667459055906  2.45616028482848
 6 -6.71421385308531  0.74322662786279 -1.42984384208421
 6 -0.19455519751975 -1.86989229032903  0.09598677437744
 6  1.09042195339534 -1.85455796839684 -0.25422421562156
 6 -5.40527858595860  0.50298999219922 -2.05723516431643
 6  1.90773664356436 -2.97984156015602 -0.86086140274027
 6 -2.31819856105611  1.71903363536354  3.06954559455946
 6 -7.47903989618962  1.84598013401340  0.81633224712471
 6  3.10547607590759 -2.46069809410941 -1.23612476957696
 6  1.08789556215622  1.70198334053405  2.44841005940594
 6  3.08269481048105 -1.02402184158416 -0.96682031303130
 6  1.32986852475248 -4.27872225182518 -0.92732120602060
 6 -7.94308102900290  0.58704326872687 -2.17214193619362
 6  1.70752244234423 -5.13075931833183  0.38944527102710
 6  4.27970568696870 -3.06354762056206 -1.90243224062406
 6  4.08092703490349 -0.01181952015202 -1.24020421552155
 6  2.53921653705371  1.90572474677468  2.97491739683968
 6  3.85773029892989  1.34032328862886 -0.99386515721572
 6 -9.23156132913291  0.64367221102110 -1.71891065366537
 6  1.10134744314431 -6.49772850235024  0.37779857255726
 6  4.81631569646965  2.44284633963396 -1.43551727822782
 6  4.17286292079208  3.63891805200520 -1.09674924622462
 6  2.92156091209121  3.31245294669467 -0.38111665866587
 6  6.14390239463946  2.13866573797380 -1.94282581138114
 6  4.62418321172117  5.10511202840284 -1.19303197509751
 6  6.91382893429343  2.97351377277728 -2.67507217531753
 1 -4.58299625032503  2.33508855375538  0.11509105110511
 1 -5.14794322342234 -0.49234422552255  1.19620086838684
 1 -4.79792991219122  0.72276650575058  2.26435857035704
 1 -2.74496190659066 -1.39112597009701 -0.19976236753675
 1 -3.66287198049805  0.91687476367637 -1.50177737503750
 1  0.24034061836184 -0.00084011051105  3.59252458465847
 1  1.30594903890389 -0.38633851785179  2.04116243664366
 1 -0.43105359785979 -3.00477844114411 -0.05876605820582
 1 -3.32264441644164  1.87971455675568  3.47991415901590
 1 -1.63735859525953  1.40711933943394  4.04293401800180
 1 -1.92566536583658  2.80300893669367  2.74481663566357
 1 -6.85377927302730  2.44922387448745  1.52297041584158
 1 -7.61963467176718  1.10378670707071  1.40239266186619
 1 -8.31650014131413  2.35674784488449  0.37876687388739
 1  0.69667184848485  2.34028663666367  1.31246125372537
 1  0.48039207930793  2.33115120292029  3.31619197369737
 1  1.74694031233123  0.45513190339034 -0.24128635473547
 1  1.75524378297830 -4.98717424062406 -1.71461952415241
 1  0.21490957135714 -4.45681559495950 -1.01656442614261
 1 -7.79080440544054  0.37670030403040 -3.27278819081908
 1  1.35352829292929 -4.64435874017402  1.44963465106511
 1  2.89083012591259 -5.21518799779978  0.33399733813381
 1  4.22388683248325 -4.17170469896990 -2.22645169776978
 1  5.18597071857186 -3.07150603140314 -1.37321224272427
 1  4.28893598989899 -2.55510756635664 -2.79518984128413
 1  4.94552735983598 -0.34886899569957 -1.85943263146315
 1 -9.38341786398640  0.80797169436944 -0.48112879907991
 1 -10.05715388048805  0.20847522592259 -2.31282102380238
 1  3.70193662506251  3.20053262186219  3.76726490869087
 1  6.39008401400140  1.04597880438044 -1.80695819901990
 1  4.25161617181718  5.19547263926393 -2.30351740674067
 1  4.12198020212021  5.75171224112411 -0.31670475367537
 1  5.88197996949695  5.12456891149115 -1.51491323942394
 1  1.50857839633963 -8.21524276677668  1.54201387448745
 1  7.80648192999300  2.74200150645064 -3.31113987618762
 1  6.19207065136514  3.88051562286229 -2.99789267836784

