%nproc=4
%Mem=2GB
# td=(NStates=1) B3LYP/SVP 

TD

0 1
 8 -5.28018338013801  0.29655377037704 -3.34301713451345
 8  2.94088091419142  2.99938566196620  3.19907617201720
 8  3.17046778457846  0.71915692479248  3.27110907210721
 8  1.51974611051105 -7.11631753615362  1.77961837163716
 8  0.63403015241524 -7.14024492849285 -0.29376330753075
 8  1.77852131143114  3.94097706470647 -0.21649338493849
 7 -2.34063466616662 -0.92933794039404  0.55574210131013
 7 -4.38476238013801  0.60281453005301 -1.22305423752375
 7  1.95898562566257 -0.70236221722172 -0.35920735883588
 7  2.70153142354235  1.80165861596160 -0.51602907790779
 6 -4.79259150545055  1.21826200560056  0.01286174267427
 6 -4.40836544194419  0.31743816151615  1.18097015771577
 6 -3.01306476267627  0.02710759315932  1.35359069916992
 6 -1.96762180648065  0.61805395239524  2.16038683688369
 6 -0.74063795129513  0.02780422192219  1.89825858805881
 6 -1.03606798179818 -0.93169827892789  0.78894560286029
 6 -6.27397349474947  1.44247600350035 -0.21127954175418
 6  0.46379986328633  0.34165208830883  2.58654332313231
 6 -6.66023845554555  1.01880418561856 -1.41275213291329
 6 -0.13507924992499 -1.90608590969097  0.18107528322832
 6  1.15283819501950 -1.90539305190519 -0.32933172637264
 6 -5.44788284638464  0.63550324352435 -2.17424686548655
 6  1.85903177307731 -2.95242881888189 -0.99081439803980
 6 -2.32412915411541  1.69869160116012  3.19991863186319
 6 -7.27482947514751  1.96286182218222  0.91350196409641
 6  3.09191471977198 -2.49316134043404 -1.30847200430043
 6  0.99366613921392  1.75267841004100  2.63911913031303
 6  3.07389393039304 -0.94688412781278 -1.04516814781478
 6  1.51017655555556 -4.44402878247825 -0.96365483938394
 6 -7.88179490039004  1.05390995539554 -2.14329905190519
 6  1.71767345744574 -5.07393363576358  0.42412873937394
 6  4.30364808120812 -3.11835310111011 -2.01113311071107
 6  4.14336327852785  0.03090475227523 -1.39440963606361
 6  2.50917353275328  1.77044121842184  3.03219312441244
 6  3.78065259115912  1.36246550285029 -1.07402317301730
 6 -9.12140031303130  0.85842368616862 -1.59119788238824
 6  1.28014532293229 -6.47546627612761  0.56313710641064
 6  4.65036910181018  2.52140419541954 -1.53710743724372
 6  4.06839247374737  3.64751891209121 -1.16840641194119
 6  2.70558931493149  3.25279698109811 -0.57133568056806
 6  5.97818582298230  2.29716158755876 -2.20291181998200
 6  4.39853064646465  5.16119763696370 -1.17888055995600
 6  6.87201475287529  3.31749817121712 -2.39684435253525
 1 -4.49712766346635  2.37517256215622  0.04910445244524
 1 -4.81160959005901 -0.60054504560456  1.22736398469847
 1 -4.81486160536054  0.49486371547155  2.14556669116912
 1 -2.77510492089209 -1.35943280078008 -0.32939533083308
 1 -3.41828752205220  0.69332240844084 -1.61652885018502
 1  0.33184976927693 -0.02106213271327  3.69078441064106
 1  1.27663610761076 -0.47044692869287  2.41139946034604
 1 -0.82609310181018 -2.88799676297630 -0.00318049964997
 1 -3.33589574157416  1.72672925822582  3.57069323692369
 1 -1.73466832623262  1.50568919641964  4.13030275487549
 1 -2.37044984428443  2.67089572537254  2.54753690769077
 1 -6.83410730583058  2.88507745984599  1.39141726052605
 1 -7.67021973027303  1.21605793419342  1.69057147974797
 1 -8.18943743504350  2.32326449654966  0.47565656285628
 1  0.88072025332533  2.19347195519552  1.62624263186319
 1  0.47528156825683  2.53591167896790  3.29281963646365
 1  1.51386700500050  0.22018840904090 -0.33234546064606
 1  1.98019627822782 -4.97836335953595 -1.72079014121412
 1  0.59467754815482 -4.47204711811181 -1.23494626432643
 1 -7.62911823682368  1.08000063406341 -3.31871278327833
 1  1.22726566666667 -4.49312361666167  1.28867855545555
 1  2.79571061396140 -4.97870434943494  0.76502044044404
 1  3.92249669346935 -4.23178070657066 -2.00331938453845
 1  5.25695781728173 -3.10945982678268 -1.34888981048105
 1  4.66267336363636 -2.83308536413641 -3.05572589488949
 1  4.97419022612261 -0.49525363416342 -2.01632832103210
 1 -9.26730625282528  0.80769166636664 -0.45650633683368
 1 -10.09267743284328  0.97275165356536 -2.27043678537854
 1  3.98263469486949  2.97107967656766  3.26583476567657
 1  6.02549755535554  1.29792399889989 -2.59010651385138
 1  4.89355036523652  5.40886397839784 -2.26460351535154
 1  3.46411441554155  5.71749881978198 -0.85218830203020
 1  5.33178494999500  5.30321677627763 -0.25175692379238
 1  1.21513905240524 -7.96974821732173  1.87962763586359
 1  7.77460874267427  3.05459276557656 -3.09654841704170
 1  6.85752719701970  4.48280585188519 -2.18491138023802

