%nproc=4
%Mem=2GB
# td=(NStates=1) B3LYP/SVP 

TD

0 1
 8 -5.28212357415742  0.38694280928093 -3.32902573537354
 8  2.91608843494349  3.13475919931993  3.31069733413341
 8  3.15351608940894  0.93499850895089  3.54390635183518
 8  1.19271340724072 -7.26433233763376  1.43009341914191
 8  0.62225897529753 -6.94502540654065 -0.78059199039904
 8  2.09037249654965  4.11972493949395 -0.23535527112711
 7 -2.36145674837484 -0.80960596719672  0.58312483958396
 7 -4.37465136903690  0.66929117771777 -1.25312724482448
 7  1.96296602370237 -0.68368034903490 -0.29181061916192
 7  2.81757302770277  1.89775822592259 -0.49824729972997
 6 -4.91685393169317  1.16778695809581  0.04112456895690
 6 -4.59378398379838  0.29261567926793  1.16356841754175
 6 -3.07210066626663  0.09556443884388  1.46168150825082
 6 -2.08622366666667  0.70049219621962  2.16378717691769
 6 -0.80008389588959  0.19101054255426  1.86221498369837
 6 -1.00982535753575 -0.73057816691669  0.79801650995100
 6 -6.44091018841884  1.34736649254925 -0.22556096989699
 6  0.48460194349435  0.42543046614661  2.54888955775578
 6 -6.65733816551655  0.87950025522552 -1.40961181888189
 6 -0.16291203320332 -1.69932523362336  0.16615379107911
 6  1.02891580278028 -1.80408292089209 -0.26024481768177
 6 -5.47336539463946  0.55152484568457 -2.10843028382838
 6  1.88956482638264 -2.83122669866987 -0.73378869546955
 6 -2.36017275847585  1.67051878387839  3.25963460346035
 6 -7.29888188038804  1.68097363336334  0.93511412531253
 6  3.14684021232123 -2.41663368766877 -1.16799795689569
 6  1.06623339593959  1.85725886808681  2.52886810521052
 6  3.16502304330433 -0.99276871627163 -0.92274590559056
 6  1.33808934683468 -4.27239161876188 -0.82784125802580
 6 -7.98423514441444  0.57834239863986 -2.06408113011301
 6  1.73348503860386 -5.08803504590459  0.39030535703570
 6  4.26182389878988 -3.22734400020002 -1.81367336473647
 6  4.04978392059206  0.00361202300230 -1.28629882498250
 6  2.49317193259326  1.89941411571157  3.09840974607461
 6  3.90836536243624  1.37992724902490 -1.16985275597560
 6 -9.18646681968197  0.34036187998800 -1.44087284988499
 6  1.08456576497650 -6.56829555905591  0.26294708740874
 6  4.85414947984798  2.51142319731973 -1.46522024852485
 6  4.28007364186419  3.67097125732573 -1.13727329862986
 6  2.89415817181718  3.28335003640364 -0.58012655965597
 6  6.14427243164316  2.16646851825183 -2.08620014881488
 6  4.61348214161416  5.08375989318932 -1.55109778167817
 6  7.05357290869087  2.92374879627963 -2.66520118821882
 1 -4.61850980168017  2.14917996289629  0.12224176617662
 1 -5.00443887298730 -0.77394238533853  0.63784503280328
 1 -5.08633875307531  0.54748897799780  1.94935707020702
 1 -2.73274068446845 -1.46218307580758 -0.11371376267627
 1 -3.57564325762576  0.99341241744174 -1.50271746904690
 1  0.33023960826083  0.11184115761576  3.46584191639164
 1  1.27204564856486 -0.24652453645365  2.16381470187019
 1 -0.85038553105311 -2.61150911421142  0.13934375277528
 1 -3.36962911491149  2.02871945724572  3.49949611721172
 1 -1.97443230263026  1.31716034353435  4.23665338993899
 1 -1.81077387668767  2.72109074487449  3.02736489048905
 1 -6.83726762186219  2.59413836593659  1.53992211101110
 1 -7.52636534483448  0.73453978237824  1.48440086268627
 1 -8.25629412071207  2.17233940404040  0.67081607880788
 1  1.22159434073407  2.32574518251825  1.44386439403940
 1  0.46447048714872  2.45918400620062  3.10865121962196
 1  1.71625724402440  0.29245563576358 -0.29937216331633
 1  1.59933819241924 -4.70053557675768 -1.79093715591559
 1  0.28542662306231 -4.28514842824282 -0.97535030473047
 1 -7.77532285728573  0.31026366036604 -3.12143305530553
 1  0.89423236333633 -4.61272557685769  1.04537422502250
 1  2.66926796969697 -4.98234471347135  0.69368330673067
 1  4.08951339513951 -4.31461899039904 -1.74974402700270
 1  5.15977809930993 -3.06851573237324 -1.10942586408641
 1  4.60627772407241 -2.93260531613161 -2.93795411771177
 1  4.90427323442344 -0.54279838863886 -1.73186987518752
 1 -8.99772929512951  0.39187008420842 -0.30408109430943
 1 -10.07800596569657 -0.13927954955496 -2.10236997869787
 1  3.68938536993699  3.09992256085609  3.73691187338734
 1  6.40748575417542  1.09802400890089 -1.97602510571057
 1  4.75857686788679  4.97615070707071 -2.81924897989799
 1  3.89428743284328  5.82900997089709 -1.25800888408841
 1  5.69414118561856  5.33830028462846 -1.08976072417242
 1  1.03055059355936 -8.18916015851585  1.23485315841584
 1  8.18652993479348  2.74829213551355 -3.00045880808081
 1  6.74347579187919  4.24635220652065 -2.74117700680068

