%nproc=4
%Mem=2GB
# td=(NStates=1) B3LYP/SVP 

TD

0 1
 8 -5.36725208700870  0.39015313031303 -3.41725455825583
 8  2.75616244234423  3.14201992539254  3.14753101750175
 8  3.12444318211821  0.96346135523552  3.68709067026703
 8  1.72708684458446 -7.21004690909091  1.40146055585559
 8  0.40685743514351 -6.89697060106011 -0.34986891809181
 8  1.90720417971797  4.12954592159216 -0.23693542914291
 7 -2.36804740744074 -0.89860486708671  0.52280880798080
 7 -4.45708961286129  0.72536678527853 -1.31474340644064
 7  1.97359708680868 -0.78281026202620 -0.37858929702970
 7  2.69884115451545  1.86254470457046 -0.52846032103210
 6 -4.78220046634663  1.24732491189119 -0.00114965846585
 6 -4.48674327972797  0.28191460916092  1.14964702540254
 6 -3.01478493469347  0.05529041144114  1.25628096819682
 6 -2.10793583788379  0.47571971897190  2.22538333653365
 6 -0.74329821732173 -0.00997955645565  1.83872263446345
 6 -0.97982235723572 -0.86648175727573  0.80672738103810
 6 -6.31918801620162  1.37407916381638 -0.14959337313731
 6  0.46059954325433  0.27228515161516  2.51390605940594
 6 -6.72572500420042  0.93359566476648 -1.43572443014301
 6 -0.19136487848785 -1.87230253135314  0.26009318501850
 6  1.10821373257326 -1.94331684428443 -0.23942273547355
 6 -5.45026308440844  0.63312300550055 -2.21398083888389
 6  1.93845971587159 -2.96165974197420 -0.86278159475948
 6 -2.39436617781778  1.52569430143014  3.25342398239824
 6 -7.22919491169117  1.75911144714471  0.99446005990599
 6  3.17001252955296 -2.47527955225523 -1.18422958005801
 6  1.16402317491749  1.70746388858886  2.44562978137814
 6  3.12240878187819 -0.95897533693369 -0.96328995999600
 6  1.54328986688669 -4.37387176677668 -0.92567104100410
 6 -7.99200592149215  0.93937850225022 -2.06492121412141
 6  1.79914160426043 -5.05866210861086  0.45437176367637
 6  4.32659037543754 -3.14288555435544 -1.81496349374937
 6  4.08770771297130  0.03646530833083 -1.24692488758876
 6  2.42724533993399  1.83603777807781  3.10597050215021
 6  3.78568309420942  1.37426668296830 -1.02096786748675
 6 -9.16361453445345  0.85161300510051 -1.44504326692669
 6  1.19337664606461 -6.48160689018902  0.44466525922592
 6  4.69642370727073  2.48566062106211 -1.58012173867387
 6  4.13132876737674  3.68793295349535 -1.23094266556656
 6  2.79818857485749  3.26648835023502 -0.54092263926393
 6  6.04126213061306  2.21822369376938 -2.07659918871887
 6  4.59542033543354  5.06824834203420 -1.42814548644864
 6  6.94083163456346  3.09455587698770 -2.69906457455746
 1 -4.27256520722072  2.32699774467447  0.23417295929593
 1 -4.75110353945395 -0.63968895999600  0.93738498679868
 1 -4.99034915411541  0.64146837593759  2.07396953145315
 1 -2.76487389778978 -1.37490434793479 -0.04730712201220
 1 -3.56225191849185  1.12671574777478 -1.45682287958796
 1  0.25904248854885 -0.02828285478548  3.66007133933393
 1  1.12523096709671 -0.49709959395940  1.98527684808481
 1 -0.73244373687369 -2.74823278657866 -0.24219440104010
 1 -3.35594774677468  1.41211779707971  3.47908407600760
 1 -1.82180704010401  1.26909553705371  4.25179490409041
 1 -2.09956275557556  2.62677131293129  2.86742889688969
 1 -6.71294518961896  2.52131108320832  1.65402352115212
 1 -7.75668837713771  0.90524685308531  1.51008343094309
 1 -8.00454894619462  2.40944311441144  0.64546354355436
 1  1.31242342364236  2.00445305330533  1.40446045364536
 1  0.39007304740474  2.48805689348935  2.97189754425443
 1  1.66074169246925  0.08469485968597 -0.19654188028803
 1  2.00104836343634 -4.88336385958596 -1.73480154235423
 1  0.56726480688069 -4.32945285868587 -1.15535830553055
 1 -7.99873519851985  0.92955558955896 -3.27181809380938
 1  1.23715665576558 -4.52129643394339  1.14974466206621
 1  2.74807585048505 -5.35695217421742  0.53230716911691
 1  4.12696714051405 -4.30696822532253 -1.77064611721172
 1  5.26625874737474 -2.97640652145215 -1.19437435893589
 1  4.38340543684368 -2.86343839943994 -2.97586790909091
 1  5.12849565666567 -0.51116522532253 -1.86644333253325
 1 -9.12669219141914  0.77849874707471 -0.49770045624562
 1 -10.12521068616862  1.08590296869687 -2.18083782548255
 1  3.74386081748175  3.16719928852885  3.58190637283728
 1  6.37862286788679  1.27750195669567 -1.91232873607361
 1  4.73448445864586  5.15273836583658 -2.66414346934693
 1  3.89204720882088  5.83810087998800 -0.87671075427543
 1  5.69372114361436  5.22681913651365 -0.76730847894789
 1  0.93745128362836 -7.93007424992499  1.56159583268327
 1  7.99435071687169  2.60941824812481 -2.79954871707171
 1  6.58102954725473  4.07351492279228 -2.92591548064807

