%nproc=4
%Mem=2GB
# td=(NStates=1) B3LYP/SVP 

TD

0 1
 8 -5.48765412721272  0.23660777577758 -3.40701353415342
 8  2.84899172527253  3.26478220162016  3.25396166056606
 8  3.20924166196620  1.00281529062906  3.39629159035904
 8  1.53429756565657 -7.28942484688469  1.36031644144414
 8  0.46880362976298 -6.91615251925193 -0.59505343654365
 8  2.10160361966197  4.01043401040104 -0.14009574517452
 7 -2.39738034073407 -0.84949995659566  0.67498402550255
 7 -4.45103900780078  0.66795104370437 -1.30702263436344
 7  1.88165789288929 -0.69679166016602 -0.38690012811281
 7  2.73612488288829  1.77482593269327 -0.53205068006801
 6 -4.80159240554055  1.21327150655065 -0.05681522502250
 6 -4.46464106950695  0.34743116081608  1.19520158085809
 6 -3.05187864406441  0.03219810221022  1.36766210631063
 6 -2.00240528482848  0.69736188318832  2.15945674387439
 6 -0.81108499599960  0.17765920742074  1.76077483968397
 6 -1.04650902590259 -0.86985209430943  0.76972368066807
 6 -6.38773487088709  1.27741949784979 -0.14824323812381
 6  0.47473095639564  0.41682960606061  2.33790845964596
 6 -6.83208564026403  0.87850015521552 -1.41115197289729
 6 -0.10766650865087 -1.88587388848885  0.22695987168717
 6  1.12644555575558 -1.77967047964796 -0.36341513471347
 6 -5.57013507160716  0.46352604580458 -2.25381482228223
 6  1.95625149504950 -2.92816639263926 -0.84729004560456
 6 -2.26562330353035  1.64420615261526  3.29710835083508
 6 -7.24758675087509  1.79067460346035  0.99445005890589
 6  3.18384391269127 -2.40150217451745 -1.18808996609661
 6  1.11477825042504  1.85129827202720  2.38914413281328
 6  3.06777331833183 -0.98390783018302 -0.96397002800280
 6  1.46042158005801 -4.27107148674868 -0.81089956385639
 6 -8.05245196609661  0.74677924232423 -1.97583230523052
 6  1.69808149824983 -5.10084632703270  0.47750407690769
 6  4.35477319371937 -3.14486575237524 -1.76937893529353
 6  4.12373131533153 -0.10031837003700 -1.21891208630863
 6  2.48186080148015  1.92664683898390  3.03748365346535
 6  3.88672319821982  1.34204346064606 -1.02678844954495
 6 -9.33822199519952  0.75078292209221 -1.51191995459546
 6  1.14544185258526 -6.50622935243524  0.31091188388839
 6  4.83365743064306  2.47759981498150 -1.37922164866487
 6  4.15049068356836  3.58979313951395 -1.18211778307831
 6  2.85773452945295  3.19376107750775 -0.54807335433543
 6  6.16269427382738  2.22702457385739 -2.00081160996100
 6  4.52509330273027  4.97962948014802 -1.49217188908891
 6  7.05637318871887  3.15897231863186 -2.36696136423642
 1 -4.30133808450845  2.27884292919292  0.19031857385739
 1 -4.96368479757976 -0.57664265536554  1.14834608290829
 1 -4.97722784198420  0.76068029712971  1.96269840434043
 1 -2.66259366976698 -1.41944880238024 -0.05946833813381
 1 -3.42568826212621  0.75552862906291 -1.61527872517252
 1  0.70172675697570  0.35558553205321  3.34601993419342
 1  1.19879832383238 -0.19958984298430  1.92900122052205
 1 -0.76577707020702 -2.79787775107511  0.16887670607061
 1 -3.36272842484248  1.31567815311531  3.97004317191719
 1 -1.24519937933793  1.62024065156516  4.07184690929093
 1 -2.30212301160116  2.66581521732173  2.86669882388239
 1 -6.50542443754375  2.15666461856186  1.85616373517352
 1 -7.70606331463146  1.03386971537154  1.51121354395440
 1 -8.14598308960896  2.60262243234323  0.79150814801480
 1  1.07243942524252  2.32494510251025  1.50076008360836
 1  0.54120816091609  2.65086317411741  2.73754410891089
 1  1.55572119041904  0.34514090429043 -0.45694792089209
 1  1.94095235383538 -4.88788431163116 -1.44570263246325
 1  0.44035211561156 -4.31553146654665 -1.23761653135313
 1 -8.03887921292129  0.92027466146615 -3.18218913091309
 1  1.34306724682468 -4.59925422972297  1.31352103970397
 1  2.86266730963096 -4.99427590659066  0.69141307970797
 1  4.10962540634063 -4.15916344484448 -1.55069412201220
 1  5.11682380388039 -3.00043892469247 -1.11411633313331
 1  4.59698679497950 -3.04651670727073 -2.88104842714271
 1  5.04938774587459 -0.42299640844084 -1.56451313951395
 1 -9.55022454465447  0.62877377457746 -0.39118980518052
 1 -10.07327549264927  0.93121750015002 -2.37451719341934
 1  3.74797122852285  3.19160172877288  3.64715289748975
 1  6.25889089468947  1.07498170467047 -2.36444394759476
 1  4.54169517971797  5.33719681168117 -2.54223127812781
 1  3.81285929002900  5.71809887978798 -0.83333641684168
 1  5.30280205170517  5.36300275487549 -1.16437818591859
 1  1.14145168366837 -8.04513575607561  1.21892156525653
 1  7.93028431023102  2.72639994629463 -2.89565832803280
 1  7.14993643794379  4.45059263056306 -2.07434032313231

