%nproc=4
%Mem=2GB
# td=(NStates=1) B3LYP/SVP 

TD

0 1
 8 -5.18637399919992  0.24410852585258 -3.38340117291729
 8  3.00898772487249  3.07886360976098  3.13290955535554
 8  3.26737747554755  0.87115212431243  3.31111307250725
 8  1.54365850175017 -7.23484938933893  1.53128353815382
 8  0.43463021242124 -7.08871977597760 -0.38104203540354
 8  1.79793325262526  3.96612957995800 -0.01297303290329
 7 -2.37588819151915 -1.03004801140114  0.63941046814682
 7 -4.33931783568357  0.70683493209321 -1.23126505860586
 7  1.91080080718072 -0.76626860786079 -0.31584302240224
 7  2.63090436083608  1.86676512661266 -0.52197967296730
 6 -4.87357960426043  1.25937611701170  0.00273072957296
 6 -4.38234283968397  0.32148856655666  1.24692675337534
 6 -2.96475993219322  0.03717860026003  1.34824016411641
 6 -1.96310135443544  0.63748589558956  2.13580437863786
 6 -0.67953184068407  0.10240168166817  1.87471623382338
 6 -1.01676605160516 -1.00053516261626  0.88710541884188
 6 -6.29808590599060  1.36725848174817 -0.23063147694769
 6  0.54991847514751  0.33688161126113  2.62923759255926
 6 -6.61725415711571  0.99648195339534 -1.48530938863886
 6 -0.20269601160116 -1.95943124422442  0.22598977467747
 6  1.11506441764176 -1.91276378897890 -0.23241203440344
 6 -5.32406046414641  0.60657035023502 -2.13516295709571
 6  1.91928779867987 -2.99014259025903 -0.89837515411541
 6 -2.17522426362636  1.72325405740574  3.07711635163516
 6 -7.22271426362636  1.92149768576858  0.82721333523352
 6  3.11859738803880 -2.50415243954395 -1.26565772287229
 6  1.13503027562756  1.80733387558756  2.69277449584958
 6  3.09909645064506 -1.06369580898090 -0.96127975897590
 6  1.51518705660566 -4.47495187478748 -0.87659613351335
 6 -7.89546626752675  0.92879744414441 -2.20965568756876
 6  1.76898858895890 -5.12977922032203  0.40130645714571
 6  4.26101381778178 -3.06165743154315 -1.90372236963696
 6  3.88877781998200  0.01465312711271 -1.29596979207921
 6  2.53777639303930  1.86539071337134  3.08972887798780
 6  3.70869539543954  1.39779903620362 -1.07644341504150
 6 -9.13648182118212  0.89398724252425 -1.66948571117112
 6  1.14577188558856 -6.49735846534653  0.44492528522852
 6  4.66019008390839  2.53284533953395 -1.47090081658166
 6  3.99400503500350  3.70752491269127 -1.10720029132913
 6  2.64763351935194  3.24923662506251 -0.50793934093409
 6  5.87249525392539  2.30650252165217 -2.23910543934393
 6  4.30201099449945  5.13721523872387 -1.37945061696170
 6  6.84965251665167  3.33906032743274 -2.52168683678368
 1 -4.30481843254325  2.25652069696970  0.28115765776578
 1 -4.86858528762876 -0.76705169626963  1.09461070937094
 1 -4.85350546974697  0.71805603470347  2.19213134763476
 1 -2.56558396879688 -1.60070692819282 -0.18905129642964
 1 -3.44808050135014  0.81841491769177 -1.63265046234623
 1  0.41606819111911 -0.05289531603160  3.64040937313731
 1  1.38591703570357 -0.28717860186019  2.27405572597260
 1 -0.78035852835284 -2.90690865416542  0.05333515191519
 1 -3.24686683868387  1.90873745904590  3.51490765836584
 1 -1.39702456185619  1.76380500800080  3.95204492909291
 1 -2.07137993729373  2.75933456925693  2.46996915091509
 1 -6.63618751385139  2.55330428252825  1.63234135293529
 1 -7.82819552785278  1.19246557495750  1.40076249884989
 1 -7.94685317661766  2.76700887098710  0.32094109130913
 1  1.10733291459146  2.32841544954495  1.76334634223422
 1  0.53698773887389  2.25261334913491  3.48874922942294
 1  1.67218283658366  0.27183357355736 -0.13699592569257
 1  2.14556281488149 -4.96236175937594 -1.68726678887889
 1  0.49117719811981 -4.73929384278428 -1.15986875657566
 1 -7.72635796079608  0.91437407140714 -3.31529244124413
 1  1.40057299739974 -4.71112541684168  1.38963865146515
 1  2.93762480538054 -5.24255073407341  0.70097403580358
 1  4.15399984378438 -4.13141066956696 -2.08869792239224
 1  5.39979210071007 -3.00446932773277 -1.46344126562656
 1  4.36059315561556 -2.56850890649065 -2.93458378067807
 1  4.78940174727473 -0.38344245304530 -1.79690637883788
 1 -9.28063758595860  0.91578247544754 -0.58938962516252
 1 -10.05235340044004  1.09064344274427 -2.39301904360436
 1  3.99783621502150  3.09468203680368  3.26199438163816
 1  6.17644264986499  1.19354356085609 -2.52346985018502
 1  4.62644365456546  5.24696778877888 -2.50664771977198
 1  3.32695069916992  5.57828489838984 -1.08218130133013
 1  5.29204097559756  5.39244569916992 -0.86273802190219
 1  0.84955249374937 -8.17732897539754  1.49394906800680
 1  7.85509679147915  2.91599890619062 -2.86163492569257
 1  6.65596704100410  4.44376194749475 -2.25740862996300

