%nproc=4
%Mem=2GB
# td=(NStates=1) B3LYP/SVP 

TD

0 1
 8 -5.08380374217422  0.15049916491649 -3.25800863366337
 8  2.86918374447445  3.07965368876888  3.25738200260026
 8  3.30962169997000  0.90838584768477  3.03486544774477
 8  1.44165830173017 -7.13795970037004  1.63700411021102
 8  0.51061781118112 -6.96167707170717 -0.46773070427043
 8  1.89514297359736  4.08803177017702 -0.06421815741574
 7 -2.43547415011501 -0.95286029262926  0.62673920102010
 7 -4.32947685158516  0.67370161876188 -1.12670460256026
 7  1.85771549864987 -0.69864184518452 -0.44728616671667
 7  2.58386965736574  1.84162261236124 -0.47318479347935
 6 -4.72530477677768  1.22613279267927  0.11664212071207
 6 -4.54874948034804  0.24569098679868  1.25196725742574
 6 -3.03357681388139  0.01181606400640  1.38821416151615
 6 -2.03428847314731  0.65211735873587  2.10731152935294
 6 -0.72152604010401  0.03364480598060  1.81904066626663
 6 -1.05489986498650 -0.96920202930293  0.80831754005401
 6 -6.23460955835584  1.34884664056406 -0.17563597739774
 6  0.55682916621662  0.25172309540954  2.59273394219422
 6 -6.62843527522752  0.93558586378638 -1.48804966266627
 6 -0.19596533853385 -1.91655695679568  0.13738091379138
 6  1.06245915711571 -1.79207171977198 -0.27339613281328
 6 -5.34983304140414  0.59602929612961 -2.17361680248025
 6  1.85821169106911 -2.92566614261426 -0.88134345094509
 6 -2.24043078427843  1.75265699769977  3.14207284728473
 6 -7.17078907110711  1.90075561156116  0.88390900480048
 6  3.07607313561356 -2.41559358365837 -1.22834399149915
 6  1.15158193079308  1.71390453265327  2.47186240464046
 6  3.09365590659066 -0.92861230063006 -1.02910654165417
 6  1.47598313621362 -4.42135651525153 -0.81394986888689
 6 -7.83964068496850  0.77947251165116 -2.22266698869887
 6  1.69061075117512 -5.08791503390339  0.53840016651665
 6  4.22492020842084 -3.11675294109411 -2.03846584398440
 6  3.95321426362636  0.04674633643364 -1.30771096619662
 6  2.54677729312931  1.79879405370537  2.98617852295230
 6  3.71359588548855  1.41081033733373 -1.07279305000500
 6 -9.10383855685569  0.89245708950895 -1.70394915751575
 6  1.14596190459046 -6.47639636913691  0.49712050475047
 6  4.67131119601960  2.52144419941994 -1.50217394389439
 6  4.11496713121312  3.56557071727173 -1.14739431073107
 6  2.76856561256126  3.25325702710271 -0.48586713371337
 6  6.04327233163316  2.28786065746575 -2.01660318911891
 6  4.41159195259526  5.02228374557456 -1.13013568546855
 6  6.86311386278628  3.19807622902290 -2.64078874697470
 1 -4.19350730143014  2.14369941484148  0.34130367236724
 1 -4.86008443754375 -0.74971996309631  1.01182243054305
 1 -4.75150526972697  0.73788801790179  2.31787392189219
 1 -2.99518692909291 -1.34849170667067 -0.13741613291329
 1 -3.34402009530953  0.81257433363336 -1.50650784808481
 1  0.39732631693169  0.04129410291029  3.71220655285529
 1  1.22081052505250 -0.50207009100910  2.19391771217122
 1 -0.69251974447445 -2.89032699599960  0.17083690209021
 1 -3.34686683868387  1.94408099339934  3.18074424202420
 1 -1.93055791519152  1.28236686418642  4.29768949354936
 1 -1.61781458075808  2.58347698349835  2.83511566556656
 1 -6.70625452055206  2.49890884298430  1.59407752655266
 1 -7.57852056035604  1.13321965036504  1.46682910551055
 1 -8.12583107440744  2.26995916601660  0.50200919811981
 1  1.18383056435644  1.96397900590059  1.49061906950695
 1  0.42080612071207  2.42939102690269  3.06534688918892
 1  1.50771638993899  0.29878626882688 -0.14997722382238
 1  2.05070332893289 -5.10966648984899 -1.53589165136514
 1  0.35930401080108 -4.35952586598660 -0.93365613531353
 1 -7.68453377837784  0.47668030203020 -3.20181109310931
 1  1.24054699479948 -4.39125342964296  1.15745543314331
 1  2.90113115601560 -5.20213669266927  0.90105404380438
 1  3.80256470027003 -4.29780730923092 -2.13318237083708
 1  5.11050317181718 -3.09769865066507 -1.56473139463946
 1  4.50840793709371 -2.51014306990699 -2.94481480378038
 1  4.92619542664266 -0.11035514431443 -1.95934262246225
 1 -9.28563808600860  1.12347324452445 -0.59700038623862
 1 -9.85773393849385  0.82284666306631 -2.54374411611161
 1  3.82601903330333  3.07322989158916  3.45481366356636
 1  6.62712771837184  1.27098130463046 -2.30319782298230
 1  4.45103611381138  5.37114020602060 -2.20482753775378
 1  3.39060706480648  5.70442751265127 -0.66575965916592
 1  5.36967873937394  5.31330778537854 -0.52518426652665
 1  0.75763330183018 -7.90559180168017  1.51237091019102
 1  7.86444772657266  2.99247655395540 -3.11773053525352
 1  6.41218266256626  4.40261783308331 -2.66932982208221

