%nproc=4
%Mem=2GB
# td=(NStates=1) B3LYP/SVP 

TD

0 1
 8 -5.30853621542154  0.31029514451445 -3.41644447724773
 8  2.66309313541354  3.21292701610161  3.41996826122612
 8  3.17511824962496  0.95871088018802  3.18248020922092
 8  1.69281341724172 -7.09773567796780  1.78580899069907
 8  0.75886263566357 -7.21467237123712 -0.33270720192019
 8  2.07109056835684  3.95506847384739  0.12227049144915
 7 -2.32247284998500 -0.88089309590959  0.66963349044904
 7 -4.46045994989499  0.70652490109011 -1.29375130723072
 7  1.81765149224922 -0.71151313231323 -0.51541297939794
 7  2.69163043344334  1.77972642274227 -0.56314378937894
 6 -4.77734998129813  1.22321250065006 -0.03776331983198
 6 -4.40655526092609  0.19244566226623  1.15793785448545
 6 -2.93133658985899  0.06609149154915  1.38024336443644
 6 -1.98507355165517  0.62109425642564  2.17761856005601
 6 -0.72674656215622  0.01061250275028  1.77716647884788
 6 -1.00092446744674 -0.97758286738674  0.82110881918192
 6 -6.30183628102810  1.36607836373637 -0.13089150295029
 6  0.56694017731773  0.37833575667567  2.45870053885389
 6 -6.70034246594659  0.93912621782178 -1.39089994769477
 6 -0.23632937493749 -1.85113041414141  0.04731190689069
 6  1.01969488068807 -1.83184569716972 -0.37676646984698
 6 -5.42217027512751  0.73254294749475 -2.27951739253925
 6  1.84617048694869 -2.95703927992799 -0.93450876747675
 6 -2.10913765496550  1.62473420542054  3.26689532953295
 6 -7.14249624182418  1.88511404740474  0.92885349924992
 6  3.07290281858186 -2.36364838913891 -1.35540669776978
 6  0.92811958455846  1.81224436663666  2.36146136453645
 6  3.08860540154015 -0.99182862226223 -1.06815044604460
 6  1.39961549944995 -4.37738211781178 -0.92598107200720
 6 -8.03207992889289  0.93415798019802 -2.06139086108611
 6  1.69739142924292 -5.12869911231123  0.43776010251025
 6  4.22032974937494 -3.14537580338034 -1.92950494789479
 6  4.09421836403640 -0.03670200840084 -1.26694688978898
 6  2.41096371177118  1.85794996929693  3.01548145324532
 6  3.78912343824382  1.31220047634763 -1.16312208290829
 6 -9.30452862586259  0.96153399719972 -1.63304206680668
 6  1.30351766016602 -6.61327005650565  0.50181097379738
 6  4.72452651755176  2.41205326032603 -1.51608533503350
 6  4.13044867936794  3.64356851705171 -1.08826839813981
 6  2.82067082308231  3.21998369976998 -0.50172871987199
 6  6.00882888728873  2.17819969136914 -2.12488401720172
 6  4.34251504490449  5.08484000120012 -1.19364203610361
 6  6.95096264766477  3.15334175557556 -2.53186785488549
 1 -4.40549850055005  2.25584062896290  0.35166470847085
 1 -5.05159358845885 -0.66775176627663  1.19749099739974
 1 -4.61634175337534  0.64431866096610  2.16777891239124
 1 -2.93280069046905 -1.19043590109011 -0.13466585788579
 1 -3.53271896519652  0.55345842204220 -1.44242143944394
 1  0.34992157645765  0.14758473197320  3.47679301150115
 1  1.59184762876288 -0.09323920792079  2.28698701910191
 1 -0.89659015151515 -2.85277324062406  0.07750756915692
 1 -3.28855100710071  2.10323690899090  3.00819698729873
 1 -1.96801166056606  1.01418004550455  4.42177190179018
 1 -1.22293509280928  2.60099873567357  3.30086224022402
 1 -6.40144403950395  2.09928888098810  1.97380549934994
 1 -7.99171187948795  0.88845517391739  1.19498192079208
 1 -7.65281377267727  2.81990416051605  0.31778077527753
 1  1.03663584488449  2.14877748574858  1.31072107970797
 1  0.39896393649365  2.61207929572957  2.69970032453245
 1  1.38479409770977  0.33941033123312 -0.69598182428243
 1  2.02863112171217 -4.82224774797480 -1.82148021022102
 1  0.43849192959296 -4.43396330973097 -1.13018578827883
 1 -7.75975130013001  0.78954158815882 -3.12327323932393
 1  1.17000994109411 -4.60623492779278  1.25755544314431
 1  2.77504854775478 -5.09928640764076  0.75489942834283
 1  4.06274071787179 -4.15637316581658 -2.66889594219422
 1  4.94270639213921 -3.32806168696870 -1.13191811331133
 1  4.57033412971297 -2.32635469106911 -2.77107743004300
 1  4.98917172427243 -0.37302141094109 -2.09613630183018
 1 -9.55810533273327  1.39511040824082 -0.59654034023402
 1 -10.08563672877288  0.76389076747675 -2.22117185888589
 1  3.66453288468847  3.13335590419042  3.79352753495350
 1  6.56136114171417  1.24066827332733 -2.19729723292329
 1  4.42558356855686  5.52558565056506 -2.19805686068607
 1  3.72277028112811  5.55235230513051 -0.47547063026303
 1  5.38440021152115  5.40305676027603 -0.91898364646465
 1  1.20094763326333 -7.86406764926493  1.74992466556656
 1  7.97439872167217  2.89970727702770 -2.70568933113311
 1  6.74814625892589  4.12551012231223 -2.69067195629563

