%nproc=4
%Mem=2GB
# td=(NStates=1) B3LYP/SVP 

TD

0 1
 8 -5.16253161496150  0.50246436143614 -3.34630746354635
 8  2.69528635473547  3.18310403380338  3.36190245464546
 8  3.13979471727173  1.00040504960496  3.26471843304330
 8  1.61116525242524 -7.13278918331833  1.57762817261726
 8  0.40149689908991 -6.92484338833883 -0.23683761496150
 8  1.89549300860086  3.95671863886389 -0.29493122872287
 7 -2.46388699139914 -0.90890589718972  0.50526705380538
 7 -4.36324022792279  0.80207445604560 -1.22328426052605
 7  1.77640736783678 -0.76503848484848 -0.45790722882288
 7  2.68040931133113  1.81247969806981 -0.58263573857386
 6 -4.79948219451945  1.28169834923492  0.09041949844984
 6 -4.46562116751675  0.23328974667467  1.24755681638164
 6 -2.99651310751075 -0.04300941854185  1.37783312341234
 6 -2.07243228752875  0.52572471947195  2.18836963516352
 6 -0.74774866236624  0.00761220272027  1.71123988618862
 6 -1.03087746274627 -0.90951606070607  0.76334304260426
 6 -6.26010210761076  1.30295205110511 -0.12718113191319
 6  0.64745822912291  0.29535745884588  2.41380604940494
 6 -6.51331376307631  0.97448975417542 -1.38221907960796
 6 -0.16765250725073 -2.01536683778378  0.22096927262726
 6  1.01802471367137 -1.89847235983598 -0.42543133633363
 6 -5.34987304540454  0.69518921212121 -2.18359780058006
 6  1.89776564646465 -2.95876945294529 -0.85696101270127
 6 -2.41555829702970  1.52822455445545  3.26603524352435
 6 -7.17544953715372  1.65993152915292  0.92771338523852
 6  3.06116164446445 -2.46752877717772 -1.25482663976398
 6  1.08366513911391  1.73563670587059  2.47046226462646
 6  3.02058859985999 -0.94724416381638 -1.00127375837584
 6  1.50261579947995 -4.33559793939394 -0.90868934283428
 6 -7.82628934983498  0.96893145754575 -2.08947366936694
 6  1.79211090119012 -5.09539578197820  0.45535186168617
 6  4.20257797419742 -3.08533979977998 -1.88820081748175
 6  3.95370431263126 -0.02919125732573 -1.32750294539454
 6  2.43058567396740  1.96868104240424  3.10314021912191
 6  3.81726625252525  1.38267752405241 -1.08366413711371
 6 -9.14046221922192  0.79994783858386 -1.57831659425943
 6  1.24899220762076 -6.51899062856286  0.53982477517752
 6  4.75754981988199  2.41914396939694 -1.43028675517552
 6  4.14220985548555  3.62300646084608 -1.09789936123612
 6  2.80429918591859  3.21919362076208 -0.53403195019502
 6  6.06910491489149  2.28591046244624 -2.18323985278528
 6  4.56110690409041  5.09593111031103 -1.24990766266627
 6  6.95969352075207  3.21090751215122 -2.66386105420542
 1 -4.39490744144414  2.29115416031603  0.18023756575658
 1 -4.97282571167117 -0.70004499559956  1.25121636993699
 1 -4.88773889308931  0.60392462156216  2.12050418491849
 1 -3.10725813621362 -1.27997485498550 -0.25701809310931
 1 -3.31764745804580  1.14027710391039 -1.54899209650965
 1  0.39526611091109 -0.04412443894389  3.46036136833683
 1  1.31692013601360 -0.30032991699170  1.99804812521252
 1 -0.82445293779378 -2.94740270357036  0.21683150155015
 1 -3.36021817381738  1.40564715001500  3.64303047064706
 1 -1.83268812821282  1.32012063956396  4.23600332493249
 1 -2.22120491979198  2.53633226902690  2.75628778277828
 1 -6.66640053515352  2.27519647174717  1.65673379217922
 1 -7.54671738003800  0.78182451085109  1.37532995559556
 1 -8.24178266956696  2.20119228932893  0.65382437963796
 1  1.18348052935294  2.08299090709071  1.50715072267227
 1  0.26536057615762  2.41173926172617  2.96093644814481
 1  1.57396301460146  0.23665005520552 -0.15969819591959
 1  1.93816207480748 -4.84195971917192 -1.96694475667567
 1  0.42295037543754 -4.33027294069407 -1.08803157285729
 1 -7.91896722172217  0.98478111211121 -3.23781469346935
 1  1.50228316841684 -4.55268957325733  1.29363905150515
 1  2.88172921582158 -5.19743622262226  0.55213915231523
 1  4.01480592439244 -4.12756028452845 -2.12408146074607
 1  5.01169329082908 -3.28199708050805 -1.18874379587959
 1  4.77668476477648 -2.67531958755876 -2.69542986528653
 1  4.81956476357636 -0.54113822262226 -1.66375306350635
 1 -9.43580310251025  0.54789568676868 -0.55857654385439
 1 -9.98251641674167  0.60654503290329 -2.26413615531553
 1  3.71566799819982  3.18115068366837  3.78405658785879
 1  6.27440244584458  1.20109431593159 -2.30550805400540
 1  4.66657766796680  5.39287237923792 -2.46904395939594
 1  3.79912791689169  5.70239730963096 -0.73910699389939
 1  5.61419319081908  5.19938639323932 -0.90613236133613
 1  1.11021856035604 -7.98831007350735  1.57538721182118
 1  7.95694697649765  2.81755906220622 -3.01447020922092
 1  7.10362180648065  4.44530210151015 -2.40462335143514

