%nproc=4
%Mem=2GB
# td=(NStates=1) B3LYP/SVP 

TD

0 1
 8 -5.43652901470147  0.43480759575958 -3.47888072087209
 8  2.95843266936694  3.02802852625262  3.27054331873187
 8  3.34882562036204  0.84448945804580  3.15716767796780
 8  1.58751288718872 -7.15590149454945  1.60845125492549
 8  0.63032978237824 -7.04560546454645 -0.43544747594759
 8  1.87059051835183  3.91547451445145 -0.13029476507651
 7 -2.38909951265127 -0.90533554015402  0.61454798189819
 7 -4.52514641854185  0.69348359695970 -1.42978491059106
 7  1.91398112521252 -0.69924190519052 -0.49167060516052
 7  2.67654892529253  1.79443789388939 -0.59847732273227
 6 -4.89262150845085  1.17266744614461 -0.01167071057106
 6 -4.42298690409041  0.33428984668467  1.18323038373837
 6 -2.98444190039004  0.04935981838184  1.39664500460046
 6 -1.93266831113111  0.71440358735874  2.22490328852885
 6 -0.72345623312331  0.07585902740274  1.81531029322932
 6 -1.00225460046005 -0.87440254935494  0.84188089638964
 6 -6.34715081248125  1.26251800770077 -0.22459087288729
 6  0.55219870317032  0.29702762586259  2.55401006980698
 6 -6.80661309300930  0.98315062026203 -1.51979283698370
 6 -0.23394913691369 -1.82751805290529  0.11913908960896
 6  1.12150506170617 -1.74753726632663 -0.34529332253225
 6 -5.56227428552855  0.61824151735174 -2.27637707850785
 6  1.85231110101010 -2.89070264626463 -0.69641495809581
 6 -2.27366410761076  1.69594132613261  3.29708834883488
 6 -7.25023701590159  1.78208374437444  0.91363197709771
 6  3.16817234553455 -2.45714773907391 -1.08565972307231
 6  1.09209598219822  1.79160230243024  2.57427264566457
 6  3.13172971397140 -0.92324176357636 -1.00576420742074
 6  1.49033457135714 -4.37792217181718 -0.90649912381238
 6 -8.05550227112711  0.84641920632063 -2.08191291329133
 6  1.73371506160616 -5.07502374477448  0.41398772527253
 6  4.27215493189319 -3.18732999879988 -1.76331832923292
 6  4.13647258945895 -0.05678401660166 -1.22227242234223
 6  2.54281689708971  1.78344251855186  3.06997690279028
 6  3.83428795469547  1.31813106940694 -1.11734750545054
 6 -9.30530870387039  0.90087793159316 -1.50160892349235
 6  1.32152946134613 -6.49309803930393  0.42582337503750
 6  4.73289735463546  2.51373342834283 -1.42534626112611
 6  4.03241887638764  3.64593875407541 -1.10753032433243
 6  2.76530528652865  3.18407010841084 -0.56451499849985
 6  6.05754375877588  2.28310018141814 -1.92735426422642
 6  4.43151394479448  5.12641415861586 -1.37096976887689
 6  6.90494804620462  3.17009343074307 -2.55075974407441
 1 -4.40260821152115  2.19964500940094  0.06666620862086
 1 -4.93731216031603 -0.69847483858386  1.13211445974597
 1 -4.76574669386939  0.68567279637964  1.97606974147415
 1 -2.69306671707171 -1.58074493199320 -0.08619101040104
 1 -3.49956564986499  0.88802187838784 -1.82629982728273
 1  0.43578016231623  0.11702167566757  3.62418775097510
 1  1.27100554455446 -0.17816770077008  2.12240056045605
 1 -1.00339083158316 -2.64268223152315 -0.13040322192219
 1 -3.22666481848185  1.82081866716672  3.62746891449145
 1 -1.51985684508451  1.28881750925093  4.02450217481748
 1 -1.99331213051305  2.86799543534353  3.15547770177018
 1 -6.57461135623562  2.50376932903290  1.67791591039104
 1 -7.41613432173217  0.97646397479748  1.49086150875088
 1 -8.03634212551255  2.42225439553955  0.62183118031803
 1  1.05336751805180  2.01764437243724  1.46658666626663
 1  0.24450849094909  2.53158124592459  3.20447080158016
 1  1.76862248054806  0.33792018221822 -0.31066329242924
 1  2.11051931053105 -4.94667019021902 -1.81039910211021
 1  0.53845192559256 -4.63035294869487 -1.17932070177018
 1 -7.94626995199520  0.64029666366637 -3.18920983298330
 1  1.32597553765377 -4.60409471377138  1.31439112671267
 1  2.73692473537354 -5.17834431343134  0.73469740814081
 1  3.92232667646765 -4.27231475997600 -2.04500355295530
 1  5.14235635713571 -3.31718059885989 -0.97230215171517
 1  4.54017111341134 -2.75695775137514 -2.72623294559456
 1  5.20606341344134 -0.51318542734273 -1.64300098829883
 1 -9.54990451265127  1.28694959215922 -0.42589327552755
 1 -10.08066623172317  0.89988436683668 -2.14001374307431
 1  3.98087451885188  2.98987155575558  3.39337751995200
 1  6.48238324392439  1.28433263976398 -2.06752425562556
 1  4.50396140634063  5.31764485648565 -2.49700675567557
 1  4.01521952605260  5.85358242814281 -0.93320640384038
 1  5.35784755625563  5.36303275787579 -0.98816056415642
 1  1.32664020252025 -8.16419766226623  1.41650132323232
 1  7.84675595739574  2.86269357565757 -2.88136689888989
 1  6.67633907820782  4.25471304260426 -2.61674456355636

