%nproc=4
%Mem=2GB
# td=(NStates=1) B3LYP/SVP 

TD

0 1
 8 -5.52322768456846  0.12021613661366 -3.37668050085008
 8  2.87684451055105  3.05874159755976  3.27590385478548
 8  3.25349608740874  0.78697370647065  3.13455541674167
 8  1.53533766966697 -7.32897880228023  1.36627703750375
 8  0.59879662906291 -7.00839174317432 -0.59368329952995
 8  1.99267272657266  4.20565353235324 -0.13191492709271
 7 -2.30610121282128 -0.97520252685269  0.66767329442944
 7 -4.43774767866787  0.57799204780478 -1.30393232533253
 7  1.85176490359036 -0.69836181718172 -0.18180961906191
 7  2.71372264266427  2.03913236333633 -0.41258873387339
 6 -4.90051229752975  1.16084626402640  0.00499095559556
 6 -4.40498510391039  0.18240465816582  1.23417547824782
 6 -3.01617507370737  0.05255013741374  1.33655899599960
 6 -2.05042008630863  0.77705985298530  2.05639643784378
 6 -0.77750163766377  0.16587802930293  1.76386514871487
 6 -0.94236861186119 -0.95713082218222  0.86554326262626
 6 -6.38908500590059  1.38490024592459 -0.26682509630963
 6  0.52345582888289  0.32881080418042  2.50304497329733
 6 -6.74324675637564  0.92791509670967 -1.43980483818382
 6 -0.14960070207021 -1.98616391749175  0.18775595129513
 6  1.06220913211321 -1.79745225782578 -0.18394718791879
 6 -5.59667772587259  0.44524421762176 -2.21785122592259
 6  1.91137700760076 -2.87032060806081 -0.82033735033503
 6 -2.12797953915392  1.93523525552555  2.93718235823582
 6 -7.15694768696870  1.94559009500950  0.91326194009401
 6  3.14332986128613 -2.33959598389839 -1.22772392949295
 6  1.09767654025403  1.75510865306531  2.45342056045605
 6  2.94096063706371 -0.89675911531153 -0.82944657565757
 6  1.46516205410541 -4.33915829542954 -0.81453992789279
 6 -8.02141886278628  0.90333489788979 -2.07803252525253
 6  1.70903259335934 -5.03019926232623  0.45776210271027
 6  4.30986870327033 -3.01626289208921 -1.72009400680068
 6  3.98275721792179  0.05077673947395 -1.08808900400040
 6  2.56870948634864  1.79081325562556  2.92538244334433
 6  3.73824835073507  1.40599985628563 -0.91115688638864
 6 -9.22829100210021  0.79528737253725 -1.49112787538754
 6  1.24105141354135 -6.55213394289429  0.29743053575358
 6  4.83934799969997  2.49548160316032 -1.38352207870787
 6  4.17932356685669  3.60990515071507 -1.11306087738774
 6  2.85375413141314  3.29826152755276 -0.48251679867987
 6  6.11398940334033  2.16501837323732 -1.91508303710371
 6  4.60392118551855  5.05761727892789 -1.29687235913591
 6  6.76865441684168  2.94559098049805 -2.83699836793679
 1 -4.43722167286729  2.32660770567057 -0.15030548854885
 1 -4.76121455055506 -0.86092108320832  0.93101434973497
 1 -4.77828794799480  0.83927815691569  2.08469060356036
 1 -2.82732014241424 -1.57270412791279 -0.10539293059306
 1 -3.57781347464746  0.58244132033203 -1.65035223252325
 1  0.34170075437544  0.11706167966797  3.49027435963596
 1  1.13060150415041 -0.27391727572757  2.32057037743774
 1 -0.43544403690369 -2.98042600590059 -0.00161034263426
 1 -3.21878403040304  2.09263584888489  3.13892005960596
 1 -1.78889374877488  1.87206583408341  3.88263798839884
 1 -1.59267206650665  2.84516315211521  2.40691284528453
 1 -6.60926482158216  2.38024697679768  1.76730484928493
 1 -7.65872858115812  1.06318264666467  1.49439186178618
 1 -8.06822531383138  2.53519568966897  0.73203220042004
 1  0.96783896519652  2.14599720772077  1.42220222782278
 1  0.52889692979298  2.44918300610061  3.09532988748875
 1  1.35176079437944  0.22485887608761 -0.02957518361836
 1  2.13350160876088 -4.71025654885489 -1.50851891409141
 1  0.44506258665867 -4.60415032843284 -1.11263403310331
 1 -8.03406873187319  0.75620825482548 -3.28184909690969
 1  1.07536047614761 -4.56406071037104  1.17475716331633
 1  2.73440448334833 -4.94595107410741  0.79242318071807
 1  4.12809725352535 -3.99177670617062 -2.00493954655466
 1  5.21408352985299 -3.22506138693869 -0.81368629012901
 1  4.75453254955496 -2.54180623622362 -2.62074239653965
 1  4.95183799089909 -0.34567867666767 -1.57254394259426
 1 -9.25919544174418  0.85293619081908 -0.45619630583058
 1 -10.18733689878988  0.77345172357236 -2.00969071077108
 1  3.77272370377038  3.03568613721372  3.74688287048705
 1  6.54691969756976  1.05928013451345 -1.73180068326833
 1  3.97453846404640  5.37104019601960 -2.45569262426243
 1  4.24381238533853  5.75124219411941 -0.36611969516952
 1  5.87353912541254  5.45707216181618 -1.47814956305631
 1  1.11004854335433 -8.16010725322532  1.21056072917292
 1  7.83459474127413  2.78927623392339 -3.10861962416242
 1  6.64303574787479  4.10955852715272 -3.11595448454846

