%nproc=4
%Mem=2GB
# td=(NStates=1) B3LYP/SVP 

TD

0 1
 8 -5.27156251805180  0.28242235723572 -3.25686851965196
 8  2.69130595669567  3.29888561196120  3.48058432283228
 8  3.33597433523352  1.20914592369237  3.15985794699470
 8  1.63810794669467 -7.21912781718172  1.40931134093409
 8  0.65803255265527 -7.16763766776678 -0.51701563276328
 8  1.93123658295830  3.97674064106411  0.00211847624762
 7 -2.37450805350535 -0.84723973057306  0.57694422152215
 7 -4.39474337823782  0.61164541314131 -1.13981591369137
 7  1.93904363146315 -0.74549653065307 -0.26311774987499
 7  2.69429069946995  1.81337978807881 -0.51770924592459
 6 -4.82904515081508  1.18556873627363  0.04329478597860
 6 -4.48213281868187  0.27293371107111  1.23293535423542
 6 -2.93567702390239  0.00316519891989  1.38179351945195
 6 -2.04648969326933  0.70875302230223  2.16048684688469
 6 -0.78124201170117  0.09589103060306  1.86184494669467
 6 -0.97799217421742 -0.80424553365337  0.84557126542654
 6 -6.27498359575958  1.24212596849685 -0.24927334113411
 6  0.52395587888789  0.35216313941394  2.59137380618062
 6 -6.62300473217322  0.95100740594059 -1.47504836253625
 6 -0.14101984398440 -1.88105340644064  0.20816799249925
 6  1.18144105530553 -1.84486699929993 -0.21218001120112
 6 -5.40606866496650  0.57250694389439 -2.11299073987399
 6  1.94096996689669 -3.00035361136114 -0.85020033663366
 6 -2.33511025222522  1.69086081808181  3.13804244424442
 6 -7.15923791599160  1.95807134313431  0.83676429032903
 6  3.15673120142014 -2.50924294859486 -1.30715187228723
 6  0.98546531913191  1.82980612281228  2.52258747714771
 6  3.07529407040704 -1.01681112051205 -0.94378800980098
 6  1.37282282018202 -4.36267064666467 -0.88438691259126
 6 -7.83968068896890  0.87612217661766 -2.12302702470247
 6  1.67264895499550 -5.16680292269227  0.33881020752075
 6  4.17694541094109 -3.17617888368837 -2.04726672407241
 6  3.97129607180718 -0.03597193539354 -1.28228842394239
 6  2.44585720112011  2.01822599689969  3.03155306040604
 6  3.77120164606461  1.29551880818082 -1.06654242494249
 6 -9.12660083308331  1.00115795959596 -1.63518228082808
 6  1.23561086948695 -6.56328505800580  0.34577537023702
 6  4.68993305820582  2.34390644564456 -1.53720744724472
 6  4.07072270677068  3.63351751195120 -1.17537710901090
 6  2.72084084008401  3.17946964836484 -0.53181172817282
 6  5.93648165256526  2.22487435883588 -2.04545607440744
 6  4.46465725912591  5.00778229542954 -1.43264593649365
 6  6.87955550695069  3.08273469486949 -2.54133880198020
 1 -4.36185413611361  2.11282632753275  0.40402994499450
 1 -5.06087451655166 -0.63806879797980  1.24665591389139
 1 -4.76694681388139  0.83543777287729  2.13881601610161
 1 -3.11545895629563 -1.33917077457746 -0.10402279357936
 1 -3.33060875417542  0.62445552175217 -1.34921211851185
 1  0.31992857715772  0.22340231373137  3.62279761196120
 1  1.28039648364836 -0.36963684768477  2.16816513691369
 1 -0.64023451595160 -2.84024198749875 -0.10581076267627
 1 -3.37075922792279  1.80451703700370  3.42155832343234
 1 -1.97783264266427  1.27371599909991  4.31140086468647
 1 -1.79390218951895  2.69149778557856  3.03421557555756
 1 -6.70018391349135  2.68483743584358  1.40077819661966
 1 -7.50796350465047  1.16996332473247  1.50587300990099
 1 -7.97807629892989  2.29203137323732  0.24288328552855
 1  0.98028020932093  2.12037464546455  1.50774078167817
 1  0.12567660776078  2.46354444224422  3.14519487398740
 1  1.73408902720272  0.14805119531953  0.15666344024402
 1  2.00064832343234 -4.88687421062106 -1.60993905610561
 1  0.19005708610861 -4.37193710711071 -1.20938370807081
 1 -7.96429175417542  0.63680631463146 -3.12039295129513
 1  1.11818475857586 -4.82012631693169  1.25221490909091
 1  2.66805784868487 -5.11005748474847  0.45406934533453
 1  3.77847229102910 -4.21875940444044 -2.27231628422842
 1  5.01538365986599 -3.35080396119612 -1.37564248574858
 1  4.41072816911691 -2.60257231283128 -3.03957427972797
 1  4.98737154425442 -0.33424753355335 -1.69485617381738
 1 -9.24423394559456  0.82296319351935 -0.68598928512851
 1 -9.84465263036304  0.91438581698170 -2.30710045174517
 1  3.60814724612461  3.42490505910591  3.77742592479248
 1  6.32357736333633  1.20062426892689 -2.12938044124412
 1  4.60474148434843  5.20219331133113 -2.61195825082508
 1  3.57147515161516  5.70272734263426 -1.21461454465447
 1  5.43590536203620  5.07533398799880 -1.03375512361236
 1  1.14252179067907 -8.04752599509951  1.37954762786279
 1  8.14625590739074  2.92893019931993 -2.75887464966497
 1  6.71564300860086  4.24550212151215 -2.36644953405340

