%nproc=4
%Mem=2GB
# td=(NStates=1) B3LYP/SVP 

TD

0 1
 8 -5.20121548334834  0.29806392139214 -3.38070090289029
 8  2.94089091519152  2.99192491589159  3.39183544794479
 8  3.33837457525753  0.85354036313631  3.07213917511751
 8  1.47964210011001 -7.25085098949895  1.53924433423342
 8  0.60130688008801 -7.01767267126713 -0.40991492269227
 8  1.81010446974697  3.96977994499450 -0.22076381198120
 7 -2.41105170787079 -0.93556856345635  0.58127465456546
 7 -4.37076097999800  0.70801505010501 -1.24310624272427
 7  1.90733046014602 -0.63798577957796 -0.45555699379938
 7  2.68281955235524  1.84000245034503 -0.52398987398740
 6 -4.93071531783178  1.28640882028203  0.00014047054705
 6 -4.47575218061806  0.42205862356236  1.17974003470347
 6 -3.01685514171417  0.12178706110611  1.31241658175818
 6 -2.03367841214121  0.69941208820882  2.19376017421742
 6 -0.74063795129513  0.11175261676168  1.79404816701670
 6 -0.96288066306631 -0.90809591869187  0.81691840014001
 6 -6.39089518691869  1.35922767866787 -0.18971738553855
 6  0.50321380468047  0.31698962206221  2.57970263906391
 6 -6.71696412811281  0.93711601680168 -1.39225008270827
 6 -0.23448919091909 -1.86244154525453  0.19655683138314
 6  1.09283219441944 -1.78414092669267 -0.33319211241124
 6 -5.41506956505651  0.64105379857986 -2.20443988478848
 6  1.89076494639464 -2.93954753075307 -0.81469678627863
 6 -2.24632137333733  1.69821155315532  3.25435407540754
 6 -7.18954094629463  1.92793832983298  0.89370998489849
 6  3.07418294659466 -2.40975299959996 -1.28848000510051
 6  1.07140391299130  1.74387752995300  2.55837105550555
 6  3.04364090509051 -0.91217065646565 -1.02974660566057
 6  1.46641217911791 -4.36484086368637 -0.78718719261926
 6 -8.00086680758076  0.83101766616662 -2.12780750275028
 6  1.74481617171717 -5.11158740114011  0.40353668016802
 6  4.24134185058506 -3.13082434823482 -1.87712971037104
 6  4.10201914411441 -0.02835117331733 -1.28758895399540
 6  2.57101971737174  1.71980615491549  3.00316022112211
 6  3.86672119801980  1.35947520382038 -0.98775454615462
 6 -9.24343251625162  0.67159500330033 -1.63707246984698
 6  1.21042835123512 -6.48892762226223  0.49609040174017
 6  4.72513657855786  2.50540259525953 -1.38889261576158
 6  4.02178781328133  3.61741590179018 -1.14138370967097
 6  2.75765452145215  3.22767446884688 -0.59434798179818
 6  6.09197720212021  2.32330420182018 -1.85584711351135
 6  4.39460025342534  5.03164468166817 -1.35381805370537
 6  6.86872442384238  3.23475989738974 -2.62536720482048
 1 -4.33189113981398  2.26339138403840 -0.05769622762276
 1 -4.98829725882588 -0.68550354145415  0.90103135143514
 1 -4.77005712491249  0.59851408050805  2.14792692719272
 1 -2.85762317271727 -1.45857271477148 -0.37041943324332
 1 -3.20908660196020  0.41109418561856 -1.31459865716572
 1  0.64892147644764 -0.07565759225923  3.47287261946195
 1  1.40966941094109 -0.33270315431543  2.05279359975998
 1 -0.65067556005601 -2.98516647994799 -0.01817199879988
 1 -3.30133228522852  2.17272385768577  3.32052822042204
 1 -1.99690454985498  1.29168779627963  4.44536426102610
 1 -1.40985378467847  2.76477511331133  3.22213436743674
 1 -6.41166506160616  2.62565151725172  1.50606872567257
 1 -7.55721843014301  0.95480180858086  1.55079750235023
 1 -7.97204569586959  2.37809998009801  0.50050904810481
 1  1.00140232153215  2.19796240424042  1.48992900050005
 1  0.48581262136214  2.41158924672467  3.13297365186519
 1  1.70037565586559  0.49741613181318 -0.31918414451445
 1  1.85117337593759 -4.81134665786579 -1.61178924112411
 1  0.35140322072207 -4.42743265666567 -0.83925669536954
 1 -7.81356668166817  0.75339797379738 -3.15930684268427
 1  1.36578951905191 -4.71444574887489  1.43784347194719
 1  2.89679072197220 -4.98152463146315  0.62930686908691
 1  4.01776622042204 -4.17536506500650 -2.08575762836284
 1  5.17558968046805 -3.11008988978898 -1.20917583908391
 1  4.71614871117112 -2.75645770137014 -2.69132945524552
 1  4.92600540764076 -0.40614472327233 -1.85233192139214
 1 -9.28194771697170  0.63337423462346 -0.39270995719572
 1 -10.04834299939994  0.34521890029003 -2.28855859755976
 1  4.01491792319232  2.77689025762576  3.31358954115412
 1  6.63113811941194  1.39913411991199 -1.86102360556056
 1  4.26799780998100  5.11450454245425 -2.58671572657266
 1  3.56754475857586  5.66928399829983 -0.79148223142314
 1  5.55537730923092  5.24644109870987 -1.23227497559756
 1  1.13737127562756 -8.21563280578058  1.57285695879588
 1  7.93752503430343  2.80726803310331 -2.90479924212421
 1  6.64912635693569  4.16041361266127 -2.78929181828183

