%nproc=4
%Mem=2GB
# td=(NStates=1) B3LYP/SVP 

TD

0 1
 8 -5.26888225002500  0.04608872387239 -3.36766959975998
 8  3.00145697179718  2.95489121252125  3.10098636303630
 8  3.22222296009601  0.74950996009601  3.16608857005701
 8  1.76269040494049 -7.35410131453145  1.38922933273327
 8  0.37494424382438 -6.94691559555956 -0.36971090229023
 8  1.85210867016702  4.01725469246925 -0.10520225582558
 7 -2.33099370207021 -0.85020002660266  0.59781630873087
 7 -4.37417132103210  0.58702295089509 -1.25115704780478
 7  1.95607533463346 -0.76554853585359 -0.05404684278428
 7  2.69212048244824  1.86257470757076 -0.39703717871787
 6 -4.76861910821082  1.24457463686369 -0.09228877237724
 6 -4.43880848624863  0.38078449614962  1.21093315401540
 6 -2.90120357655766  0.14523940634063  1.40065540564056
 6 -1.99012405670567  0.78422056905691  2.17076787498750
 6 -0.77288117561756  0.07236867836784  1.87219598179818
 6 -1.02894726972697 -0.89775488458846  0.90889759805981
 6 -6.22927902530253  1.46677843374337 -0.24649306310631
 6  0.48051153445345  0.21219914301430  2.71097576637664
 6 -6.72247467916792  0.94412671787179 -1.45115597329733
 6 -0.19095483748375 -1.95047034813481  0.26817399309931
 6  1.12407531873187 -1.84350686328633 -0.23287208040804
 6 -5.29844790289029  0.48085777897790 -2.17152659345935
 6  1.91319718961896 -2.93702727872787 -0.79710502710271
 6 -2.26842358355836  1.68880061206121  3.30163880388039
 6 -7.20332232443244  2.06174171017102  0.74068468236824
 6  3.14219974827483 -2.47941996629663 -1.24871602870287
 6  1.04777154975498  1.70622376457646  2.65383060146015
 6  2.99426596759676 -0.99066850625063 -0.90659429042904
 6  1.52855839373937 -4.37944232383238 -1.01362983688369
 6 -7.92740946184619  0.87466203060306 -2.20049477147715
 6  1.65713740384038 -5.12227847024702  0.37772409890989
 6  4.35911362776278 -3.14353561936194 -1.71350334773477
 6  3.96519546174617  0.03316497829783 -1.23653384848485
 6  2.50735335073507  1.69865403970397  2.97586749184918
 6  3.79587411331133  1.39672892919292 -1.03652942364236
 6 -9.19071724472447  1.08403624742474 -1.74142290489049
 6  1.18941625002500 -6.59199792929293  0.40715150785079
 6  4.65925999089909  2.57828988398840 -1.48506223272327
 6  3.98824445894589  3.73131729192919 -1.11060063136314
 6  2.78241699769977  3.27441914331433 -0.43679222622262
 6  5.92945094949495  2.40866273767377 -2.06113764256426
 6  4.32167296069607  5.14397591479148 -1.35742841474147
 6  6.58603615501550  3.22345876727673 -2.92904757285729
 1 -4.41326927762776  2.31738678357836 -0.06712717071707
 1 -4.94091252035204 -0.52445743684368  1.02035328362836
 1 -4.80822094129413  0.85026925602560  1.98841097559756
 1 -2.73044045444545 -1.57882473997400  0.20038764746475
 1 -3.41973766706671  0.53016609280928 -1.62515971327133
 1  0.32419900420042  0.06445641914191  3.80172550475047
 1  1.31407985198520 -0.39786967096710  2.40093841424142
 1 -0.65310580308031 -2.99420738403840  0.09754957335734
 1 -3.50812296429643  1.81909849514951  3.42278844644464
 1 -1.85847070647065  1.34165279277928  4.41161088568857
 1 -1.47115991529153  2.62584121992199  3.09103125712571
 1 -6.60623451855186  2.68426737883788  1.52668078687869
 1 -7.42658536683668  1.21349767816782  1.46103852645264
 1 -8.10016850815082  2.40581275137514  0.41531052825283
 1  1.16336851815182  2.11871447944795  1.63621362896290
 1  0.58731277137714  2.39833792159216  3.30817117161716
 1  1.68807442574257  0.32550894109411 -0.20325255135514
 1  2.10465872447245 -4.95911143434344 -1.70879894209421
 1  0.47448552895290 -4.44653456685669 -1.40687345704570
 1 -7.74366969196920  0.65416805080508 -3.31231214321432
 1  1.46838977907791 -4.47154145844584  1.22033172077208
 1  2.62506354925493 -5.29575605460546  0.66394033243324
 1  4.35626006980698 -4.24831235973597 -1.81889094169417
 1  5.23244536603660 -2.77528640944094 -0.95817073857386
 1  4.29761685798580 -2.60263231883188 -2.82960328262826
 1  4.89053186028603 -0.27211131993199 -1.70656734493449
 1 -9.33811333353335  1.52627352455245 -0.54647533373337
 1 -10.00539870497050  1.06870124852485 -2.31925166686669
 1  4.09460589198920  2.52574514311431  3.02980116231623
 1  6.63066807240724  1.49344355085509 -1.75793329652965
 1  3.86441745194520  5.40429352135213 -2.48944599959996
 1  3.69543754785479  5.89883695359536 -0.85702878607861
 1  5.43230500200020  5.55736219081908 -1.34158590669067
 1  1.34308184668467 -8.24102534503450  1.39501917501750
 1  7.54162544434443  2.84161146744674 -3.22719148134813
 1  6.22070351465146  4.22589016031603 -3.43672656175618

