%nproc=4
%Mem=2GB
# td=(NStates=1) B3LYP/SVP 

TD

0 1
 8 -5.39248461026103  0.26874098909891 -3.37040987378738
 8  2.71228805490549  3.14587031043104  2.96957322172217
 8  3.37446818461846  1.12109711881188  3.16043800500050
 8  1.49303343924392 -7.07488339273927  1.68473888368837
 8  0.41816856625663 -7.12429333333333 -0.33007693889389
 8  2.00565402470247  4.01553452045205 -0.08212994859486
 7 -2.27273787648765 -1.00581558815882  0.60504703180318
 7 -4.50009391329133  0.72510675927593 -1.34633656575658
 7  1.89001872897290 -0.70596257725773 -0.46190762886289
 7  2.72143341374137  1.84584303440344 -0.46546402140214
 6 -4.83844609090909  1.20666084548455  0.08407886438644
 6 -4.41856646204621  0.06014243194319  1.12748480918092
 6 -2.93920737693769 -0.09774489208921  1.34430977107711
 6 -2.02626767106711  0.60125227222722  2.17866866506651
 6 -0.71800568806881  0.01201264276428  1.70224898709871
 6 -0.94149852485249 -1.01425653475348  0.74587129542954
 6 -6.39134523192319  1.26200795669567 -0.08568698249825
 6  0.53410689398940  0.26224414751475  2.48140280908091
 6 -6.73411584328433  1.00430273547355 -1.35732659035904
 6 -0.17897363936394 -1.93174847594759  0.00620779647965
 6  1.13965687688769 -1.89477198979898 -0.38681747494749
 6 -5.53000105820582  0.65550524372437 -2.16229567036704
 6  2.03396926682668 -2.95897947394739 -0.92212752935294
 6 -2.35584232543254  1.49758149014901  3.28247688768877
 6 -7.29695168736874  1.81138667466747  1.09492010591059
 6  3.20346587488749 -2.47464948924893 -1.28482964006401
 6  1.07989476207621  1.73348649084909  2.50887610601060
 6  3.05914245524552 -0.97582702210221 -1.03703733473347
 6  1.45159069696970 -4.38424280388039 -0.84760323422342
 6 -7.91950867176718  0.86144070847085 -2.09778450045004
 6  1.46363805390539 -5.03918016041604  0.51965829232923
 6  4.40964868126813 -3.09736100190019 -1.73288528592859
 6  4.02115105730573  0.04414607640764 -1.36890708580858
 6  2.49760237563756  1.91219539383938  2.93915382048205
 6  3.86603112901290  1.41595085138514 -1.05567133783378
 6 -9.14833300630063  1.08240608440844 -1.73364212681268
 6  1.08373568196820 -6.49462819231923  0.50391118381838
 6  4.82950701560156  2.53361541654165 -1.41903563006301
 6  4.09336497099710  3.63804796499650 -1.00745031633163
 6  2.87251600760076  3.30517221862186 -0.42589113611361
 6  6.07049505390539  2.27205907730773 -2.07590911971197
 6  4.54895568896890  5.07848936613661 -1.10305297719772
 6  6.87988553995400  3.24133055445545 -2.60680534863486
 1 -4.42346029672967  2.07215226012601  0.43176271827183
 1 -4.77058548764877 -0.86072106320632  0.90726197449745
 1 -5.00182030123012  0.58138236733673  2.09778191269127
 1 -2.53202061246125 -1.57278413591359 -0.20674306560656
 1 -3.40516620992099  0.71979505570557 -1.45647284458446
 1  0.44495107940794  0.02666263976398  3.62914824702470
 1  1.31451989598960 -0.38981886588659  1.93427174757476
 1 -0.58375886838684 -2.81659962326233 -0.14419460106011
 1 -3.38200035203520  1.50326691199120  3.44906107370737
 1 -1.83005786518652  1.25511413891389  4.18283800840084
 1 -2.17534033333333  2.60502913871387  3.30940309430943
 1 -6.44615851095110  2.40037898999900  1.67959607840784
 1 -7.90885359365937  1.10076640504050  1.63176559915992
 1 -8.11267975927593  2.44534670477048  0.58637763496350
 1  1.10509269056906  1.92677528552855  1.49460946854685
 1  0.37574161426143  2.38571665946595  3.01934228872887
 1  1.72207782608261  0.41152754295430 -0.20651287738774
 1  2.11587984658466 -5.05965148834884 -1.63874193639364
 1  0.49949803020302 -4.36462637603760 -1.51506427612761
 1 -7.69264458945895  0.80669330333033 -3.27605851785178
 1  0.77841078117812 -4.58165246954695  1.29137882548255
 1  2.59061010391039 -4.95281176017602  0.77298123652365
 1  4.51363580738074 -4.11476900540054 -2.03161221382138
 1  5.24368649014902 -2.64173305410541 -1.20183510501050
 1  4.69331642794280 -2.65779783538354 -2.75062538483848
 1  4.95785859295930 -0.44226833563356 -1.78185487368737
 1 -9.36990651285129  1.25421631883188 -0.60381106730673
 1 -9.99862802790279  1.13198757715772 -2.43132287398740
 1  3.60664709610961  3.34738730733073  3.01333951615162
 1  6.24416942254225  1.19713391989199 -2.40770827402740
 1  4.23878488868887  5.44729782178218 -2.17599465446545
 1  3.90675867996800  5.64086115601560 -0.30331341454145
 1  5.66139791129113  5.17645410001000 -0.93809555765577
 1  1.00518805730573 -7.88538978147815  1.58380805390539
 1  7.87699898169817  2.94959226552655 -3.00360912311231
 1  6.63432487678768  4.28100567186719 -2.89022191129113

