%nproc=4
%Mem=2GB
# td=(NStates=1) B3LYP/SVP 

TD

0 1
 8 -5.46056141794179  0.18227234223422 -3.33209604240424
 8  2.80814764086409  3.22092781618162  3.28163442784278
 8  3.24203494129413  1.04587959705971  3.35715767696770
 8  1.81971610751075 -7.40060596499650  1.25018542834283
 8  0.47077382678268 -6.96908781278128 -0.49426335753575
 8  2.18948240754075  4.04951791879188  0.21274953935394
 7 -2.37273787648765 -0.87954296089609  0.56791331843184
 7 -4.51756566046605  0.69820406900690 -1.30371230333033
 7  1.90787051415142 -0.68545052605261 -0.31801323942394
 7  2.72728399879988  1.80728917901790 -0.46718419341934
 6 -4.92604485078508  1.21530170957096  0.00508096459646
 6 -4.48009261466147  0.26682310001000  1.14136619731973
 6 -2.96603005920592  0.06408129052905  1.42584792489249
 6 -2.04655970027003  0.72786493349335  2.06446724492449
 6 -0.76084997249725  0.16693813531353  1.85786454865487
 6 -1.03065744074407 -0.93659876897690  0.81395810411041
 6 -6.43353945134514  1.32505426132613 -0.13105151895190
 6  0.52107559085909  0.38233615671567  2.55327999679968
 6 -6.71171360306031  0.81907421262126 -1.40144100180018
 6 -0.19392513451345 -1.90725602670267  0.19884706040604
 6  1.14185709690969 -1.89360187278728 -0.15483427662766
 6 -5.55853391149115  0.50179987318732 -2.13775321612161
 6  1.84559042894289 -2.93047662366237 -0.78903422002200
 6 -2.34459120032003  1.81313304530453  3.22824146414642
 6 -7.34102609480948  1.79172470847085  0.86748736263626
 6  3.10808633693369 -2.48520054435444 -1.15539669676968
 6  1.11497827042704  1.82636577877788  2.43869908830883
 6  3.12641918291829 -0.98333777317732 -0.88965259625963
 6  1.37187272517252 -4.37774215381538 -0.89194766866687
 6 -8.00201692259226  0.78801336573657 -2.10409513151315
 6  1.73671536163616 -5.08396463886389  0.47546387288729
 6  4.33773148954895 -3.15129639543954 -1.70642263966397
 6  4.05316425862586 -0.02621095929593 -1.29180937603760
 6  2.47115973137314  1.93523769806981  3.09456936203620
 6  3.87316184208421  1.31449070537054 -1.11639741044104
 6 -9.25765393839384  1.05255309910991 -1.70211897449745
 6  1.24110141854185 -6.58629735923592  0.32212300500050
 6  4.72761682658266  2.49134118911891 -1.57584131063106
 6  4.14349998449845  3.67061122132213 -1.17105667696770
 6  2.89140789678968  3.24260596199620 -0.44063261026103
 6  6.04791279567957  2.20738260966097 -2.09709123792379
 6  4.57496829022902  5.07394891209121 -1.33541621352135
 6  6.84864241564156  3.01215763716372 -2.86420108820882
 1 -4.45586353705370  2.30518556345635  0.23138268026803
 1 -4.79952838193819 -0.74102909400940  0.87212846114611
 1 -4.80564068326833  0.49561379047905  2.23680581508151
 1 -3.03650106050605 -1.33647050455045 -0.18378076937694
 1 -3.53504919821982  1.07293036923692 -1.52375957325733
 1  0.51285787008701  0.20992096559656  3.57884321652165
 1  1.28954739873987 -0.40002988698870  2.19555787618762
 1 -0.79435992849285 -2.78334629792979  0.00095991439144
 1 -3.34865701770177  1.54760134543454  3.71208737633763
 1 -1.68738359775978  1.54828345584558  3.96823654825483
 1 -2.29002180148015  2.90209884568457  2.69177133113311
 1 -6.64656855195520  2.50730968306831  1.52481059985999
 1 -7.78807151545155  0.98794512291229  1.50889331193119
 1 -8.03714220552055  2.57463963406341  0.30195919311931
 1  1.18051023232323  2.35232784078408  1.39601960956096
 1  0.42844688478848  2.51430951875188  2.87951830633063
 1  1.53730934923492  0.26595298549855 -0.13101532763276
 1  1.98357661626163 -4.95166068926893 -1.67973603580358
 1  0.37891597199720 -4.44827474087409 -1.19305207490749
 1 -7.77749307430743  0.62520515451545 -3.30111102310231
 1  1.24164710481048 -4.66861116541654  1.33345303290329
 1  2.85839688258826 -5.09474595359536  0.65521946034603
 1  4.17409185298530 -4.29391692019202 -1.77571662426243
 1  5.36874899639964 -2.84339322012201 -1.27891281278128
 1  4.50628772507251 -2.71309336493649 -2.80671099339934
 1  4.82183499059906 -0.41235534433443 -1.93992068026803
 1 -9.55434495669567  1.22223312051205 -0.65584627082708
 1 -10.11179934503450  1.19448382678268 -2.44746448814882
 1  3.55438186958696  3.25238780738074  3.86322450465046
 1  6.57141214681468  1.13642784928493 -1.71218872207221
 1  4.28196920712071  5.42512560456046 -2.33512056705671
 1  3.97840584468447  5.73345041494149 -0.66842992619262
 1  5.83153492499250  5.21461791639164 -1.07382913101310
 1  1.61106864536454 -8.45315655815581  0.90020969406941
 1  7.99193047484748  2.87036434273427 -3.13613237543754
 1  6.31703314761476  3.97902547384738 -3.43059594869487

