%nproc=4
%Mem=2GB
# td=(NStates=1) B3LYP/SVP 

TD

0 1
 8 -5.46658202000200  0.14666878187819 -3.36902973577358
 8  2.91236806290629  2.95934165756576  3.33434969936994
 8  3.11047178497850  0.76305131423142  3.32205416661666
 8  1.50310444634463 -7.19551545594559  1.59257966776678
 8  0.71727847724772 -7.09435033903390 -0.46864079527953
 8  2.12093555285529  4.07807077407741 -0.07677941354135
 7 -2.33131373407341 -0.81986699329933  0.49357588468847
 7 -4.53768767266727  0.65118936753675 -1.32507443954395
 7  1.83468319541954 -0.69318129912991 -0.40696213431343
 7  2.76005727612761  1.84553300340034 -0.54975245024502
 6 -4.85483773007301  1.24157433683368 -0.06466601010101
 6 -4.44360896629663  0.43044946264626  1.10363242394239
 6 -2.98642209840984  0.15857073947395  1.27276261636164
 6 -1.99268431273127  0.69610175717572  2.06963776197620
 6 -0.70346423392339  0.06937837933793  1.83614237643764
 6 -0.92504687968797 -0.90027513661366  0.85260196849685
 6 -6.41172727012701  1.53535529142914 -0.27171558535854
 6  0.55831931523152  0.31810973407341  2.50438510731073
 6 -6.80060249194919  1.02491479667967 -1.46526738443844
 6 -0.22797853985399 -1.92148744984498  0.16411358705871
 6  1.04643755495550 -1.81155366796680 -0.35075386858686
 6 -5.60364842294229  0.57058675187519 -2.23081252205221
 6  1.91351722162216 -3.02156573257326 -0.81230654725473
 6 -2.29380612181218  1.62058379037904  3.21840048004800
 6 -7.24367635983598  2.00956649264926  0.83334394829483
 6  3.14734026232623 -2.45695772007201 -1.10157131423142
 6  1.11759853245325  1.74554769696970  2.53658887728773
 6  3.11098763976398 -0.95650508990899 -0.96278990999100
 6  1.48631416931693 -4.35446982658266 -0.89476795069507
 6 -8.10151687258726  0.90186475087509 -2.01635635763576
 6  1.70054174427443 -5.05563180558056  0.47430375687569
 6  4.44131184758476 -3.10391165696570 -1.63627562496250
 6  4.06813575577558  0.00406206800680 -1.29642983808381
 6  2.46390900630063  1.70414458875888  3.20538044314431
 6  3.83178770467047  1.36165542184218 -0.98846461716172
 6 -9.24959313231323  0.66871471527153 -1.43509227182718
 6  1.35782309070907 -6.55602433193319  0.42473326602660
 6  4.72601666656666  2.49054110911091 -1.46162988948895
 6  4.13326896139614  3.61341550175018 -1.09256882818282
 6  2.87806656265627  3.33503520492049 -0.49116766376638
 6  5.99996800120012  2.29223109450945 -2.33612514131413
 6  4.47956875027503  5.14960647784778 -1.21078375027503
 6  6.81548910031003  3.19683610501050 -2.80240490859086
 1 -4.30190814151415  2.26345139003900  0.03950349234924
 1 -5.00449887898790 -0.52885787688769  1.23744499279928
 1 -4.71293141234124  0.96677090619062  1.89927206170617
 1 -2.82790020042004 -1.44072092959296 -0.11933432473247
 1 -3.42973866716672  0.46876995319532 -1.71106830413041
 1  0.31920850515052 -0.10317034353435  3.50927625982598
 1  1.44065250925093 -0.29863974797480  1.97032535293529
 1 -0.77850834333433 -2.91171913521352 -0.05241542314231
 1 -3.28424057605761  1.62400898619862  3.60842701030103
 1 -1.52817767716772  1.35426405390539  4.05681540614061
 1 -2.01089388868887  2.60895953175318  3.02566472047205
 1 -6.55841973707371  2.79480843294329  1.35235335413541
 1 -7.46399910821082  1.17848417681768  1.30303272587259
 1 -8.21095958725873  2.50119228932893  0.45424442164216
 1  1.40126230753075  2.05073768176818  1.50318032563256
 1  0.31463550365036  2.44765285308531  3.00919127362736
 1  1.44057967626763  0.17480387058706 -0.37371959805981
 1  2.22207046564657 -5.05637116031603 -1.50367843004300
 1  0.49900798119812 -4.54741465486549 -1.02866563626363
 1 -8.06858218321832  0.80066270027003 -3.09216012801280
 1  1.10499343944394 -4.60455475977598  1.39184887248725
 1  2.85460650355035 -4.88257473647365  0.62430636903690
 1  4.34503894769477 -4.18108563706371 -1.92232128472847
 1  5.30671279277928 -2.58199708050805 -1.06262118361836
 1  4.51888898519852 -2.66415847144714 -2.51825214751475
 1  4.95784859195920 -0.39451356015602 -1.95245193339334
 1 -9.36272579477948  0.84408530573057 -0.24274496069607
 1 -10.23729189428943  0.61671605000500 -1.99602934463446
 1  3.97102353375338  2.95816838543854  3.68458664086409
 1  6.05909091469147  1.13426763326333 -2.50230773397340
 1  4.56435744594460  5.41974506650665 -2.24109116411641
 1  3.79866787088709  5.74207127702770 -0.66944002720272
 1  5.53958573007301  5.32500895549555 -0.65209695779578
 1  0.98049558805881 -8.04844608710871  1.25699537263726
 1  7.71658294009401  2.78862616891689 -3.56801556375637
 1  6.78142958725873  4.42358993029303 -2.47216010511051

