%nproc=4
%Mem=2GB
# td=(NStates=1) B3LYP/SVP 

TD

0 1
 8 -5.32643800560056  0.12872698769877 -3.33066589938994
 8  2.79567639373937  3.18739446284628  3.52281854625463
 8  3.29144988278828  0.92762777187719  3.23411537273727
 8  1.44230836673667 -7.37450335473547  1.50240064986499
 8  0.60770752015202 -7.08333923792379 -0.55997992919292
 8  1.80662412171217  3.96413938093809 -0.12800453605361
 7 -2.39430003270327 -0.93268827542754  0.62431895899590
 7 -4.29816372027203  0.60375462406241 -1.23780571267127
 7  1.90304003110311 -0.80269225022502 -0.30627206530653
 7  2.68164943534353  1.82595104520452 -0.56876435143514
 6 -4.73267551385138  1.17182736213621  0.03901435793579
 6 -4.45319992539254  0.24116053375338  1.26149821052105
 6 -2.98065152135214  0.09765464786479  1.37213255335534
 6 -1.96941198549855  0.71459360636064  2.05880667886789
 6 -0.68319220672067  0.15737717921792  1.73189195139514
 6 -0.99171354635464 -0.85787089618962  0.81073778207821
 6 -6.25898199559956  1.39942169806981 -0.16152456625663
 6  0.51288477177718  0.36705462856286  2.51315598439844
 6 -6.63302573427343  1.00758306350635 -1.46420727842784
 6 -0.15913165516552 -1.86379168026803  0.12548972467247
 6  1.14246715791579 -1.92837535013501 -0.31203999719972
 6 -5.30823888198820  0.49083877707771 -2.14062350315031
 6  1.96746261616162 -2.97658123412341 -0.78240355695570
 6 -2.23490023122312  1.90799253125313  3.12197083708371
 6 -7.16307830003000  1.86321185718572  0.96973758765877
 6  3.18099362766277 -2.47034905920592 -1.16097725482548
 6  1.05257202980298  1.85146828902890  2.55727094549455
 6  3.05840238123812 -1.06933637303730 -0.94512814381438
 6  1.49333487138714 -4.42848722832283 -0.80027850175017
 6 -7.90349707060706  1.02438700310031 -2.14623934593459
 6  1.65153684378438 -5.22362860526053  0.48985531203120
 6  4.23633134953495 -3.21254252005201 -1.92203420082008
 6  3.96801574377438  0.06292795459546 -1.29555975107511
 6  2.51115373077308  1.93466764106411  3.14134403950395
 6  3.76095062096210  1.38026728302830 -1.06584235493549
 6 -9.18918709170917  1.07140498429843 -1.66335509810981
 6  1.22937024542454 -6.64276300580058  0.39030982368237
 6  4.63228729362936  2.48026008100810 -1.56824055055506
 6  4.06277191169117  3.63512767296730 -1.17259683098310
 6  2.75854461046105  3.30442214361436 -0.52176072307231
 6  6.00266827122712  2.37845971737174 -2.11982351115112
 6  4.36379717311731  5.10203172037204 -1.30558323022302
 6  6.83803135453545  3.31703812521252 -2.67707237533753
 1 -4.09024697539754  1.95827087198720  0.28853839583958
 1 -5.04359278837884 -0.77399239033903  1.13170441874187
 1 -4.85217533673367  0.73884811391139  2.17030916541654
 1 -2.89003641404140 -1.57216407390739 -0.08148053935394
 1 -3.25329102240224  0.53563663986399 -1.47894509180918
 1  0.34511109540954  0.08990896439644  3.54450978317832
 1  1.22687113111311 -0.13753363736374  2.01671999239924
 1 -0.62682317481748 -2.78861682498250 -0.24455463706371
 1 -3.22921507350735  1.69872645794579  3.64338050565056
 1 -1.33732859225923  1.77636626412641  3.87676740134013
 1 -2.15618841814181  2.88821745754575  2.50628278227823
 1 -6.78760265536554  2.59640859295930  1.74901302010201
 1 -7.42056476477648  0.92180850925093  1.41333375597560
 1 -8.37203569486949  2.12852502260226  0.65904490169017
 1  1.29731191249125  2.06667927592759  1.45652566016602
 1  0.23958799889989  2.45770385818582  3.21418177267727
 1  1.66578219651965  0.29361575177518 -0.22773499959996
 1  2.07150540914091 -4.97469299249925 -1.60316837903790
 1  0.43070115051505 -4.44620453385339 -1.08541131083108
 1 -7.79733505850585  0.68888152215222 -3.14521543354335
 1  1.11001394149415 -5.01234553885389  1.42361204880488
 1  2.57975901880188 -5.03837031603160  0.60442438083808
 1  4.26566100990099 -4.34021154965497 -1.80383943654365
 1  5.35106722822282 -2.83411229202920 -1.68351327282728
 1  4.25993308960896 -2.91847390299030 -3.01122144444444
 1  5.01717452455245 -0.26089019781978 -1.70118680688069
 1 -9.55570509270927  0.88118901610161 -0.74735542174217
 1 -10.02506067116712  1.11058543694369 -2.18481822352235
 1  3.66910334173417  3.09390195879588  4.08566674887489
 1  6.48224322992299  1.36982118861886 -1.99075657885789
 1  4.35998700890089  5.18718181018102 -2.28173522852285
 1  3.68032603670367  5.58624569446945 -0.57333041624162
 1  5.43768554005401  5.29535599019902 -0.96132788088809
 1  1.03467100560056 -8.34593583608361  1.39540921402140
 1  7.83374465626563  2.92529983628363 -3.02248101030103
 1  6.57377882218222  4.38678624992499 -2.87282017111711

