%nproc=4
%Mem=2GB
# td=(NStates=1) B3LYP/SVP 

TD

0 1
 8 -5.43178854065406  0.27275139013901 -3.37825065786579
 8  2.84851167726773  3.11163688708871  3.29736600100010
 8  3.21284202200220  0.88409341844184  3.27827978917892
 8  1.49633376927693 -7.06294219861986  1.77835824562456
 8  0.83443019241924 -7.24403530753075 -0.46609054025403
 8  1.89317277657766  3.96901986898690 -0.25063679927993
 7 -2.31318192089209 -0.89574458105811  0.49556608370837
 7 -4.51113501740174  0.59188343694369 -1.36354828692869
 7  1.79710943804380 -0.74359634063406 -0.48714015211521
 7  2.74453572397240  1.83303175327533 -0.55653312831283
 6 -4.82909515581558  1.11548172757276 -0.00882042554255
 6 -4.50745535093509  0.10691710941094  1.20852291299130
 6 -2.99032248844884 -0.01717683528353  1.31903724382438
 6 -2.12570761506151  0.61528367536754  2.14253505170517
 6 -0.81407529502950  0.09289073057306  1.71263002520252
 6 -0.95805018001800 -0.91343645274527  0.74107081538154
 6 -6.36329242664266  1.35763751965197 -0.10643905770577
 6  0.53858734203420  0.33601152425243  2.45097976677668
 6 -6.69620205190519  1.11589389458946 -1.39949080678068
 6 -0.20029577157716 -1.90472577367737  0.06789396509651
 6  1.02171508270827 -1.84554706730673 -0.37602639583958
 6 -5.55016307440744  0.60501019421942 -2.26792623342334
 6  1.88418428832883 -2.87535111111111 -0.84962027862786
 6 -2.25494223542354  1.68317004900490  3.17848648864887
 6 -7.13634562676268  1.91278681468147  1.04670528442844
 6  3.15663119141914 -2.46699872417242 -1.23393455055506
 6  1.09582635523552  1.77355049724972  2.58865408380838
 6  3.04200074107411 -1.00939037843784 -1.00889452045205
 6  1.46173171107111 -4.41479585918592 -0.85479395329533
 6 -8.08003472437244  1.02899746414641 -2.08624334633463
 6  1.77959965006501 -5.13560980338034  0.54345067156716
 6  4.31028874527453 -3.11833309910991 -1.89925192259226
 6  4.01499044124412 -0.01460979917992 -1.35939613471347
 6  2.51033364876488  1.83693786808681  3.09157906300630
 6  3.80298482438244  1.36635589188919 -1.11435720642064
 6 -9.29225739873987  1.10931877567757 -1.53114187678768
 6  1.31660896929693 -6.57446617611761  0.50391118381838
 6  4.75780984588459  2.50060211521152 -1.49108283478348
 6  4.14772040654065  3.67044120432043 -1.09949952125213
 6  2.83352210821082  3.27489919131913 -0.58867741474147
 6  6.12357036143614  2.30372224362436 -1.98720024882488
 6  4.52797359075908  5.06201771897190 -1.20568324022402
 6  6.98493604500450  3.28865528692869 -2.47036170427043
 1 -4.43038098879888  2.08726377127713  0.22256179817982
 1 -5.10188861796180 -0.70932592369237  0.89734098239824
 1 -4.94339445864586  0.58726295539554  2.16720885538554
 1 -2.85202261266127 -1.61808866636664 -0.01620401170117
 1 -3.62378807210721  0.72817589378938 -1.53408060536054
 1  0.49726631093109 -0.09886991349135  3.48403373557356
 1  1.39726817081708 -0.38175805980598  1.86318463886389
 1 -0.65410590309031 -2.85577354065407  0.08441826022602
 1 -3.34256640864086  2.11848843414341  3.08630479807981
 1 -1.78305316471647  1.47587621512151  4.25113483808381
 1 -1.67266006530653  2.60280891669167  2.82565471947195
 1 -6.53468736383638  2.50974992709271  1.71582970177018
 1 -7.52897560586059  1.11283761216122  1.78950137273727
 1 -7.98476696799680  2.56179834993499  0.79464846204620
 1  0.99326150745075  2.31699430743074  1.70272027962796
 1  0.47816185628563  2.21982006980698  3.58197855235524
 1  1.63058867716772  0.35113150335033 -0.33914614071407
 1  2.24208246684668 -4.94193971717172 -1.63110117231723
 1  0.53243132353235 -4.55926583998400 -0.96063883358336
 1 -7.79552487748775  0.74427706170617 -3.16822773477348
 1  1.28950189028903 -4.67426173047305  1.49755944354435
 1  2.95215625852585 -5.34623110211021  0.86918085648565
 1  4.30787523132313 -4.25465299379938 -2.32910196279628
 1  5.25536765826583 -3.09330821162116 -1.37468238973897
 1  4.47492458875888 -2.40825288088809 -2.76900722302230
 1  4.83097590469047 -0.42953706250625 -1.94125081328133
 1 -9.40444996719672  1.13051394859486 -0.35285597179718
 1 -10.25228339343935  0.80892527092709 -2.16235597729773
 1  3.65407183858386  3.03661623022302  3.70104828702870
 1  6.52545755135514  1.35969017551755 -2.11071857505751
 1  4.82016302650265  5.12486557855786 -2.37797485248525
 1  3.49557756185619  5.60128719861986 -1.11797488068807
 1  5.37028880038004  5.27419387398740 -0.61338308640864
 1  1.35062260076008 -8.13472471497150  1.64699437253725
 1  7.93053433523352  2.95298260456046 -2.64288305050505
 1  6.53985542984298  4.31054862616262 -2.43829671877188

