%nproc=4
%Mem=2GB
# td=(NStates=1) B3LYP/SVP 

TD

0 1
 8 -5.28010337213721  0.10104421942194 -3.24947778057806
 8  2.90534736083608  3.19078480188019  3.18251451585158
 8  3.18615935373537  0.97915292439244  3.15875783698370
 8  1.39668380428043 -7.34898080248025  1.34128453825383
 8  0.30343709310931 -6.79094999899990 -0.58284221542154
 8  1.82300575987599  3.91718468546855 -0.29505124072407
 7 -2.35311591429143 -0.94150915751575  0.64116064316432
 7 -4.29800370427043  0.62290653925393 -1.23406533863386
 7  1.86452617971797 -0.68574055505551 -0.28390982908291
 7  2.79868113851385  1.71474992509251 -0.53338081308131
 6 -4.76878912521252  1.25935611501150  0.00262071857186
 6 -4.50153475887589  0.26906332403240  1.17560962166217
 6 -2.94800825702570 -0.00575569316932  1.34368970907091
 6 -2.00801584588459  0.62316446344634  2.12386318451845
 6 -0.78698258575858  0.10300174167417  1.82170093229323
 6 -0.98047242224222 -0.96037114621462  0.86572328062806
 6 -6.22152825022502  1.47533928982898 -0.15092350615061
 6  0.48588207150715  0.39360728382838  2.55875054385439
 6 -6.59324175587559  0.96805911111111 -1.43860471817182
 6 -0.10129587158716 -1.89749505060506  0.18907608330833
 6  1.13188609980998 -1.85299781238124 -0.17530632383238
 6 -5.33952201030103  0.52629232243224 -2.11706114691469
 6  1.92960883078308 -2.90749432543254 -0.77741305790579
 6 -2.35037177837784  1.71012274427443  3.08983762376238
 6 -7.11901389358936  1.90668620462046  0.96545715961596
 6  3.12246777507751 -2.43598562286229 -1.06860801790179
 6  0.99213598619862  1.85502864506451  2.40536575497550
 6  3.07892443344334 -0.93781322072207 -0.79908353935394
 6  1.48579411731173 -4.35580996059606 -0.84327280118012
 6 -7.82841956285629  0.73978854325433 -2.04986970897090
 6  1.86919860996100 -5.20188643104310  0.35847217371737
 6  4.35027274367437 -3.08231949774977 -1.71137313471347
 6  4.10791973417342 -0.07030536873687 -1.16562675777578
 6  2.43793640904090  1.84219839413941  3.01508141324132
 6  3.84286881278128  1.35180443674367 -1.13354912561256
 6 -9.15235340834083  0.95940378417842 -1.55425418801880
 6  1.10170747914791 -6.54720344984498  0.29084987768777
 6  4.73586765166517  2.48863091809181 -1.45862958945895
 6  3.96732236673667  3.67468162836284 -1.18221779307931
 6  2.68246700270027  3.18809051045105 -0.63531207820782
 6  6.11538954335434  2.35212708410841 -1.88977050585058
 6  4.40465125852585  5.08486000320032 -1.30903357525753
 6  6.75794334573457  3.23512993439344 -2.65288995709571
 1 -4.22628057875788  2.02117716261626  0.24301384338434
 1 -5.07055548464847 -0.67185217631763  0.96866811511151
 1 -4.92533265246525  0.66350057915792  2.00219235373537
 1 -2.96254366476648 -1.54449130663066  0.07435504420442
 1 -3.32191788508851  1.02289536573657 -1.32636983428343
 1  0.55378196249625  0.23675364886489  3.67214254645465
 1  1.14190263426343 -0.34531441544154  2.09178749914992
 1 -0.62305279777978 -2.77459542284228 -0.13726390799080
 1 -3.45658781078108  1.63434001930193  3.45220138773877
 1 -1.66686154555456  1.56355498299830  3.93552327692769
 1 -2.27241004030403  2.93431206700670  2.68907106110611
 1 -6.54673856895690  2.40811976407641  1.91360947974797
 1 -7.90691339963996  0.81314764316432  1.19917233983398
 1 -7.78982747404740  2.82852502260226  0.58240723792379
 1  1.17062924422442  2.04464707270727  1.36987699529953
 1  0.41607564766477  2.48702679047905  3.00614096859686
 1  1.45415103340334  0.40199658985899 -0.09254148024802
 1  1.83846210481048 -4.88212373557356 -1.89650771297130
 1  0.38254633503350 -4.40868078147815 -0.92657542724272
 1 -7.57706303130313  0.43732636663666 -3.20942185418542
 1  1.48180112021202 -4.61924622892289  1.25867555515552
 1  2.98160920382038 -5.49064554355436  0.58744268266827
 1  4.04241868566857 -4.17763529202920 -2.07743679627963
 1  5.26217833933393 -3.20780966176618 -1.09821474297430
 1  4.86420351665167 -2.20949300490049 -2.48265858815882
 1  5.16495930303030 -0.21534564336434 -1.56002269046905
 1 -9.39644916711671  1.24871576877688 -0.42329301550155
 1 -9.93160132523252  0.89374375277528 -2.32901264296430
 1  4.00426685808581  2.89220178877888  3.31640982318232
 1  6.42194720032003  1.44696890339034 -1.63259076227623
 1  4.21494250445044  5.32996608860886 -2.38964601960196
 1  3.80858886298630  5.70355742564257 -0.61271435463546
 1  5.29538130963096  5.17996445104510 -1.19214096219622
 1  0.95701323982398 -8.25734697719772  1.30768044114411
 1  7.92837411921192  3.15637294359436 -2.83281204340434
 1  6.15011645594559  4.13452102340234 -2.92522541164116

