%nproc=4
%Mem=2GB
# td=(NStates=1) B3LYP/SVP 

TD

0 1
 8 -5.50741610341034  0.16299041404140 -3.42872570537054
 8  2.91156798289829  3.03943966736674  3.32466873127313
 8  3.26163690149015  0.93095810491049  3.31697365856586
 8  1.43024716061606 -7.06339224362436  1.57850826062606
 8  0.49789653905391 -7.00220112411241 -0.47153108430843
 8  2.18088154745475  4.12410537753775 -0.01817355295530
 7 -2.38735933863386 -1.00560556715672  0.63766029312931
 7 -4.52382628652865  0.26318056665667 -1.30300223232323
 7  1.82209193629363 -0.66210819181918 -0.47528896699670
 7  2.81555282568257  1.97452590269027 -0.35549302430243
 6 -4.78428067436744  1.11498167756776 -0.10211975547555
 6 -4.46556116151615  0.34112052975298  1.16677873857386
 6 -3.07220067626763  0.05207008940894  1.34691003110311
 6 -2.08399344364436  0.69977212421242  2.14609540774077
 6 -0.73459734723472  0.15921736323632  1.72428119031903
 6 -0.98789316431643 -0.92896800590059  0.92038874717472
 6 -6.31942804020402  1.41713346924692 -0.23769218301830
 6  0.47106058935894  0.30392831593159  2.47877254605461
 6 -6.74185661736174  0.89558186338634 -1.46035689338934
 6 -0.20256599859986 -1.81691699279928  0.19122629832983
 6  1.07674058525853 -1.85842835543554 -0.31328012121212
 6 -5.58947700580058  0.37122681588159 -2.28505794659466
 6  1.91893776367637 -2.88845242124212 -0.83223854045405
 6 -2.33823056425643  1.76044777677768  3.06650529052905
 6 -7.21425341754175  1.87580311631163  0.97539815371537
 6  3.12512804110411 -2.34433645794579 -1.22785394249425
 6  1.17146391899190  1.73867700990099  2.50762598099810
 6  3.10111665266527 -0.88146758615862 -0.96233986498650
 6  1.50071560946095 -4.35309968956896 -0.87230570447045
 6 -8.05097181808181  0.90040460486049 -2.03389811181118
 6  1.77175886598660 -5.04490073247325  0.41069739623962
 6  4.26769448584859 -3.13700496629663 -1.86721871927193
 6  4.03869281148115  0.05006666846685 -1.33517371247125
 6  2.43060567596760  1.84966914121412  3.02946285138514
 6  3.82338686458646  1.39595885218522 -1.09166493719372
 6 -9.28939711271127  0.74801264506451 -1.42929169176918
 6  1.15423273167317 -6.49294802430243  0.39713050575058
 6  4.80970503540354  2.45002705770577 -1.46995072157216
 6  4.24720035453545  3.65275943614361 -1.05740531183118
 6  2.97244600060006  3.37557925932593 -0.43785233223322
 6  5.94787279167917  2.20997286868687 -2.28385991479148
 6  4.70502129552955  5.07980949814982 -1.10654332623262
 6  7.01286883828383  3.10934735613561 -2.62258692679268
 1 -4.22222017271727  2.07590263516352 -0.21126158415842
 1 -5.19034746384639 -0.56628161926193  1.08337958625863
 1 -4.78452857205721  0.93060728982898  2.15153728822882
 1 -2.76970438083808 -1.39630648814881 -0.16069846114611
 1 -3.62012770607061  0.41947502370237 -1.72818001530153
 1  0.12457904220422  0.00999097259726  3.38130346254625
 1  1.13037148114811 -0.51587147114712  1.86228454885489
 1 -0.62875336783678 -2.83282124542454  0.08554837323732
 1 -3.38040019201920  2.10571715701570  3.18752492009201
 1 -1.96771163056306  1.56676530403040  4.07133685828583
 1 -1.89049184848485  2.64430306610661  2.61295344934493
 1 -6.77128102320232  2.53377232933293  1.60301842064206
 1 -7.47077978627863  1.05317164556456  1.64955737833783
 1 -8.10510900220022  2.32128429852985  0.61888088528853
 1  1.21603378467847  2.37867047504750  1.50818082568257
 1  0.60157419751975  2.52020010781078  3.24517487198720
 1  1.59663528182818  0.37865425562556 -0.30147237333733
 1  2.09345760436044 -5.02163768696870 -1.76686474867487
 1  0.53808188858886 -4.57360727412741 -1.03482625232523
 1 -7.98171349634964  1.02055468946895 -3.10394130613061
 1  1.35096803690369 -4.46942124642464  1.38158784638464
 1  2.93539458235824 -5.18008448744875  0.75427936633663
 1  4.01488593239324 -4.20649817831783 -2.17977703030303
 1  5.21364348584859 -3.15520440124012 -1.19529445094509
 1  4.57681477777778 -2.63543559915992 -2.72374269656966
 1  5.02139494659466 -0.49138324712471 -1.41366805500550
 1 -9.31266078827883  0.60930182738274 -0.25906659285929
 1 -10.12674083918392  0.59262364076408 -1.98753849554955
 1  3.80230666206621  2.97900046864686  3.44136231843184
 1  5.92079708530853  1.03953816031603 -2.85824332753275
 1  4.74580559075908  5.30702379437944 -2.16443349834984
 1  4.05263326742674  5.73514058395840 -0.67021010421042
 1  5.71284305580558  5.12693914851485 -0.82053380148015
 1  1.14294183268327 -8.06307755025503  1.34070374347435
 1  7.83773505530553  2.68693599989999 -3.14357311951195
 1  7.07651909620962  4.26628419971997 -2.28203109220922

