%nproc=4
%Mem=2GB
# td=(NStates=1) B3LYP/SVP 

TD

0 1
 8 -5.55646100790079 -0.01922780778078 -3.28508134093409
 8  2.77401422752275  3.20287601100110  3.54253051745175
 8  3.41963270107011  1.04765977507751  3.13919588078808
 8  1.36419055495550 -7.11870777517752  1.57496790659066
 8  0.32057880728073 -6.83294419841984 -0.39748367956796
 8  2.17767122642264  4.01899486648665 -0.07179891549155
 7 -2.35970657335734 -0.87964297089709  0.57811433853385
 7 -4.50243414731473  0.49591383998400 -1.30589252135214
 7  1.89997972507251 -0.60925290629063 -0.39366080418042
 7  2.76868813921392  1.83307175727573 -0.57501497649765
 6 -4.81634388068807  1.05989616901690 -0.08840838433843
 6 -4.52568717411741  0.30041645934593  1.21635369606961
 6 -2.98552200840084  0.06443132553255  1.31406674677468
 6 -1.98953399769977  0.75436758375838  2.07560835903590
 6 -0.70929481698170  0.24256569806981  1.57811657385739
 6 -1.01642601760176 -0.80185529462946  0.68496520482048
 6 -6.39757585498550  1.21884364026403 -0.18453686748675
 6  0.56833031633163  0.32960088318832  2.43834850365037
 6 -6.78154058575858  0.84654695989599 -1.36203706140614
 6 -0.20706644864486 -1.82310761186119  0.05944312001200
 6  1.04358726992699 -1.74629714231423 -0.36726551975198
 6 -5.56403446154615  0.39314900810081 -2.12999244004400
 6  1.95281115101510 -2.88544212021202 -0.83998931553155
 6 -2.28226496769677  1.73695542754275  3.13827246724673
 6 -7.16917891009101  1.63499903590359  0.90745135903590
 6  3.12182771107111 -2.34349637393739 -1.18753991109111
 6  1.08552532513251  1.68969211141114  2.57200241864186
 6  3.08605514651465 -0.94850428982898 -1.00202383338334
 6  1.41242678057806 -4.26244062366237 -0.93124159805981
 6 -8.10459718061806  0.85244980938094 -2.01917663966397
 6  1.84732642274227 -5.12686892929293  0.26784311081108
 6  4.22052976937694 -3.17906917271727 -1.89887188458846
 6  4.18410735293529 -0.01507984618462 -1.24332452755276
 6  2.47705032043204  1.90580475477548  3.07380728582858
 6  3.89786431233123  1.34728398469847 -1.01281705240524
 6 -9.35616378937894  0.80914875867587 -1.54004276687669
 6  1.09018632703270 -6.39813854335434  0.43904469716972
 6  4.92047611251125  2.47210926592659 -1.36240996749675
 6  4.26218185268527  3.67380154035404 -1.02346191749175
 6  2.95233398939894  3.20640234163416 -0.49958850585058
 6  6.22771077547755  2.22599447084708 -1.93498502730273
 6  4.69678047144714  5.11233275047505 -1.08833150505051
 6  6.88794634603460  2.99067548894890 -2.78052272037204
 1 -4.36095404610461  2.06430147504750 -0.14324478247825
 1 -5.14592302140214 -0.73239823092309  1.24059530783078
 1 -4.70334045324532  0.88683291239124  2.23299543404340
 1 -2.88444585498550 -1.30681753925393 -0.27070946224622
 1 -3.60745643894389  0.52712578877888 -1.70411760906091
 1  0.46402298659866 -0.04015404190419  3.50736606880688
 1  1.34335277927793 -0.16390627462746  1.87540586098610
 1 -0.73443393589359 -2.71635959925993 -0.10697087868787
 1 -3.37522967496750  1.58795538083808  3.36560272787279
 1 -1.86459131853185  1.39332796029603  3.91950167476748
 1 -2.00664346364636  2.84570320612061  3.07517967196720
 1 -6.98898279337934  2.45293424552455  1.70653877267727
 1 -7.75627833613361  0.87200352875288  1.49569199179918
 1 -8.12913140444044  2.16669883998400  0.55663466066607
 1  1.10528270957096  2.07875048304830  1.53086309390939
 1  0.36641068116812  2.43240132793279  3.08727908240824
 1  1.53533915221522  0.33836022622262 -0.38334056015602
 1  1.79120737933793 -4.71634715791579 -1.85125318751875
 1  0.29712779317932 -4.32833274667467 -1.03406617631763
 1 -7.80469579457946  0.84502713671367 -3.11457236923692
 1  1.76325926602660 -4.32743704800480  1.19239892749275
 1  3.14466550945094 -5.31412789178918  0.28165210361036
 1  3.88741318511851 -4.09168669716972 -2.00108916151615
 1  5.13841596309631 -2.96265514631463 -1.23391831333133
 1  4.23079017531753 -2.71889394499450 -2.82531285358536
 1  5.04196700380038 -0.35921002980298 -1.64748143634363
 1 -9.50643016521652  0.75650654785478 -0.56602728892889
 1 -10.10112827792779  0.78379275767577 -2.15432517421742
 1  3.71405783718372  3.15702827142714  3.69591777397740
 1  6.69517452305231  1.25891009750975 -1.53854135733573
 1  4.30364137433743  5.43941703370337 -2.03826088108811
 1  4.16255425952595  5.61497856775678 -0.06588967216722
 1  5.77220899239924  5.14670112471247 -1.04620636873687
 1  0.96346388488849 -7.79178042054205  1.28656832993299
 1  7.76614789658966  2.72184949124912 -3.24913367556756
 1  6.44016546084609  4.06613418471847 -3.31244413351335

