%nproc=4
%Mem=2GB
# td=(NStates=1) B3LYP/SVP 

TD

0 1
 8 -5.47032239403940  0.25163927892789 -3.43794662746275
 8  2.82487931403140  2.94674039743974  3.32165843024302
 8  3.17327806560656  0.87043205230523  3.56051801300130
 8  1.56862099799980 -6.88981488588859  1.76743715351535
 8  0.33192994239424 -7.00633153715372 -0.09547347854785
 8  1.99105256455646  3.98860182718272  0.02598086248625
 7 -2.37322792549255 -0.78320332693269  0.56509303640364
 7 -4.42007591149115  0.54011826042604 -1.23944587668767
 7  1.90195992309231 -0.68041002200220 -0.52571400950095
 7  2.77626889728973  1.84930338043804 -0.39715719071907
 6 -4.86826907320732  1.13400357975798  0.00133058955896
 6 -4.46876148154815  0.39057547524752  1.23371543224322
 6 -2.99349280548055  0.06236111851185  1.35951129122912
 6 -1.98151319561956  0.60617276427643  2.16591738993899
 6 -0.77859174667467 -0.07057561606161  1.82767152935294
 6 -1.01644601960196 -0.88384349344934  0.74714142244224
 6 -6.38675477287729  1.26847860376038 -0.18574698849885
 6  0.58480196349635  0.29031695479548  2.53819848864887
 6 -6.71697412911291  0.85343764896490 -1.41379223692369
 6 -0.22928867086709 -1.80365566666667  0.11578875457546
 6  1.07549046024602 -1.77391990459046 -0.43011180438044
 6 -5.46456451455145  0.51755144834483 -2.24352379317932
 6  1.81519738963896 -2.87139071507151 -1.11114643124312
 6 -2.14303104430443  1.68844057605761  3.24158279827983
 6 -7.23783577577758  1.87124266026603  0.89868048194819
 6  3.10275580388039 -2.44755677997800 -1.41847300440044
 6  1.09709648224822  1.66776991919192  2.51506672507251
 6  3.10635717671767 -0.98733817321732 -1.20997462846285
 6  1.50612615051505 -4.39803418301830 -0.98642711661166
 6 -8.04459118001800  0.86158072247225 -2.16081080308031
 6  1.88222991309131 -5.00447669006901  0.35849217571757
 6  4.23886160256026 -3.09056032183218 -2.05149714711471
 6  4.04522346454645  0.00857251905190 -1.45899609470947
 6  2.44817743314331  1.81003517781778  3.07516742184218
 6  3.85953047894789  1.37671692799280 -1.10013578427843
 6 -9.21514968796880  0.77149499329933 -1.59492825542554
 6  1.18003531193119 -6.34459318881888  0.56391718441844
 6  4.75349941484148  2.49275133013301 -1.51948567506751
 6  4.22072770727073  3.64339850005000 -1.11067063836384
 6  2.85675443144314  3.24746644804480 -0.39822836983698
 6  6.05625362976298  2.21841371277128 -2.13538506730673
 6  4.57047784118412  5.03239475667567 -1.27107977987799
 6  6.88979653105311  3.15732215361536 -2.50435510361036
 1 -4.39840779147915  2.10529557445745  0.05073461546155
 1 -5.04679310841084 -0.57009200030003  1.08286953525353
 1 -4.49683980318032  0.98358258735874  2.14828696319632
 1 -2.70793820422042 -1.38023488098810 -0.28036042734273
 1 -3.48212390569057  0.67611068726873 -1.51237843514351
 1  0.45510209450945 -0.35569559605961  3.60228556075608
 1  1.45325376937694 -0.30261014501450  2.05204352475248
 1 -0.73500399289929 -2.89941790509051 -0.26344652625263
 1 -3.20626277827783  1.76886347164716  3.60236640424042
 1 -1.45266012541254  1.72732135963596  4.08379810441044
 1 -1.78115091439144  2.69155779157916  2.84513666766677
 1 -6.71857575267527  2.58988794089409  1.40656877567757
 1 -7.49408211651165  1.04078040644064  1.64667709030903
 1 -8.02970146144614  2.28461063116312  0.21239023622362
 1  1.00474265556556  2.23880648864886  1.50545055265527
 1  0.65637967806781  2.41798988678868  3.29978033253325
 1  1.75116073437344  0.28028441864186 -0.23813603970397
 1  2.07178543714371 -4.98021354455446 -1.84867292949295
 1  0.44554263466347 -4.59828974237424 -1.16470924062406
 1 -8.10406573157316  0.84755738973897 -3.24710562256226
 1  1.61972491259126 -4.34060836513651  1.22900258785879
 1  2.93203424632463 -5.08191467046705  0.36353029142914
 1  4.21985642944294 -4.13599112761276 -2.25891494409441
 1  5.31766388788879 -3.16662554335434 -1.36907182868287
 1  4.48573566986699 -2.60451250685068 -2.85109543184318
 1  4.85327813491349 -0.49892400120012 -1.95362205040504
 1 -9.29243876607661  0.69905080228023 -0.51665235143514
 1 -10.13441160626063  0.51323570197020 -2.32604234593459
 1  3.76747317871787  3.06093866246625  3.67991617381738
 1  6.39141414701470  1.04446865336534 -2.15717322052205
 1  4.58515952615262  5.62801589358936 -2.22620967596760
 1  3.91427943204320  5.76769383928393 -0.63520660386039
 1  5.59301107260726  5.20096655125513 -0.80261200930093
 1  1.05239277777778 -7.77703894639464  1.63186285938594
 1  7.97641892369237  2.89941724802480 -2.88911767396740
 1  6.77097854215422  4.35853342464246 -2.47015990509051

