%nproc=4
%Mem=2GB
# td=(NStates=1) B3LYP/SVP 

TD

0 1
 8 -5.27985334713471  0.20209432443244 -3.22434526732673
 8  2.97431425752575  2.88903462686269  3.23265953035304
 8  3.18629936773677  0.72599760886089  3.36160812201220
 8  1.99076321222122 -7.13308921332133  1.58911932173217
 8  0.39078582798280 -7.09589049304931 -0.11316524772477
 8  1.80923438273827  4.01521448844885 -0.17368910451045
 7 -2.41193179587959 -0.93739874647465  0.52390891799180
 7 -4.33239714361436  0.77386163476348 -1.20073200530053
 7  1.85298502560256 -0.68190017101710 -0.39860129822982
 7  2.70814208460846  1.79869831993199 -0.51505898089809
 6 -4.78214046034604  1.25129530893089 -0.00561010451045
 6 -4.48928353375338  0.23828024572457  1.19506156685669
 6 -3.03228668486849 -0.06557167476748  1.36811215131513
 6 -2.04780982528253  0.63842598959896  2.07224802300230
 6 -0.75134902240224  0.18605004650465  1.65587434963496
 6 -1.06905128012801 -0.81233634273427  0.67554426272627
 6 -6.26369246664667  1.37745950185019 -0.14352276607661
 6  0.40785426872687  0.21063898699870  2.52757742654265
 6 -6.60532296399640  1.10351265646565 -1.49132999069907
 6 -0.22258800080008 -1.96338163926393  0.16354353005301
 6  1.10508341954195 -1.88510102270227 -0.23747254045405
 6 -5.34364242234223  0.60714040724072 -2.10421986278628
 6  1.93387925782578 -3.00397397339734 -0.86312162876288
 6 -2.30735747694769  1.72661439343934  3.03000164016402
 6 -7.17576956915692  2.02075761176118  0.95007562146215
 6  3.08087361566157 -2.44047607190719 -1.26496765386539
 6  1.07169394199420  1.67917105930593  2.66523174157416
 6  3.06484302530253 -0.99026846624662 -1.00507413841384
 6  1.45489102700270 -4.37082146174617 -0.90375884978498
 6 -7.84135085598560  0.97903246764676 -2.18469319131913
 6  1.80991268136814 -5.11721796419642  0.46984331083108
 6  4.19029674607461 -3.11360262606261 -1.97615961336134
 6  3.96193513571357  0.03805546734673 -1.31861205630563
 6  2.44421703710371  1.65599977427743  3.13966387148715
 6  3.75800032593259  1.42856211251125 -1.07951372207221
 6 -9.17707588058806  1.00269811361136 -1.73670243284328
 6  1.31587889628963 -6.50853958345835  0.53614440714071
 6  4.71130519541954  2.57144919991999 -1.38805253175318
 6  4.07960359485949  3.71514567476748 -1.06358592989299
 6  2.68789754575458  3.22131383278328 -0.56550509750975
 6  6.05301330573057  2.32144401580158 -2.05218674747475
 6  4.38596939033903  5.08391990919092 -1.32015468736874
 6  6.76193374477448  3.26273269466947 -2.74791946004600
 1 -4.29403735443544  2.18268331323132  0.38985852785279
 1 -5.11841027012701 -0.67783277437744  0.90168141644164
 1 -4.87050716991699  0.72706693579358  2.16086822132213
 1 -2.84877228762876 -1.60469732723272  0.01122873157316
 1 -3.20505619891989  0.42408548474848 -1.21530872817282
 1  0.29949653395340 -0.15020504700470  3.55940127232723
 1  1.15789423342334 -0.53327321132113  2.16039435983598
 1 -0.60147063956396 -3.05897386068607  0.06233605200520
 1 -3.40357250925093  1.74450103540354  3.26724289188919
 1 -1.65737059645965  1.46682531003100  3.92432215681568
 1 -2.03595639493949  2.58546718251825  2.64661681568157
 1 -6.44665856095610  2.38032698479848  1.76283440224022
 1 -7.94051675997600  1.20685701410141  1.28988141074107
 1 -8.00363885518552  2.71406357645765  0.40494949214921
 1  1.09683186448645  2.29923253125313  1.68533854145415
 1  0.55607964806481  2.31335942374237  3.35246560106011
 1  1.60932655095509  0.38357474767477 -0.25086731283128
 1  1.66020427902790 -4.92633815701570 -1.80178824102410
 1  0.32386046644664 -4.27705761916192 -1.02400517021702
 1 -7.77412273727373  0.79855248924892 -3.28483939593959
 1  1.38323126322632 -4.68359266356636  1.37568725632563
 1  2.95025606850685 -5.19544602360236  0.73088702710271
 1  4.08456290009001 -4.01714924342434 -2.19707876047605
 1  5.22803492499250 -3.23401228202820 -1.56685160666067
 1  4.33856095239524 -2.59968202380238 -2.93507382968297
 1  4.76328913601360 -0.26942105090509 -1.98435512371237
 1 -9.57598712091209  1.22792368956896 -0.63234392059206
 1 -9.78805697079708  0.88434281268127 -2.69513925562556
 1  3.76238266966697  2.92458502710271  3.38301648384839
 1  6.48051305690569  1.40823503000300 -2.30915841904190
 1  4.28235924612461  5.57399049104910 -2.35022207720772
 1  3.64354235833583  5.76712378227823 -0.81190427362736
 1  5.40351212271227  5.16777323192319 -0.97669941804180
 1  1.51746928542854 -8.16495773827383  1.50444011711171
 1  7.61093237503750  3.02773007930793 -3.24381314351435
 1  6.45654709900990  4.33383095439544 -2.58586147524752

