%nproc=4
%Mem=2GB
# td=(NStates=1) B3LYP/SVP 

TD

0 1
 8 -5.39551491329133  0.59715383038304 -3.43990682348235
 8  2.87209403550355  2.99570529392939  3.02217848224822
 8  3.15534627242724  0.81340634973497  3.45509747094709
 8  1.67548168406841 -7.19578548294829  1.63521393119312
 8  0.58861561096110 -6.98211911591159 -0.41733566476648
 8  2.01509496879688  4.07531049804981 -0.22602433803380
 7 -2.35932653535354 -0.91993700030003  0.52329885698570
 7 -4.46863076697670  0.86315056365637 -1.28196012811281
 7  1.89926965406541 -0.64133611461146 -0.35486692479248
 7  2.63764503490349  1.92707115721572 -0.63844131913191
 6 -4.90636288258826  1.26867704710471 -0.01759130263026
 6 -4.52941754715471  0.22542896059606  1.12225428612861
 6 -3.06187964416442  0.00709559195920  1.40837617771777
 6 -2.06890193449345  0.65794794179418  2.12950374857486
 6 -0.82412630013001 -0.00966952545255  1.79624838703870
 6 -1.02567694269427 -0.97920302940294  0.85629233753375
 6 -6.37355345274527  1.28568032393239 -0.12668108190819
 6  0.50821430473047  0.23397132023202  2.53021769056906
 6 -6.75440787248725  0.97683998919892 -1.42634349204920
 6 -0.19759550155015 -1.97072237333733  0.15356253195320
 6  1.10691360256026 -1.78709122172217 -0.23835262846285
 6 -5.48141619971997  0.75546523972397 -2.21251069186919
 6  1.87755362526253 -2.84769834583458 -0.83179849644965
 6 -2.33874061526153  1.59923165516552  3.24088272827283
 6 -7.26168816101610  1.66383191919192  0.98540915481548
 6  3.16954248254826 -2.38910093439344 -1.14599575667567
 6  1.10066683928393  1.67020016221622  2.42890810921092
 6  3.07094363536354 -1.00359979937994 -0.93662729372937
 6  1.44121965986599 -4.36122050165017 -0.88786726062606
 6 -8.03733045394540  0.80449501390139 -2.05405012701270
 6  1.75057674777478 -4.98566480888089  0.52455878237824
 6  4.34999271567157 -3.12949421522152 -1.84339633703370
 6  4.02256119831983  0.02719438123812 -1.18878907400740
 6  2.44032664806481  1.73829800410041  3.07181708680868
 6  3.82207673357336  1.41159041534153 -1.08886465716572
 6 -9.29748792179218  0.77953579737974 -1.50539930253025
 6  1.29189649804981 -6.51633036253625  0.50110090279028
 6  4.79132319721972  2.59076113111311 -1.50073379987999
 6  4.16966260076008  3.73112727292729 -1.25012458375838
 6  2.77933668966897  3.35047674907491 -0.65936448344834
 6  6.14506251065106  2.22644451585159 -1.97421895069507
 6  4.78184897829783  5.03613513071307 -1.17693036493649
 6  6.96563411481148  3.00798722012201 -2.80124479257926
 1 -4.61630958165817  2.24831987688769  0.18588813081308
 1 -5.16402483158316 -0.60058504960496  0.78924017231723
 1 -5.15323544274427  0.59709393849385  2.05096723122312
 1 -2.59264667506751 -1.56281313881388 -0.18237062836284
 1 -3.32590828412841  0.83435651185118 -1.51741893919392
 1  0.41185777007701  0.01848182168217  3.67731306350635
 1  1.27063550755075 -0.59781966596660  2.20217853825383
 1 -0.53172366486649 -3.00377834113411 -0.04036421802180
 1 -3.45625777777778  1.57736432173217  3.53254942254225
 1 -1.86950180958096  1.32513114061406  4.14159388398840
 1 -2.31517431673167  2.68893752955296  2.92010416441644
 1 -6.98671256635664  2.40712966506651  1.81000911971197
 1 -7.71568427672767  0.77146347474748  1.52362478507851
 1 -7.95910440174017  2.18104027412741  0.47246624382438
 1  1.09334151545154  2.13939654765477  1.41690169776978
 1  0.31521556165617  2.34584267206721  2.96243659815982
 1  1.62676829512951  0.43116950715071 -0.19820204630463
 1  2.04643290189019 -4.80394591779178 -1.81185924812481
 1  0.51327940834083 -4.63532344574457 -1.19642241194119
 1 -7.73019834483448  0.87875050905091 -3.22401331333133
 1  1.04131707180718 -4.51293559785979  1.38302799039904
 1  2.74712575547555 -4.99142562156216  0.88353229162916
 1  4.45076952075207 -4.32306983548355 -1.46620567316732
 1  5.42167428892889 -2.58708758955896 -1.46880180168017
 1  4.07978507480748 -2.96795885148515 -2.93916423872387
 1  4.94388719581958 -0.19785389418942 -1.54576126432643
 1 -9.42942246444644  0.81383228042804 -0.32943362956296
 1 -10.28186635173517  0.53207758615862 -2.04409415111511
 1  3.70068650005001  3.06124869346935  3.41487967016702
 1  6.54659966556656  1.26307051355136 -1.80060756395640
 1  4.63584459465947  5.58975206720672 -2.20017707270727
 1  4.16550455455546  5.75260233013301 -0.50863394659466
 1  6.05396716821682  4.53388984358436 -0.96999874797480
 1  1.34357189568957 -8.05042628512851  1.51406107920792
 1  7.87550883268327  2.49580688698870 -3.07913667586759
 1  6.78379982428243  4.10502807410741 -3.00373326242624

