%nproc=4
%Mem=2GB
# td=(NStates=1) B3LYP/SVP 

TD

0 1
 8 -5.49595495729573  0.12721683668367 -3.32575540834083
 8  3.01682850895089  2.94855057845785  3.36700296469647
 8  3.23527426522652  0.73205821492149  3.09438139933993
 8  1.31692582848285 -7.14050995539554  1.67603801360136
 8  0.62376912631263 -6.97871877587759 -0.44537846904690
 8  2.06689014831483  4.11848481548155 -0.17767950355036
 7 -2.40729133183318 -0.91691669826983  0.44700122722272
 7 -4.42678658255826  0.84308855745575 -1.28686061816182
 7  1.96489621672167 -0.62494447544754 -0.35901733983398
 7  2.72521379177918  1.86553500360036 -0.50649812481248
 6 -4.87648989528953  1.25967614701470  0.04057451395139
 6 -4.50125473087309  0.20448686638664  1.12556461716172
 6 -3.04714817101710  0.08819370177018  1.26476181628163
 6 -2.14425947024702  0.67583973097310  2.10342114031403
 6 -0.78478236573657  0.17125856735674  1.70272903510351
 6 -1.06410078507851 -0.82988809790979  0.77684439273927
 6 -6.43308940634063  1.27777953385339 -0.16124453825383
 6  0.48083156645665  0.37764568766877  2.47417208600860
 6 -6.75913834553455  0.90900320552055 -1.44327518521852
 6 -0.19088483048305 -1.85369067016702  0.10471764746475
 6  1.09609252045205 -1.71336384898490 -0.31045983918392
 6 -5.50870892899290  0.61732142534253 -2.18856829762976
 6  1.91172704260426 -2.86657023302330 -0.70294561116112
 6 -2.30126686788679  1.72029376137614  3.15792443244324
 6 -7.35773776597660  1.69593512951295  0.97277789168917
 6  3.11328685698570 -2.40731275557556 -1.19755091219122
 6  1.07598437103710  1.72094523672367  2.52673789218922
 6  3.08349489048905 -0.93301274067407 -0.88155178617862
 6  1.47554309220922 -4.26500087968797 -0.80124859875988
 6 -8.08024474537454  0.86951151555156 -2.05073979597960
 6  1.86998868896890 -5.06896313871387  0.54229055555556
 6  4.23221093749375 -3.10551181698170 -1.87159915731573
 6  4.09484842704270  0.00098175997600 -1.28676887198720
 6  2.54048666406641  1.68944311861186  2.98097800290029
 6  3.88098262416242  1.45464472077208 -1.06039180988099
 6 -9.28179635263526  0.63604144794479 -1.50692945554555
 6  1.23871117951795 -6.53868259775978  0.45399619231923
 6  4.79257332223222  2.49885194019402 -1.47175090159016
 6  4.23414904940494  3.63760792099210 -1.09869944124412
 6  2.94395315131513  3.27963966536654 -0.49587813481348
 6  6.22023002740274  2.27696956835684 -2.07016854565457
 6  4.57855864926493  5.14614613181318 -1.19690236213621
 6  6.99320687208721  3.11093751515152 -2.72161682978298
 1 -4.46127407810781  2.22594763966397  0.39473901590159
 1 -5.01893032213221 -0.94561955305531  0.85139638793879
 1 -4.94467458665867  0.44525875497550  2.10797293179318
 1 -2.94708211861186 -1.39493635113511 -0.36039843114311
 1 -3.46073176647665  1.08800187638764 -1.63639083638364
 1  0.19476606090609 -0.06920694719472  3.51530686288629
 1  1.37052549654966 -0.49752963696370  2.16398471887189
 1 -0.83362385488549 -2.82996095939594 -0.47255743734373
 1 -3.28999115111511  1.95825241054105  3.16006217381738
 1 -1.78399325872587  1.24095272277228  4.05097482208221
 1 -1.59266206550655  2.52970160596060  3.02428458245825
 1 -6.63298719381938  2.44390334243424  1.59846796559656
 1 -7.64110681898190  0.82274860326033  1.64011643424342
 1 -8.32320081138114  2.13885605570557  0.41286028322832
 1  1.10362254355436  2.35171777977798  1.55180518811881
 1  0.55547958805881  2.31342943074307  3.26228658315831
 1  1.84876049434943  0.42307869806981 -0.28650087618762
 1  1.87010526912691 -4.90659618281828 -1.54805286748675
 1  0.29730781118112 -4.35115502890289 -1.00677344704470
 1 -8.12520784578458  1.35232786678668 -3.28083899589959
 1  1.79177211731173 -4.55258956325633  1.45833552115211
 1  2.99868091099110 -5.36942342134213  0.37285122352235
 1  4.03791823562356 -4.14952248074808 -2.32149120172017
 1  4.91268338983898 -3.44258313911391 -1.10031495299530
 1  4.60885798209821 -2.73174523012301 -2.68217854015402
 1  5.08735154225423 -0.34558866766677 -1.81109779797980
 1 -9.40914043624363  0.23122401960196 -0.47404809100910
 1 -10.15487365246525  0.55835021342134 -2.10186992869287
 1  3.83768019941994  2.85504807340734  3.98217639983998
 1  6.47221222682268  1.27849205570557 -1.90553805700570
 1  4.69547055725573  5.46536962896290 -2.34553160816082
 1  3.91887989208921  5.79819688958896 -0.55029811301130
 1  5.81605337683768  5.27328378297830 -1.02422417051705
 1  0.86957449594960 -7.96303754625462  1.46169584268427
 1  7.94352563436344  2.78133543984398 -3.13058182038204
 1  6.75758720302030  4.05111268256826 -3.08185107420742

