%nproc=4
%Mem=2GB
# td=(NStates=1) B3LYP/SVP 

TD

0 1
 8 -5.63300866266627 -0.18477436243624 -3.35171800460046
 8  2.77588441454145  3.13498922232223  3.38580484488449
 8  3.12943368116812  0.93069807890789  3.61659362056206
 8  1.73540767666767 -7.20051595599560  1.48824923472347
 8  0.46046279567957 -6.96250715471547 -0.40922485368537
 8  2.07094055335534  4.00950391739174  0.05670393479348
 7 -2.38865946864686 -0.86966197279728  0.62491901900190
 7 -4.49578348224822  0.31296554515452 -1.37990992309231
 7  1.87754748184819 -0.68358033903390 -0.51382282038204
 7  2.78029930033003  1.89882833293329 -0.48031550655066
 6 -4.82161440774077  1.15578575797580 -0.16784632813281
 6 -4.50821542694269  0.44446086378638  1.22185424612461
 6 -3.00761421762176  0.15214009640964  1.40725606570657
 6 -1.96051109540954  0.78242038903890  2.18691949014902
 6 -0.79998388588859  0.09484092559256  1.78731749394939
 6 -1.05650002500250 -0.86684179327933  0.84159086738674
 6 -6.27622371977198  1.40970272617262 -0.21809022282228
 6  0.50850433373337  0.39246716981698  2.50749541834183
 6 -6.70519295099510  0.77384969016902 -1.42148300600060
 6 -0.30433617561756 -1.82907820892089  0.03904107980798
 6  1.04211712291229 -1.79080159275928 -0.41325011821182
 6 -5.59085714381438  0.26479617281728 -2.18578801960196
 6  1.77719358925893 -2.92099567556756 -0.90599591619162
 6 -2.31230797199720  1.95057678967897  3.05168380838084
 6 -7.03240523272327  2.21207674367437  0.83012362626263
 6  3.07400292859286 -2.42747477177718 -1.27969912701270
 6  1.12212898549855  1.87544068626863  2.51984720312031
 6  3.05541208220822 -0.98434787418742 -1.07144077507751
 6  1.30508604650465 -4.34382876247625 -0.97095556945695
 6 -8.09427614851485  0.71329589398940 -2.02106682868287
 6  1.89221091119112 -5.13095933833383  0.31221754825483
 6  4.12370008640864 -3.11115238103810 -2.07556955435544
 6  4.07629657185719  0.00533219501950 -1.37492768786879
 6  2.46434905030503  1.79576375067507  3.20418032313231
 6  3.88879340524052  1.39901915821582 -1.03728949964996
 6 -9.23847202020202  0.80466831063106 -1.39596835943594
 6  1.33309061746175 -6.55649437893789  0.35397619031903
 6  4.86668073297330  2.50556261126113 -1.38737246374637
 6  4.23497913241324  3.67973213341334 -1.09112868416842
 6  2.91824058005801  3.29907160856086 -0.50834938193819
 6  6.16276428082808  2.17361923332333 -1.97697922672267
 6  4.74484527792779  5.00358187538754 -1.20463313521352
 6  6.90963851525153  3.10040646204620 -2.61091575967597
 1 -4.26450440114011  2.16095114001400 -0.32825328332833
 1 -5.06438486758676 -0.53959895099510  1.12153340164016
 1 -4.93332345154515  0.90212444154415  1.98927106160616
 1 -2.92094950535053 -1.48855571307131 -0.04746713801380
 1 -3.60953664696470  0.30511358755876 -1.64558175547555
 1  0.29264584888489  0.23731370487049  3.70522585478548
 1  1.18349679367937 -0.47830771477148  2.44264258465847
 1 -0.88178867136714 -2.75422338563856  0.16964678307831
 1 -3.30870302230223  2.01933851915192  3.59269543714371
 1 -1.56831169056906  1.85025365286529  3.97223694829483
 1 -2.01324412371237  2.88929756555656  2.59380153415342
 1 -6.31465536063606  2.98833778587859  1.35470358915892
 1 -7.36167887618762  1.76424275267527  1.82783520612061
 1 -7.90163865516552  2.57861003110311  0.47185618281828
 1  1.24070625192519  2.18154076207621  1.54254426202620
 1  0.49977401750175  2.51311939973997  3.07760811531153
 1  1.56481209950995  0.45476186638664 -0.41479370547055
 1  1.63038129672967 -4.83612913611361 -1.90625868806881
 1  0.31724980538054 -4.19882979637964 -0.92248501820182
 1 -8.12744806980698  0.79475210921092 -3.03495440744074
 1  1.75980892099210 -4.54239854415442  1.39158884648465
 1  3.17235827872787 -5.52220869986999  0.29608354675468
 1  3.77782222602260 -3.92661018951895 -2.70857991059106
 1  5.02313443494349 -3.25016389718972 -1.41931685318532
 1  4.29365646194619 -2.36285834143414 -2.99939026132613
 1  5.02885569266927 -0.28698280708071 -1.74453114131413
 1 -9.55820534273427  0.98509940714071 -0.41084177037704
 1 -10.20503866896690  0.61983636203620 -2.14002374407441
 1  3.63445987738774  3.27047961656166  3.92119030123012
 1  6.41057606320632  1.14717892439244 -2.28122562576258
 1  4.95305631583158  5.31336442844284 -2.21244829982998
 1  4.16454445854585  5.74562163206321 -0.68388147134714
 1  5.76774854635464  5.18321477607761 -0.86523827192719
 1  1.64970250875087 -8.24966620912091  1.60349002210221
 1  7.94452573437344  2.99467677397740 -2.92461122332233
 1  6.90985242954295  4.17303487478748 -2.38029091819182

