%nproc=4
%Mem=2GB
# td=(NStates=1) B3LYP/SVP 

TD

0 1
 8 -5.24930029182918  0.58486260126013 -3.37943077587759
 8  2.84391121722172  2.97494321772177  3.28541480588059
 8  3.29725046284628  0.82063707280728  2.99139110031003
 8  1.53543767966797 -7.13210911531153  1.62501291109111
 8  0.51636838623862 -7.00327123112311 -0.42922685388539
 8  1.76989044834483  3.95336830383038 -0.16081781738174
 7 -2.33611421412141 -0.82725773237324  0.48441496859686
 7 -4.29460336423642  0.79601384998500 -1.29859179127913
 7  1.88989871697170 -0.73016499749975 -0.36412785088509
 7  2.51657292769277  1.81497994809481 -0.55194266926693
 6 -4.83480572687269  1.30828100750075  0.02008246474647
 6 -4.39389399479948  0.30307672537254  1.20177223792379
 6 -2.92026548274827  0.07117199959996  1.32414775487549
 6 -2.04412945724572  0.75557770477048  2.10079087728773
 6 -0.72152604010401  0.01932337383738  1.84342310451045
 6 -1.01740611561156 -0.94059916901690  0.83357006530653
 6 -6.26612270967097  1.40554231013101 -0.20912932673267
 6  0.57139062236224  0.18722664576458  2.50587525632563
 6 -6.63370580228023  0.95403770897090 -1.43696455415542
 6 -0.17370311231123 -1.98582388348835  0.20994817051705
 6  1.11252416361636 -1.86969948254825 -0.31491028422842
 6 -5.34768282638264  0.78715840904090 -2.19778921972197
 6  1.98804467436744 -2.95487906390639 -0.76795211181118
 6 -2.24393113431343  1.86654838683868  3.01075971597160
 6 -7.16900889308931  1.81769730573057  0.89101971587159
 6  3.25127065536554 -2.41701372567257 -1.13785494259426
 6  1.08825559815982  1.62817595979598  2.56919213761376
 6  3.10214675567557 -0.85596503590359 -0.98213184418442
 6  1.61112665056506 -4.33971835143514 -0.82328080198020
 6 -7.94882160306031  0.76666123052305 -2.08796351835184
 6  1.75945763586359 -5.17564380678068  0.52360868736874
 6  4.31597931433143 -3.11410267606761 -1.70693269066907
 6  4.00504944714471  0.10238189999000 -1.39546974207421
 6  2.52443505890589  1.74312848714871  3.05142504760476
 6  3.71843636953695  1.40812006830683 -1.12972874357436
 6 -9.09985815881588  0.68861670547055 -1.48624738733873
 6  1.11539884828483 -6.46906563606361  0.41041183388339
 6  4.64777884278428  2.51115317031703 -1.49810353685369
 6  3.90689632413241  3.62036619681968 -1.19963953525353
 6  2.65769452545255  3.22193389478948 -0.55125367236724
 6  5.97612561696170  2.19901177257726 -1.94151568036804
 6  4.35425621902190  4.99164068126813 -1.11526419831983
 6  6.69738729012901  3.03829025042504 -2.66182085018502
 1 -4.36995494619462  2.18086313121312  0.24329387138714
 1 -4.98690711981198 -0.53800879197920  1.19361060936094
 1 -4.68776889608961  0.80881511061106  2.08368050255026
 1 -2.69463687408741 -1.55018187568757 -0.12965535683568
 1 -3.21845753905391  0.84038711491149 -1.63207040434043
 1  0.53377996229623 -0.12033205970597  3.67594292649265
 1  1.55248369236924 -0.30792067606761  2.09004732513251
 1 -0.66159665216522 -2.85004296759676  0.17713753215322
 1 -3.37145929792979  1.98229481478148  3.22948911651165
 1 -1.54620948034803  1.46601522902290  3.79484920952095
 1 -1.80600339963996  2.71758039383938  2.84680683468347
 1 -6.68698259335934  2.53676262836284  1.51150926972697
 1 -7.33799650795079  0.91577790619062  1.35876829942994
 1 -8.08117660896090  2.18953112321232  0.45631462866287
 1  0.98994117541754  2.24271687968797  1.57702771037104
 1  0.39252329242924  2.12714080188019  3.32850320482048
 1  1.55189080738074  0.26559294949495 -0.18062028812881
 1  1.91217947654765 -4.83916944014401 -1.56590465266527
 1  0.43682176257626 -4.38245815921592 -1.06243901360136
 1 -8.06285161016102  0.76605923992399 -3.24468538053805
 1  1.58722166226623 -4.49279358365837  1.51939162676268
 1  2.84838588148815 -5.23607008600860  0.49017295569557
 1  4.16222066586659 -4.22352988148815 -1.47875692829283
 1  5.34449657115712 -3.15897477827783 -1.13710863236324
 1  4.53267036333633 -2.83089514511451 -2.82996331863186
 1  5.03174598169817 -0.13392750155015 -1.83307999619962
 1 -9.30151967416742  0.56798769596960 -0.44422510871087
 1 -10.09656782188219  0.67280165856586 -2.06777651935194
 1  3.85913234463446  3.03339590819082  3.45954413661366
 1  6.30870587618762  1.20881508800880 -1.68748625182518
 1  4.00490150035004  5.65030812281228 -2.01788884388439
 1  3.76394439853985  5.50287735763576 -0.15826891009101
 1  5.39219099059906  5.02425888048805 -0.83888563666367
 1  1.18289582808281 -8.02734397689769  1.51271094419442
 1  7.71598288008801  2.78855616191619 -2.71085984818482
 1  6.54211565586559  4.15007257855786 -3.11316420552055

