%nproc=4
%Mem=2GB
# td=(NStates=1) B3LYP/SVP 

TD

0 1
 8 -5.30541590339034  0.18126224122412 -3.28394122692269
 8  2.65121194729473  3.19132485588559  3.37568383278328
 8  3.12110284808481  1.03300830993099  3.29945190639064
 8  1.80224436033603 -7.23383928832883  1.38138854865487
 8  0.48034478387839 -7.01917282128213 -0.47611154235424
 8  2.16854031333133  4.06606957395740  0.09830809520952
 7 -2.39848045074507 -0.96948195479548  0.58503503060306
 7 -4.40825472937294  0.63895814441444 -1.19117104920492
 7  1.85087481458146 -0.69975195619562 -0.33781521962196
 7  2.75517678807881  1.89735818591859 -0.48902637763776
 6 -4.85117736403640  1.25947612701270  0.00224068056806
 6 -4.50431503690369  0.30621703940394  1.22177423812381
 6 -3.01543499969997  0.01375625802580  1.40167550765076
 6 -2.05862090639064  0.59209135613561  2.23746454465447
 6 -0.86204009150915  0.07638908040804  1.81971073327333
 6 -1.05829020402040 -0.86868197729773  0.83488019631963
 6 -6.35233133053305  1.28010976687669 -0.17912632643264
 6  0.48578206150615  0.27645556865687  2.61593626242624
 6 -6.62822525422542  0.92615492069207 -1.47205806350635
 6 -0.22962870487049 -1.89507480858086  0.08138531423142
 6  1.03220613181318 -1.79709222182218 -0.31610040324032
 6 -5.38186624472447  0.61671136433643 -2.13490293109311
 6  1.94213008290829 -2.90429400540054 -0.80381569816982
 6 -2.37010375157516  1.64224595659566  3.24728336833683
 6 -7.26790878307831  1.90600613661366  0.92509312321232
 6  3.13546907520752 -2.41791381568157 -1.20960211731173
 6  1.00575734833483  1.73883702590259  2.48745396379638
 6  3.08853539453945 -0.99042848224822 -0.86957058805881
 6  1.46883242114211 -4.34078845844584 -0.83498197209721
 6 -7.84554127502750  0.85846041044104 -2.14394911691169
 6  1.75074676477648 -5.06702294469447  0.42202852935294
 6  4.22805052145215 -3.16188745454545 -1.89618161556156
 6  4.13144208640864 -0.04747308550855 -1.20200039513951
 6  2.33442605800580  1.85891006530653  3.11556146124612
 6  3.88807333323332  1.35317457375738 -1.06337210791079
 6 -9.16961513451345  0.94473231703170 -1.62210097269727
 6  1.12468977737774 -6.56369509900990  0.37040783348335
 6  4.76750081498150  2.48393044804480 -1.61498522502250
 6  4.17850348484848  3.67792195239524 -1.20865043634363
 6  2.91618037403740  3.25987768916892 -0.56939548654866
 6  6.03251125552555  2.20244211561156 -2.21480300910091
 6  4.69381017441744  5.08560007720772 -1.39873254515452
 6  6.83857140854085  3.07509393079308 -2.90848551665167
 1 -4.29402735343534  2.22096714161416  0.24684422642264
 1 -5.03889231833183 -0.57244223532353  1.02895414371437
 1 -4.92759287848785  0.69888411751175  2.13243537803780
 1 -2.94649205960596 -1.67378423592359 -0.10806319761976
 1 -3.33402909620962  0.63292636883688 -1.52522972027203
 1  0.19481606590659 -0.03356338283828  3.65637096929693
 1  1.20356880088009 -0.27620750475047  2.22494081448145
 1 -0.73878437093709 -2.85025298859886  0.04776459485949
 1 -3.45883803580358  1.63980056535654  3.49587575517552
 1 -1.84969982938294  1.39607823532353  4.17706743134313
 1 -2.06704950425042  2.62265090089009  3.02099425342534
 1 -6.65259915501550  2.86168512061206  1.28654677347735
 1 -7.54369707800780  1.06736306470647  1.69876229882988
 1 -8.20159865116512  2.41382355245525  0.47528652585259
 1  0.97378956025603  2.01367397539754  1.49491949954996
 1  0.25873991409141  2.42854094189419  3.03588394289429
 1  1.61928754705471  0.40092648284828 -0.46082830893089
 1  1.78563682228223 -4.90205572877288 -1.73973203540354
 1  0.41695977637764 -4.40973088648865 -0.93686645634564
 1 -7.78790411541154  0.69872250625063 -3.26955786778678
 1  1.01064400450045 -4.52154645894590  1.15512520012001
 1  2.88851989488949 -4.93558003700370  0.74274821322132
 1  3.84852929672967 -4.09175670417042 -1.98024707730773
 1  4.94116623812381 -2.99146802760276 -0.91180610211021
 1  4.66989408570857 -2.47253930953095 -2.58051837413741
 1  5.19863267036704 -0.34416852565257 -1.71164785298530
 1 -9.41654117631763  0.78275917311731 -0.71404209040904
 1 -10.05955412051205  0.69611398979898 -2.26083582528253
 1  3.57165359675968  3.39341190979098  3.65745392759276
 1  6.24734974057406  1.10475468196820 -2.17322482568257
 1  4.34100511071107  5.45964905690569 -2.35189224422442
 1  4.00912891699170  5.61376844674467 -0.63412649584958
 1  5.85210698219822  5.20311676627663 -1.19503125122512
 1  1.45024256275628 -8.19296053855386  1.51186085918592
 1  7.81934321612161  2.67284459075908 -3.42470123232323
 1  6.57388883318332  4.12383995529553 -3.18989187828783

