%nproc=4
%Mem=2GB
# td=(NStates=1) B3LYP/SVP 

TD

0 1
 8 -5.45812117391739  0.38860297529753 -3.41743457625763
 8  2.95997282338234  3.10188591199120  3.30785705010501
 8  3.08188892669267  0.94124913401340  3.69063102430243
 8  1.33950808670867 -6.98814471887189  1.63463387318732
 8  0.79098584798480 -7.17306821082108 -0.57029096029603
 8  2.13898735803580  4.10145311231123 -0.09867160276028
 7 -2.35416601930193 -0.92875788238824  0.57617414451445
 7 -4.45216912081208  0.59334358295830 -1.39588152025203
 7  1.99742947004700 -0.71213319431943 -0.30252169026903
 7  2.85153642404240  1.81056950705071 -0.39496697169717
 6 -4.90047229352935  1.19314949434943 -0.07936748024803
 6 -4.47410201560156  0.32533895159516  1.25340740144014
 6 -3.08075153135314  0.05910079247925  1.34893023312331
 6 -2.03927897219722  0.74880702770277  2.08293909210921
 6 -0.77387127462746  0.29571101260126  1.62401116331633
 6 -1.01262563756376 -0.77218232733273  0.78955566386639
 6 -6.37050314771477  1.20258201410141 -0.16247466126613
 6  0.49537302060206  0.40528845194519  2.38580324912491
 6 -6.81578401010101  0.84606691189119 -1.35848670637064
 6 -0.21196693869387 -1.82755805690569  0.03212038773877
 6  1.09814272547255 -1.74808732133213 -0.28061685488549
 6 -5.50941900000000  0.55629532273227 -2.15743518431843
 6  1.84383025292529 -2.90346392239224 -0.95348066466647
 6 -2.24142088328833  1.76042777477748  3.20728936893689
 6 -7.17774976717672  1.80209574557456  0.97382799669967
 6  3.09790531883188 -2.41169319361936 -1.26472762986299
 6  1.15616238883888  1.83515665786579  2.39482470087009
 6  3.13289983098310 -0.94476391579158 -0.91213484448445
 6  1.41415695359536 -4.35398977857786 -0.93122159605961
 6 -8.03931065196520  0.65122968736874 -2.09177389938994
 6  1.54476616671667 -5.05574181658166  0.44690101660166
 6  4.14703241964196 -3.12475374117412 -2.07286928432843
 6  4.08089703190319 -0.01172951115112 -1.30478067316732
 6  2.46534915031503  1.83185736003600  3.25325523062306
 6  3.87987251315132  1.29993925022502 -1.06347211791179
 6 -9.24809298229823  0.48741658545855 -1.48542730533053
 6  1.14282159055906 -6.40968969846985  0.43639443214321
 6  4.85527959285929  2.37066912191219 -1.51600532703270
 6  4.23044867936794  3.62018617881788 -1.11230080138014
 6  2.94793354935494  3.29825152655266 -0.49667821482148
 6  6.14073207760776  2.17741961336134 -2.07209873867387
 6  4.72883367676768  5.05843736093609 -1.21783445534553
 6  6.79464701610161  3.12087850925093 -2.75865053315332
 1 -4.58448639933993  2.21267631253125  0.18614815681568
 1 -5.03328175727573 -0.76726171727173  1.02292354065407
 1 -4.87415753495350  0.79479370847085  2.06735887038704
 1 -2.95017242764276 -1.46029288678868 -0.08720111141114
 1 -3.50676636993699  0.72208528472847 -1.77465466276628
 1  0.28461504580458  0.24740471397140  3.51485681788179
 1  1.46806525052505 -0.25376526052605  2.15377369776978
 1 -0.81210170267027 -2.86469443274327  0.03476329472947
 1 -3.34591674367437  1.84260084538454  3.32818898649865
 1 -1.85533039243924  1.34458308580858  4.17583730833083
 1 -1.69777257655766  2.71862049784978  2.96057821182118
 1 -6.50793468856886  2.56507545964596  1.62983110191019
 1 -7.28244095239524  0.88154448284828  1.61730415301530
 1 -8.38567705900590  2.18684085418542  0.74210320752075
 1  1.33468564986499  2.23393600160016  1.30632063966397
 1  0.50829486958696  2.66556464426443  2.82031238573857
 1  1.77164278257826  0.42305869606961 -0.17214944104410
 1  1.77947620622062 -4.99728525172517 -1.68184624682468
 1  0.38332641304130 -4.52434234763476 -1.27334010371037
 1 -8.12873819881988  0.61764439843984 -3.11192210421042
 1  1.00802374247425 -4.57602190649065  1.18253794139414
 1  2.60149119201920 -5.18840531953195  0.89617355575558
 1  3.68461290509051 -4.13067059555956 -2.23576262886289
 1  5.05536765826583 -3.48440732153215 -1.38227314881488
 1  4.35718281458146 -2.57054911051105 -3.11019134143414
 1  5.01757456455645 -0.27567167596760 -1.97399408760876
 1 -9.47924744694470  0.46620751795180 -0.33186387258726
 1 -10.09921808690869  0.22893727212721 -2.02048178987899
 1  3.65169160056006  3.00365293389339  4.16196437863786
 1  6.66745175077508  1.12492669916992 -1.96836433963396
 1  4.67616862706271  5.46047913991399 -2.37468452345235
 1  4.03800180428043  5.77160423032303 -0.71482456565657
 1  5.66501827332733  5.09061551615162 -0.72694444254425
 1  1.17219475797580 -8.22978422092209  1.55616528962896
 1  7.83019430123012  2.83997130343034 -3.12373113531353
 1  6.66825827012701  4.12401997329733 -3.02606549564956

