%nproc=4
%Mem=2GB
# td=(NStates=1) B3LYP/SVP 

TD

0 1
 8 -5.27353271507151  0.26867098209821 -3.32960579337934
 8  2.86105293139314  2.92398812221222  3.46646291069107
 8  3.16627736553655  0.65098010711071  3.35057701890189
 8  1.67787192309231 -7.08974487888789  1.69471988178818
 8  0.64535128452845 -6.95493639763976 -0.32750668186819
 8  1.84266772607261  4.05292825982598 -0.24568630423042
 7 -2.34184478717872 -0.89182418901890  0.53243977107711
 7 -4.41264516841684  0.85727997659766 -1.29698163026303
 7  1.85521524862486 -0.71316329732973 -0.34841627972797
 7  2.61526279667967  1.92884133423342 -0.68035551055106
 6 -4.82243448974898  1.31750192959296 -0.01144068756876
 6 -4.40583518891889  0.28432485018502  1.12204426512651
 6 -2.96754021022102 -0.02765788338834  1.32203754385439
 6 -2.06741178547855  0.60755290229023  2.22435323352335
 6 -0.78365225272527 -0.01061962046205  1.87934669686969
 6 -1.00250462546255 -0.83485859495950  0.80791750005000
 6 -6.27500359775978  1.40783253915392 -0.18812722652265
 6  0.61313479677968  0.13637156025603  2.57370203900390
 6 -6.68772120382038  1.04550685588559 -1.49312016971697
 6 -0.16827256925693 -1.90805610671067  0.05592276797680
 6  1.12527543874387 -1.87486999959996 -0.28220701390139
 6 -5.45356341444144  0.68627832103210 -2.23528296909691
 6  1.92355822572257 -2.98953252925293 -0.88116343294329
 6 -2.17675441664166  1.58485021702170  3.29518815881588
 6 -7.17279927212721  1.89079461546155  0.82996361026103
 6  3.14992052035204 -2.41619364366437 -1.20172132923292
 6  1.10718749134913  1.56707985018502  2.64070928932893
 6  2.99631617261726 -0.97304674407441 -0.99417304830483
 6  1.48728426632663 -4.38975335493549 -0.85298377227723
 6 -7.93730045094510  0.85614017841784 -2.22114683668367
 6  1.81142283238324 -5.08224446684669  0.50031635813581
 6  4.29105682208221 -2.99976124192419 -1.93120511791179
 6  3.93875281748175 -0.03888222642264 -1.24154434953495
 6  2.50043265866587  1.67769194349435  3.13560346544654
 6  3.73172769866987  1.37752700900090 -1.07286305700570
 6 -9.09901807480748  1.03071091489149 -1.61808057065707
 6  1.27869517791779 -6.50021875137514  0.56498729142914
 6  4.68577264216422  2.53663571857186 -1.52021574807481
 6  4.04171980648065  3.69252341254125 -1.23968353965397
 6  2.64185294129413  3.32688438983898 -0.66399494649465
 6  6.00372837723772  2.22721459285929 -2.00683221202120
 6  4.41179197259726  5.13293481068107 -1.42627529942994
 6  6.72911046244624  3.11825824722472 -2.74078874697470
 1 -4.46355430613061  2.23378842374237  0.28538808080808
 1 -5.03296172527253 -0.69639463056306  1.08740998929893
 1 -5.00578069726973  0.53482771187119  2.15220735523552
 1 -2.89294670507051 -1.09869672717272 -0.44463685498550
 1 -3.51933762706271  0.86160923712371 -1.73403060036004
 1  0.54820140444044 -0.41823184968497  3.49779511171117
 1  1.28815725972597 -0.40864074807481  2.22127044744474
 1 -0.56086657915792 -3.12563052635264  0.11514133253325
 1 -3.28931108310831  1.84853143844384  3.60130629822982
 1 -1.93487834723472  1.05754438193819  4.35185491009101
 1 -1.66735953525352  2.50540917671767  3.18623077707771
 1 -6.57245114021402  2.39912886498650  1.67597571637164
 1 -7.47628033633363  1.26412274067407  1.50073249584959
 1 -7.99771826312631  2.57231940204020  0.57030602780278
 1  1.05733791509151  1.64745735373537  1.44393440104010
 1  0.51353539363936  2.37728581638164  3.17948830333033
 1  1.67322294059406  0.10921731193119 -0.17061928802880
 1  1.83415167376738 -4.95888141134113 -1.69162722492249
 1  0.42154023442344 -4.26260617401740 -0.94687745744574
 1 -8.01592691769177  0.89968260226023 -3.14907581958196
 1  1.23680662076208 -4.45182948724872  1.20938062566257
 1  2.86592763566357 -5.05686216521652  0.82348628702870
 1  4.25791023482348 -4.09844737323732 -1.97247630023002
 1  5.36870899239924 -2.54261314211421 -1.44530945244525
 1  4.19130622692269 -2.61963401900190 -3.07478780108011
 1  4.86302911001100 -0.22474658345835 -1.57800448864886
 1 -9.37050657285729  1.27090798799880 -0.53175386158616
 1 -9.98712687778778  0.83773815221522 -2.27990773247325
 1  3.75955238663866  2.96130869946995  3.62400058225823
 1  6.28806381198120  1.17858206470647 -1.87728523172317
 1  4.30788179837984  5.41195428742874 -2.41684873987399
 1  3.57208521262126  5.79299636953695 -0.90758384158416
 1  5.33190496199620  5.56903335793579 -1.02628437653765
 1  1.36568410691069 -8.19422066456645  1.98828850195020
 1  7.56021730353035  2.64838214451445 -3.07569633183318
 1  6.73004444874487  4.20861843314331 -2.94209709880988

