%nproc=4
%Mem=2GB
# td=(NStates=1) B3LYP/SVP 

TD

0 1
 8 -5.39477483928393  0.03011712671267 -3.18221105390539
 8  2.96435326142614  2.94597032043204  3.11536780118012
 8  3.23445418321832  0.69123413251325  3.13374533573357
 8  1.95715985188519 -7.25288119251925  1.48175858565857
 8  0.19033578297830 -6.98229913391339 -0.13298722992299
 8  1.97366082538254  4.04683765076508 -0.09834156975698
 7 -2.35633623632363 -0.91668667526753  0.47888441554155
 7 -4.44072797669767  0.70344459305931 -1.28787071917192
 7  1.89233896099610 -0.78227020802080 -0.24697613571357
 7  2.67153842424242  1.86032448254825 -0.62689016401640
 6 -4.78266051235124  1.30686086548655 -0.04156369986999
 6 -4.43744835023502  0.39443586128613  1.12092415311531
 6 -2.95228868506851  0.13274815721572  1.23068840894089
 6 -2.00318536283628  0.69987213421342  2.00677147534753
 6 -0.75401928942894 -0.00825938443844  1.72162092429243
 6 -1.03161753675368 -0.97553266236624  0.66514322262226
 6 -6.30337643504350  1.54208596449645 -0.21473988778878
 6  0.50631411471147  0.15328325142514  2.59082375117512
 6 -6.71687411911191  0.92727503270327 -1.41724258195820
 6 -0.25158090009001 -1.96505180628063  0.03112028772877
 6  1.03091600280028 -1.75337785038504 -0.33016180938094
 6 -5.47176523462346  0.48260795399540 -2.11810125092509
 6  1.86118198809881 -2.97819139513951 -0.88214353095310
 6 -2.18408514971497  1.78055978797880  3.02213085308531
 6 -7.11703369556956  2.07508304430443  0.86210682458246
 6  3.11446697499750 -2.41706373067307 -1.12307346444644
 6  1.08884565716572  1.62677581978198  2.56729194759476
 6  3.08491503250325 -0.96401584098410 -0.88562219321932
 6  1.45532107000700 -4.38311269086909 -0.98370684458446
 6 -7.97583430433043  0.82559712411241 -2.11061578357836
 6  1.82117380748075 -5.13588983138314  0.35956228272827
 6  4.28723644004400 -3.08281954775478 -1.71023302070207
 6  3.95458440064006  0.06109777157716 -1.20963115821582
 6  2.49236185158516  1.68617279157916  2.96405631073107
 6  3.80727525342534  1.44518377467747 -1.04262003270327
 6 -9.16060423342334  0.86672451625163 -1.44532329492949
 6  1.19680698909891 -6.55336406590659  0.54053484618462
 6  4.68802286718672  2.54537659265927 -1.39489321582158
 6  4.08240387488749  3.69012317251725 -1.08968854015402
 6  2.71783053905391  3.26378808020802 -0.57957650465046
 6  5.99971797619762  2.37255912731273 -2.01766329512951
 6  4.35237603100310  5.09792130933093 -1.28079075097510
 6  6.92725027642764  3.41957837923792 -2.31078574667467
 1 -4.15998394909491  2.23680872577258  0.20701024302430
 1 -5.15695412451245 -0.51109610071007  1.06279752805281
 1 -4.60879099829983  0.99967419651965  2.05523765826583
 1 -2.95280269066907 -1.55280213771377  0.03680128882888
 1 -3.45007070037004  0.92986606280628 -1.65864306160616
 1  0.44926151045105  0.08755872937294  3.77161249344934
 1  1.19147759175918 -0.45013489748975  2.08242656305631
 1 -0.76563705620562 -2.84805276857686 -0.51958213981398
 1 -3.35607775977598  1.84469105440544  3.27380354795480
 1 -1.56156101550155  1.71152978047805  4.07990771537154
 1 -2.08815161446145  2.78748738453845  2.42866502050205
 1 -6.47007090219022  2.74259321142114  1.70817893669367
 1 -7.80131283958396  1.24862119051905  1.29231165376538
 1 -7.78696718801880  3.02148431853185  0.59867886508651
 1  1.03117529882988  2.08734134213421  1.46763677127713
 1  0.52949698979898  2.26035412321232  3.19100945544555
 1  1.43967958625863  0.13317970817082 -0.27387961406141
 1  1.92558081668167 -4.86180170337034 -1.85168323052305
 1  0.30153823422342 -4.48335824922492 -1.09600236993699
 1 -8.07002232723272  0.44050668466847 -3.23725463746375
 1  1.50203314341434 -4.43351765606561  1.17869755735574
 1  2.92229327222722 -5.25117159615962  0.38292223062306
 1  4.06406084988499 -4.17025455395540 -1.42437148974898
 1  5.32554467596760 -2.78881776257626 -1.23441836333633
 1  4.33973106940694 -2.84470652625262 -2.79471979427943
 1  4.79080188728873 -0.32751686048605 -1.83483017121712
 1 -9.29359888208821  1.42046294349435 -0.30657134333433
 1 -10.00490865596560  0.42201658005801 -2.06584632633263
 1  4.01845827722772  2.90307287588759  3.34423260546055
 1  6.36998200380038  1.19374358085809 -2.11802930613061
 1  4.79373038323832  5.11749484148415 -2.49679673467347
 1  3.46355435953595  5.92168923882388 -1.08875195839584
 1  5.25597736923692  5.60327678227823 -0.57350909900990
 1  1.40274781328133 -8.11092233473347  1.59680935403540
 1  7.88650993279328  2.92449975627563 -2.86005476767677
 1  6.75105654995500  4.55781335263526 -2.19874276337634

