%nproc=4
%Mem=2GB
# td=(NStates=1) B3LYP/SVP 

TD

0 1
 8 -5.22262762456246  0.24964907990799 -3.28811164396440
 8  2.87366419251925  3.23030875427543  2.92790905530553
 8  3.39717045484548  0.97874288338834  3.11209317051705
 8  1.35017915381538 -7.22842874727473  1.58393880368037
 8  0.80257700710071 -7.13924482848285 -0.71048497969797
 8  1.69590304960496  3.99823279027903 -0.32611434703470
 7 -2.45954655735574 -0.89696470307031  0.75076160326033
 7 -4.36139004290429  0.60626487508751 -1.25956788888889
 7  1.92561228832883 -0.63808578957896 -0.30677211531153
 7  2.67354862526253  1.86792524262426 -0.48471594659466
 6 -4.82867511381138  1.22476265566557 -0.06678622212221
 6 -4.48247285268527  0.30180659835984  1.13842590329033
 6 -2.99867332353235  0.03366824922492  1.44435977607761
 6 -1.99747479177918  0.76079822682268  2.14045484368437
 6 -0.77725161266127  0.08927036853685  1.89714847704770
 6 -1.00860523552355 -0.88421353045305  0.85855256355636
 6 -6.36492258965897  1.30614237013701 -0.20709912371237
 6  0.52696617991799  0.31551947504750  2.59592426122612
 6 -6.66584901660166  0.91761406660666 -1.41017187488749
 6 -0.23427916991699 -1.88766406750675  0.18944612031203
 6  1.18388129932993 -1.76653916651665 -0.20314910811081
 6 -5.33778183628363  0.55061475467547 -2.18153759455946
 6  1.81022689258926 -2.86124970097010 -0.82630794739474
 6 -2.32362910411041  1.72314404640464  3.27989662966297
 6 -7.12977496969697  1.88539407540754  0.90832144604460
 6  3.05629115741574 -2.40535255955596 -1.18795995309531
 6  1.10166693929393  1.66436957915792  2.46752197059706
 6  3.05403194419442 -0.96778621802180 -0.87722135313531
 6  1.41474701260126 -4.35728010761076 -1.03912238613861
 6 -7.99914663556356  0.81575614001400 -2.14957967996800
 6  1.73245493559356 -5.10510675307531  0.33666999349935
 6  4.29354707110711 -3.09676094189419 -1.70644264166417
 6  4.04736367856786  0.00933259505951 -1.10815101020102
 6  2.53146576197620  1.87075124942494  2.83434333943394
 6  3.82197672357236  1.35254451075108 -0.91998776947695
 6 -9.21513968696870  0.99870771457146 -1.49899866246625
 6  1.27649495789579 -6.61723045254525  0.30828162086209
 6  4.66813087798780  2.40123217821782 -1.40018374487449
 6  4.09300493499350  3.61027518771877 -1.14622419371937
 6  2.67098585458546  3.17595929732973 -0.66159470647065
 6  6.11433943834383  2.15264713611361 -1.89834136293629
 6  4.50737153055305  5.04832634983498 -1.21144381628163
 6  6.83567111851185  3.13291971337134 -2.48539320742074
 1 -4.46522447314732  2.09960500540054  0.21487102910291
 1 -5.07275570467047 -0.65699069016902  0.99073032133213
 1 -4.84542466166617  0.73227745684568  1.94206634113411
 1 -2.91900931133113 -1.44794165166517  0.04899250795079
 1 -3.34138983228323  1.01333440964096 -1.58334553185319
 1  0.56072265656566 -0.11430145664566  3.48462379457946
 1  1.33118156215622 -0.39320920492049  2.04988330873087
 1 -0.80365085758576 -2.78829679297930  0.21037085548555
 1 -3.42640479247925  1.57537412271227  3.60827699529953
 1 -1.77050190959096  1.41281990949095  4.08579830443044
 1 -2.04638743804380  2.80710934673467  2.76455860986099
 1 -6.53375727082708  2.53740269236924  1.61976009480948
 1 -7.58248095639564  1.23382971137114  1.58869129172917
 1 -7.95707419871987  2.47602977307731  0.70583958115812
 1  1.13906608790879  1.99981258925893  1.43368337593759
 1  0.64434847494749  2.40892898069807  3.18090844534454
 1  1.76909252755276  0.47338372857286 -0.15708793489349
 1  2.01984024262426 -4.84737026022602 -1.86034409660966
 1  0.44659273967397 -4.30207012041204 -1.27272004170417
 1 -8.05335066006601  0.65004763876388 -3.15939685168517
 1  1.30237317741774 -4.72809711401140  1.23704339193919
 1  2.67860890379038 -5.04595107410741  0.62375631403140
 1  3.90073451725172 -4.03171069956996 -2.04809386198620
 1  5.05318744024402 -3.38223710451045 -0.82148707020702
 1  4.72548964526453 -2.50175223082308 -2.41327164946495
 1  5.13160596769677 -0.16940104890489 -1.48383507170717
 1 -9.16684620682068  1.11017191439144 -0.38278896509651
 1 -10.25526369146915  0.80133451185118 -2.03135287698770
 1  3.84285071647165  3.22992556115612  3.11789997219722
 1  6.30097510311031  1.19905411191119 -1.95212271547155
 1  4.76005701590159  5.53321641364136 -2.34607166216622
 1  3.60769877397740  5.67680475037504 -0.79737282048205
 1  5.49195096659666  5.20697715231523 -0.92133388148815
 1  0.95712325082508 -8.17848909140914  1.40107978107811
 1  7.71773305510551  2.73410071637164 -2.95753451565156
 1  6.86880832513251  4.20822839413941 -2.25926881598160

