%nproc=4
%Mem=2GB
# td=(NStates=1) B3LYP/SVP 

TD

0 1
 8 -5.54215957775778  0.25106922192219 -3.30093292609261
 8  2.92945977207721  3.10840656405641  2.97168343274327
 8  3.07387812561256  0.81993700280028  3.03048500970097
 8  1.50562469836984 -7.19405530993099  1.52215262506251
 8  0.68473522292229 -7.04954585858586 -0.58060199139914
 8  2.12964642394239  4.21072403940394 -0.06054779037904
 7 -2.44963556625663 -0.90733574017402  0.63258978607861
 7 -4.59256316021602  0.41976622522252 -1.28063999609961
 7  1.94397412451245 -0.71012299329933 -0.25411684978498
 7  2.71406267666767  1.89291774187419 -0.56957443244324
 6 -4.91043328962896  1.01770194959496 -0.03655319881988
 6 -4.50178478387839  0.25278169586959  1.22946500720072
 6 -3.05936939313931  0.06494137653765  1.34183952405241
 6 -2.08504354865487  0.68641078807881  2.10471126932693
 6 -0.80201408890889  0.14098554005401  1.81605036723672
 6 -1.03337771277128 -0.82222733183318  0.73692040034003
 6 -6.38006410381038  1.38956071197120 -0.15081349514951
 6  0.51444492779278  0.35531345444544  2.50972564136414
 6 -6.85574800650065  0.99854215941594 -1.34084494219422
 6 -0.24222996499650 -1.80682598369837  0.11634881058106
 6  1.12143505470547 -1.72887540014001 -0.29790858405841
 6 -5.66039409750975  0.53725341854185 -2.08702814361436
 6  1.86304217411741 -2.89713328932893 -0.74543986058606
 6 -2.20768750995100  1.71833356535654  3.18904754475448
 6 -7.28845083728373  1.93145868186819  0.94947556145615
 6  3.09394492279228 -2.42551457575758 -1.20660181728173
 6  1.09666643924392  1.77337047924792  2.25427064546455
 6  3.15501204220422 -0.90404984438444 -0.84321795279528
 6  1.48590412831283 -4.38644302390239 -0.82838131203120
 6 -8.10428714961496  0.81800636503650 -2.04598932093209
 6  1.70938262836284 -5.06644288668867  0.45519184568457
 6  4.33054077047705 -3.20866213201320 -1.82056405380538
 6  4.12466140834083  0.03780544234423 -1.12803299839984
 6  2.41768438383838  1.85242941724172  2.92845275037504
 6  3.94912943884388  1.39972922922292 -0.99200497119712
 6 -9.33357153015302  0.74512235603560 -1.56473523612361
 6  1.22922023042304 -6.54507323682368  0.30919171187119
 6  4.83815788068807  2.49881193619362 -1.38267199369937
 6  4.22873850835084  3.66517067726773 -1.11696126742674
 6  2.93119187518752  3.33777547894789 -0.45689423642364
 6  6.20254825922592  2.20181205260526 -1.97719924872487
 6  4.81923271667167  5.07590910811081 -1.17659033093309
 6  7.10391794319432  3.12136855825583 -2.54395906400640
 1 -4.60595854655466  1.99535458035804  0.03853339533953
 1 -4.99502793189319 -0.71690668176818  1.18027927622762
 1 -4.98262838203820  0.73734796389639  2.16744887938794
 1 -2.84030144054405 -1.55355221272127  0.13352096079608
 1 -3.62876857015702  0.40201327752775 -1.62032923022302
 1  0.21404798909891  0.31434140764076  3.74525985818582
 1  1.23895233923392 -0.47468735273527  2.23128144854485
 1 -0.67909840234023 -2.80989895319532  0.04312413081308
 1 -3.23404555655566  1.87802438773877  3.51969813741374
 1 -1.72083694309431  1.25483411091109  4.11157088168817
 1 -1.88348114741474  2.58008664446445  3.00013216721672
 1 -6.83418731383138  2.74251320342034  1.32832095089509
 1 -7.52526523482348  1.22400872927293  1.60530295289529
 1 -8.13847233853385  2.26485865596560  0.44373337053705
 1  0.99324150545054  2.32623523152315  1.38639864746475
 1  0.57591163126313  2.57251533933393  2.60906126062606
 1  1.56765238353835  0.29749613981398 -0.33665589168917
 1  1.98177643624363 -4.87876339953995 -1.73086114831483
 1  0.41053913431343 -4.29235914931493 -1.03745651535154
 1 -7.90232555755576  0.40208284228423 -3.13788470047005
 1  1.08844178427843 -4.65450975527553  1.23261294889489
 1  2.55824686758676 -5.11444792379238  0.93555749414942
 1  4.22418686248625 -4.30012754125412 -1.98008706130613
 1  5.28527064856486 -2.93716259705971 -1.35160008150815
 1  4.42022911921192 -2.92797485308531 -2.77503782608261
 1  5.07182999009901 -0.34349845864586 -1.63372006020602
 1 -9.53689321152115  0.67455835303530 -0.57634832103210
 1 -10.32299046414641  0.56943132153215 -2.12563230493049
 1  3.80298673007301  3.13340590919092  3.36297447964796
 1  6.42775778137814  1.11437564406441 -2.11364886808681
 1  4.66996800700070  5.45136822882288 -2.27712476747675
 1  4.05531353545355  5.68814588448845 -0.70642372557256
 1  5.71030280178018  5.03846030063006 -0.71194294239424
 1  1.22707024552455 -8.29443068556856  1.51933160626063
 1  8.14063534533453  2.86182348864887 -2.89735849804980
 1  6.90869231353135  4.14049162046205 -2.63703659275928

