%nproc=4
%Mem=2GB
# td=(NStates=1) B3LYP/SVP 

TD

0 1
 8 -5.40564592639264  0.20324443944394 -3.33541637443744
 8  2.72301912801280  3.19189491289129  3.06938320272027
 8  3.12491322912291  0.99290429952995  3.24443640484048
 8  1.56772090799080 -7.23625953035303  1.56067647744774
 8  0.72003875327533 -7.04648555255526 -0.44120805200520
 8  2.03835729502950  3.91876484348435 -0.10484221982198
 7 -2.46418702140214 -0.97453245984598  0.67219374647465
 7 -4.38722262616262  0.66503075167517 -1.28710064216422
 7  1.91232095919592 -0.67290927192719 -0.37701914001400
 7  2.78653992439244  1.89035748584858 -0.55110258525853
 6 -4.84400664696470  1.16206638603860  0.00419087558756
 6 -4.41227583298330  0.27930434813481  1.25951801250125
 6 -3.04163761996200 -0.09194431203120  1.31695703580358
 6 -2.04570961526153  0.55059720672067  2.22467326552655
 6 -0.80915480298030  0.04320576207621  1.82890165236524
 6 -1.06996137113711 -0.85856096519652  0.75957266556656
 6 -6.32978907630763  1.29100085598560 -0.16814522832283
 6  0.49693317661766  0.23640156325633  2.54277894669467
 6 -6.71587401910191  0.99999230443044 -1.43624448214821
 6 -0.19493523552355 -1.87412271337134  0.19143631933193
 6  1.12584549574957 -1.77501001360136 -0.21795058825883
 6 -5.41952001010101  0.55919561276128 -2.15170461126113
 6  1.88183405330533 -2.90330390639064 -0.76196151275128
 6 -2.31268801000100  1.62079381138114  3.22250089008901
 6 -7.18036002820282  1.80665620162016  0.98879949384938
 6  3.03401893019302 -2.35789781408141 -1.21924308140814
 6  0.95908268086809  1.75693883608361  2.41743696209621
 6  3.15739228022802 -0.97399683908391 -0.94854848584859
 6  1.42990852875288 -4.39587396699670 -0.85656413031303
 6 -7.96706342724273  1.03733829822982 -2.09739446144614
 6  1.74410610071007 -5.08891513391339  0.42602892939294
 6  4.28561627802780 -3.12972423822382 -1.82967496489649
 6  4.12878182038204 -0.00788912711271 -1.30638083318332
 6  2.35662827822782  1.92766694099410  2.94670457555756
 6  3.85559008490849  1.39165842214221 -1.08902467316732
 6 -9.19492766576658  1.04845268906891 -1.55383414601460
 6  1.21466877527753 -6.44872360186019  0.39310010271027
 6  4.79619368426843  2.38549060406041 -1.56141986848685
 6  4.16677231173117  3.64698885908591 -1.13447301860186
 6  2.91970072607261  3.25418712011201 -0.57699624662466
 6  6.07756576097610  2.22838470987099 -2.22880440924092
 6  4.56336713011301  5.04183570077008 -1.19475214711471
 6  6.93343089448945  3.20412683408341 -2.47690235833583
 1 -4.34290224092409  2.27608265316532  0.39895943794379
 1 -5.18894732383238 -0.58175316641664  1.02974422272227
 1 -4.92555267446745  0.75750998009801  2.00940307480748
 1 -2.98463587398740 -1.63339019651965 -0.08539093039304
 1 -3.31585727902790  0.36691976817682 -1.55183238053805
 1  0.42767935223522  0.14765473897390  3.58169350155015
 1  1.24117256125612 -0.45092497649765  2.36753507390739
 1 -0.64816530903090 -2.86337430073007 -0.23129331093109
 1 -3.39541169316932  1.78598518381838  3.73519968756876
 1 -1.61346620602060  1.22522114961496  4.00325004960496
 1 -2.00298309760976  2.56919555535554  2.94595674967497
 1 -6.48632252735274  2.39524847694769  1.80030814961496
 1 -7.73110581888189  0.93086941534153  1.37301972457246
 1 -7.87072556385639  2.54631680178018  0.50613961116112
 1  0.99310149144914  2.08220082808281  1.45206521412141
 1  0.24237827792779  2.37387547534753  2.88795915041504
 1  1.61095671397140  0.16375276547655 -0.00095232133213
 1  1.83203146174617 -4.96424194739474 -1.70269833203320
 1  0.34493257365737 -4.28881879527953 -1.18060082978298
 1 -7.81437676267627  1.02864549854986 -3.25997690969097
 1  1.18872181228123 -4.64024832913291  1.20486017361736
 1  2.63101414431443 -4.88323480248025  0.83515745414541
 1  3.85578002180218 -4.03766129462946 -2.41544059665967
 1  5.19988210971097 -3.39158803960396 -1.14031895339534
 1  4.64473156945695 -2.31619367496750 -2.64792511481148
 1  5.03688649574957 -0.26442055085509 -1.80576726492649
 1 -9.40027955015502  1.10632152935294 -0.56038672487249
 1 -10.15466363146315  0.96307068546855 -2.16129587128713
 1  3.64646107750775  3.24210677927793  3.37747592979298
 1  6.40563556915692  1.08689289578958 -2.80760826402640
 1  4.50534154435444  5.49376246824682 -2.35766282128213
 1  3.76699470357036  5.52147921782178 -0.66527961116112
 1  5.45608738023802  5.36930338493849 -0.84656640474047
 1  1.06038357685769 -7.96505774827483  1.48751842494249
 1  7.93768505030503  2.95530283658366 -2.76102486468647
 1  6.85539698399840  4.34854242554255 -2.19598248734874

