%nproc=4
%Mem=2GB
# td=(NStates=1) B3LYP/SVP 

TD

0 1
 8 -5.42569793159316 -0.01684756975698 -3.35620845364536
 8  3.00665749184918  3.07498322172217  3.17581384578458
 8  3.16241697949795  0.90069507860786  3.35761772297230
 8  1.77525166106611 -7.22565847024702  1.42619302910291
 8  0.34559130853085 -6.97531843584358 -0.39016294749475
 8  2.06190965026503  4.05074804180418 -0.07044878047805
 7 -2.35341594429443 -0.84332933953395  0.60400692779278
 7 -4.39741364526453  0.54806905550555 -1.29388132023202
 7  1.84802452955296 -0.65589757075708 -0.35642708080808
 7  2.67927919831983  1.84230268036804 -0.50576805180518
 6 -4.82144439073907  1.18582876227623 -0.04088363186319
 6 -4.45426003140314  0.32683910161016  1.20389244994499
 6 -3.03474693089309  0.16480136253625  1.33813915401540
 6 -2.02520756505651  0.81758390539054  2.14459525772577
 6 -0.81050493799380  0.16610805230523  1.72865162736274
 6 -0.95300967596760 -0.73477858695870  0.81116782508251
 6 -6.29801589898990  1.26276803270327 -0.20131854565457
 6  0.52376585988599  0.32439036213621  2.48259292809281
 6 -6.65931836353635  0.84134643984398 -1.41442229992999
 6 -0.20610635263526 -1.80400570167017  0.18645582128213
 6  1.06846975817582 -1.77470998359836 -0.28192698589859
 6 -5.43615167326733  0.38448814201420 -2.20460990179018
 6  1.85380125002500 -2.87617119311931 -0.88514383098310
 6 -2.21338808000800  1.94415614761476  3.03095173517352
 6 -7.20546253845385  1.90266580258026  0.82560317421742
 6  3.00278580688069 -2.41543356765677 -1.36113727082708
 6  1.14999177177718  1.76421956415642  2.55324054245425
 6  3.07905444644464 -0.98669810921092 -1.02521615261526
 6  1.35902144004400 -4.35378975857586 -0.83569204310431
 6 -8.09157587848785  0.70375493989399 -2.04342906490649
 6  1.73460515061506 -5.11072731513151  0.44968129462946
 6  4.18766648304830 -3.18835010081008 -2.00325232263226
 6  3.93585252745275 -0.00765910411041 -1.26518671377138
 6  2.46773938933893  1.83563773807381  3.03905381048105
 6  3.80484501040104  1.38064732103210 -1.03954972567257
 6 -9.23099127212721  0.75824366816682 -1.47441620422042
 6  1.11326863526353 -6.51712044154416  0.39835062776278
 6  4.73581764666467  2.53074512951295 -1.46938066456646
 6  4.21875751025102  3.67250141034103 -0.98061763306331
 6  2.92458121412141  3.24870657205721 -0.45065361236124
 6  6.14159216361636  2.29027089848985 -1.97619914871487
 6  4.57957875127513  5.01834335153515 -1.03753642554255
 6  6.92042959435944  3.18423484488449 -2.61275594369437
 1 -4.37792574327433  2.20892593749375  0.05850539253925
 1 -5.18794722382238 -0.59326431753175  0.99373062136214
 1 -4.65289540874087  0.95278950805081  2.09374150865087
 1 -2.64763217361736 -1.31264812231223 -0.24028641994199
 1 -3.32584827812781  0.31370444664467 -1.64835203250325
 1  0.54860144444444 -0.14364439093909  3.49515484768477
 1  1.13167161116112 -0.31908179217922  1.88096641704170
 1 -0.79037953045305 -2.89319728302830  0.08254807320732
 1 -3.45329748174817  1.87530411571157  3.26453262086209
 1 -1.68819367876788  1.58959758725873  4.07451717631763
 1 -1.87155995529553  2.80364900070007  2.62083423742374
 1 -6.52891678677868  2.59261821392139  1.43267138593859
 1 -7.63443615191519  1.06294262266227  1.54862728532853
 1 -8.07524601590159  2.50667283738374  0.28178717591759
 1  1.05378756005601  2.51197380538054  1.58445845344534
 1  0.54304834493449  2.21448953675367  3.34494484898490
 1  1.42134775307531  0.15003139333933 -0.17092931903190
 1  1.81204946354635 -4.97726324952495 -1.52930099229923
 1  0.29049713011301 -4.52835274867487 -0.84659742944294
 1 -8.00035536053605  0.53843647764776 -3.07274818681868
 1  1.28887182728273 -4.47651195549555  1.12797248484848
 1  2.82522356525653 -5.16131261026103  0.60747468586859
 1  3.74098854265426 -4.33249077757776 -2.40544959755976
 1  4.99664178567857 -3.43033191399140 -1.33638856035604
 1  4.70512760906091 -2.58490054565457 -2.81618194049405
 1  4.73392619971997 -0.32229633843384 -1.91906859505951
 1 -9.40331985418542  0.98159905710571 -0.45864655085509
 1 -10.11872003710371  0.66891126952695 -2.19049879157916
 1  3.85116154755476  3.04895746434643  3.64566274847485
 1  6.56738174377438  1.30109431593159 -2.08286578977898
 1  4.23223423362336  5.29112220422042 -2.04119117411741
 1  4.28205620972097  5.55847291719172 -0.20933401660166
 1  5.77199897139714  5.01954840944094 -0.87604935303530
 1  1.25330286878688 -8.02749399189919  1.28964863796380
 1  7.85562684448445  2.90955826212621 -2.96095485768577
 1  6.64449589388939  4.22421999329933 -2.74273716281628

