%nproc=4
%Mem=2GB
# td=(NStates=1) B3LYP/SVP 

TD

0 1
 8 -5.16290165196520  0.28328244324432 -3.26986981978198
 8  2.73365019111911  3.04947067046705  3.59733599799980
 8  3.24719545734573  0.78791380048005  3.20161212241224
 8  1.64425856175618 -7.05170107450745  1.61347175697570
 8  0.44435118451845 -6.92727363136314 -0.23356728792879
 8  1.96680013931393  3.96342930993099  0.04125238963896
 7 -2.36243684638464 -0.82466747334733  0.53584011111111
 7 -4.40216412031203  0.65527977657766 -1.15027695979598
 7  1.84793452055206 -0.74900688168817 -0.44355579367937
 7  2.69403067346735  1.78365681578158 -0.50216769176918
 6 -4.85961820812081  1.25270544994499  0.07676813331333
 6 -4.47575218061806  0.36544296199620  1.22934499519952
 6 -2.96531998819882  0.09831471387139  1.36689202930293
 6 -1.89730477477748  0.68917106410641  2.09865066326633
 6 -0.72103599109911  0.05900734223422  1.71740050225023
 6 -0.97838221322132 -0.92063717281728  0.76056276457646
 6 -6.32163826122612  1.38999075497550 -0.21658007180718
 6  0.62760624392439  0.21513943704370  2.47345201400140
 6 -6.61774420612061  0.88465077027703 -1.42978383608361
 6 -0.24106984898490 -1.84121942304230  0.04589176487649
 6  1.04643755495550 -1.81331384398440 -0.35555434863486
 6 -5.30942900100010  0.46858655185519 -2.03804324512451
 6  1.81543741364136 -2.92175575157516 -0.96126144274427
 6 -2.24373111431143  1.66118785078508  3.14880352035204
 6 -7.34058605080508  2.01687722372237  0.77455806970697
 6  3.06635216351635 -2.42330435473547 -1.24667582468247
 6  1.04968174077408  1.68212135433543  2.60270548894889
 6  3.08248478947895 -0.98577801720172 -1.05642927392739
 6  1.50005554345435 -4.40976535613561 -0.98301677557756
 6 -7.89494621552155  0.78657322172217 -2.19729445144514
 6  1.75480717081708 -4.96902314471447  0.40890721722172
 6  4.23228094449445 -3.03347461326133 -1.94486648404840
 6  4.02705164736474  0.02445410721072 -1.39878007310731
 6  2.44572718811881  1.77110128442844  3.16988689378938
 6  3.72487701360136  1.32245150145014 -1.16566233693369
 6 -9.06797497049705  0.71680952475248 -1.54552331493149
 6  1.20093740214021 -6.40972970247025  0.51390218291829
 6  4.68843290819082  2.49508156315632 -1.53133686018602
 6  4.04268990349035  3.63502766296630 -1.24750432173217
 6  2.79474823082308  3.18808050945095 -0.51972051905191
 6  6.07424542894289  2.27681955335534 -2.04669619841984
 6  4.39996078947895  4.98068958615862 -1.21278395029503
 6  6.82700025142514  3.07795421682168 -2.78894356245625
 1 -4.42233018371837  2.25441048594859  0.15056459845985
 1 -5.08998742784279 -0.61435642674267  0.99801104940494
 1 -4.84774489368937  0.88195242434243  2.19105123962396
 1 -2.84572198259826 -1.01345820332033 -0.36705909720972
 1 -3.35758145144514  0.83654673087309 -1.72825002230223
 1  0.63402998729873 -0.18715874237424  3.41050638283828
 1  1.34390283428343 -0.41485136913691  1.83850217061706
 1 -0.90898139063906 -2.65699366266627 -0.18616879847985
 1 -3.19634178617862  1.82998958425843  3.17447361496150
 1 -1.74956981638164  1.32486111361136  3.92859258385839
 1 -1.78672147144714  2.63789242504250  2.86309846384638
 1 -6.86320021512151  2.91925087718772  1.23350146894689
 1 -7.67238994729473  1.37715404380438  1.58358078067807
 1 -8.16245473677368  2.46477864796480  0.32001099829983
 1  0.89079126042604  2.13322593059306  1.65615562316232
 1  0.35835987608761  2.34544263206321  3.38742909740974
 1  1.55938155645565  0.21472786298630  0.00493826772677
 1  2.09578783738374 -4.87561308450845 -1.73961202340234
 1  0.34810289068907 -4.50694060746075 -1.20424319401940
 1 -7.88168349334934  0.74854748874887 -3.18807971997200
 1  1.16838977907791 -4.27221152545255  1.26849653725373
 1  2.72777382028203 -5.14174065306531  1.13122706110611
 1  4.09136358015802 -4.04782231073107 -1.79446849944994
 1  5.21767388888889 -2.88850773157316 -1.35716063756376
 1  4.39489658595860 -2.98498055365537 -3.03293361566157
 1  4.96852966006601 -0.29222333113311 -1.63426011421142
 1 -9.38982850505051  0.72372326952695 -0.54708539473947
 1 -9.98729689478948  0.62191657005700 -2.17916765846585
 1  3.59896632803280  3.07928049664966  4.04993317551755
 1  6.48078308390839  1.36314052055205 -1.78041554475447
 1  4.62108311851185  5.43740683268327 -2.20241729672967
 1  3.61381938603860  5.53549061896190 -0.69538262146215
 1  5.49296106760676  5.02049850445044 -0.68122987108711
 1  1.50108764726473 -8.01371261376138  1.60307998109811
 1  7.73376465826583  2.70009731603160 -2.89462822502250
 1  6.58128957325733  4.16133370467047 -2.91460434953495

