%nproc=4
%Mem=2GB
# td=(NStates=1) B3LYP/SVP 

TD

0 1
 8 -5.58550391219122  0.21838595359536 -3.37046987978798
 8  2.81895872197220  3.01100682408241  3.13904016841684
 8  3.19244998279828  0.72456746584658  3.09710167136714
 8  1.57274141004100 -7.16524242864286  1.63735414521452
 8  0.86458320772077 -7.09956086008601 -0.52792672387239
 8  2.11402486178618  4.12611557855786 -0.12923465906591
 7 -2.37338794149415 -0.86964197079708  0.53406993409341
 7 -4.53358726262626  0.63337758635864 -1.42080401250125
 7  1.71759148624863 -0.65825780678068 -0.45595703380338
 7  2.73631490189019  1.97849629972997 -0.50444791979198
 6 -4.86213846014601  1.21183136253625 -0.08397794129413
 6 -4.44045865126513  0.38529494719472  1.16316837753775
 6 -2.98793224942494  0.06275115751575  1.35774111421142
 6 -1.99395443974397  0.72174432143214  2.12552335053505
 6 -0.74652854035404  0.09979142064206  1.68238700090009
 6 -1.04710908590859 -0.89734484358436  0.66048275657566
 6 -6.44133023042304  1.38909066496650 -0.18740715451545
 6  0.51876535983598  0.22724064716472  2.45590025882588
 6 -6.83583601530153  0.90150245544554 -1.33215407310731
 6 -0.24811055305531 -1.92704800590059  0.14581175687569
 6  1.02111502270227 -1.85551806440644 -0.31616040924092
 6 -5.71009906800680  0.56262595579558 -2.16634607540754
 6  1.94292016191619 -2.92403597959796 -0.79305462206221
 6 -2.22012875407541  1.78578031003100  3.08168680868087
 6 -7.21751374357436  2.01580711671167  0.95740635453545
 6  3.07887341564156 -2.34053607790779 -1.18693985108511
 6  1.02095886848685  1.72949609180918  2.58471368976898
 6  3.02141868286829 -0.95866530593059 -0.90981461246125
 6  1.51903744164416 -4.44514889448945 -0.89321779567957
 6 -8.10043676457646  0.82569713411341 -1.96694141614161
 6  1.81814350445045 -5.10412665506551  0.44808113461346
 6  4.32574029042904 -3.01334260006001 -1.73031502890289
 6  3.95137407960796 -0.02871120932093 -1.20973116821682
 6  2.46653926932693  1.74967914221422  3.00048995409541
 6  3.79833435933593  1.39370862716272 -1.00928669936994
 6 -9.32813098609861  0.77932577637764 -1.42350111271127
 6  1.30746805520552 -6.56869559905991  0.46324711741174
 6  4.88018208310831  2.46582863786379 -1.35632935943594
 6  4.34695032953295  3.63002716291629 -1.03875344664466
 6  2.93755251125113  3.33177487888789 -0.48324687168717
 6  6.15207321172117  2.27609948134814 -1.92337386618662
 6  4.68362915631563  5.10126164336434 -1.17731040294029
 6  6.90847839923992  3.02490891229123 -2.65651031913191
 1 -4.45451340204020  2.17185223012301  0.03932347434744
 1 -5.18667709680968 -0.48885387648765  1.23592484078408
 1 -4.74762488168817  1.02474670377038  2.12908504300430
 1 -2.86939434983498 -1.13193005050505 -0.34273666496650
 1 -3.63850954425443  0.95252832903290 -1.85711290859086
 1  0.50750733503350 -0.22099212571257  3.56492182438244
 1  1.45150359435944 -0.37561744574457  2.15051337173717
 1 -0.53106359885989 -2.96593455675568 -0.31741192279228
 1 -3.25288744074407  1.67893447874788  3.19214538213821
 1 -1.55795065446545  1.69963859135914  4.00679040364036
 1 -1.88487128642864  2.83205184098410  2.54479663366337
 1 -6.87446134123412  2.69169812191219  1.50054817361736
 1 -7.33437614591459  1.16840316871687  1.63945636823682
 1 -8.27368585988599  2.15528769886989  0.68870786798680
 1  0.94515669696970  2.20014262226223  1.66355636323632
 1  0.49190323042304  2.32131021882188  3.30356071057106
 1  1.46190180848085  0.27494388458846 -0.36114834093409
 1  2.03137139573957 -4.99951547474748 -1.59063712591259
 1  0.49980806120612 -4.57848776217622 -1.18175094479448
 1 -7.83298862386239  0.76246888088809 -3.12348326032603
 1  1.25217815791579 -4.68861316561656  1.28756844444444
 1  2.86448749164917 -4.97910438943894  0.93586752515252
 1  4.22045648944894 -4.10246777527753 -1.74627367996800
 1  5.16306842834283 -2.86749563036304 -1.06608152965297
 1  4.74214131043104 -2.67961001660166 -2.75311563386339
 1  5.09636244334433 -0.41431554035404 -1.27538422662266
 1 -9.53541306350635  0.81871276847685 -0.35418610481048
 1 -10.16602476757676  0.77596197459746 -2.01911165286529
 1  3.63426985838584  3.24072664126413  3.39828801100110
 1  6.43388839443944  1.15602980948095 -1.76077358055806
 1  4.55467647784779  5.51080417241724 -2.28606566156616
 1  3.95579358345835  5.61281835173517 -0.63381646484648
 1  5.65095686718672  5.18284473907391 -1.02942469056906
 1  1.15735327382738 -8.20997223972397  1.50814048714871
 1  7.91897317911791  2.87523482978298 -3.12078084028403
 1  6.42358380268027  3.97814538583858 -3.23651654075408

