%nproc=4
%Mem=2GB
# td=(NStates=1) B3LYP/SVP 

TD

0 1
 8 -5.39468483028303  0.24686880188019 -3.34624745754575
 8  2.95230205630563  3.03055877927793  3.12301856625663
 8  3.22366310411041  0.83672868196820  3.15448740994099
 8  1.38302243814381 -7.10222612701270  1.49955036483648
 8  0.37936468586859 -6.82520342434244 -0.45918985018502
 8  2.15019847914791  4.14614758175818 -0.10704243984398
 7 -2.37683828652865 -0.85120012661266  0.48649517661766
 7 -4.42009591349135  0.71044529312931 -1.30700263236324
 7  1.93254298139814 -0.58306028702870 -0.21657309540954
 7  2.85480675107511  1.92988143824382 -0.44578205320532
 6 -4.93209545584558  1.20971115051505 -0.03994353785379
 6 -4.53844845024502  0.21195761346135  1.19856191689169
 6 -3.08703215941594  0.02035691809181  1.39481482158216
 6 -2.10220526482648  0.59874202120212  2.18004880308031
 6 -0.83490737823782  0.02122356385639  1.95397415961596
 6 -1.04264863986399 -0.84952006110611  0.78427513581358
 6 -6.41016711411141  1.30484224012401 -0.20525893969397
 6  0.48943242654265  0.33223114621462  2.52594726352635
 6 -6.73419585128513  0.91161346654665 -1.42586344404440
 6 -0.12113785578558 -1.77250255135514  0.08458563426343
 6  1.07018993019302 -1.72813532613261 -0.31876066926693
 6 -5.46321437953795  0.55411510471047 -2.23083252405241
 6  1.95620149004901 -2.83731730773077 -0.83146846344634
 6 -2.39357609880988  1.62517424942494  3.22693133313331
 6 -7.16347834003400  1.66292182818282  0.92757337123712
 6  3.12418794709471 -2.30516254055406 -1.14384554165417
 6  1.02221899449945  1.74095723792379  2.43368858725873
 6  3.09497603860386 -0.90011945134513 -0.85296892789279
 6  1.39165470337034 -4.32201658125813 -0.82940141404140
 6 -8.11701842274227  0.64335890029003 -2.01153587558756
 6  1.61268295839584 -5.01298754115412  0.39302562906291
 6  4.32792050845084 -3.04339560536054 -1.82847484488449
 6  4.15680462266227 -0.04426276447645 -1.21106130123012
 6  2.49029164456446  1.78637281158116  2.94953485858586
 6  3.85868039393939  1.42282153845385 -1.15906167686769
 6 -9.29304747774778  0.49019686348635 -1.46725548814881
 6  1.01230853925393 -6.36634536403640  0.46458725142514
 6  4.96635069997000  2.48583063806381 -1.48330205670567
 6  4.33467910241024  3.57388154835484 -1.12865243654365
 6  2.91087984398440  3.28540024142414 -0.53519206620662
 6  6.13602160656066  2.16603847524752 -2.12476400520052
 6  4.77258805220522  5.05198671587159 -1.27901057295730
 6  6.92011956335634  3.13547996939694 -2.57863253135314
 1 -4.44453240394039  2.18555360026003  0.09656919891989
 1 -5.17620604970497 -0.78977396849685  1.11074232253225
 1 -5.03091321052105  0.69500372947295  2.03078521302130
 1 -2.71845925632563 -1.56695355285529 -0.17791018231823
 1 -3.57853354665467  0.54469754595460 -1.31123832113211
 1  0.33925050935094  0.09069904340434  3.59034436663666
 1  1.32952139613961 -0.52333221722172  2.13843216361636
 1 -0.41127161966197 -2.85842380568057 -0.32093227482748
 1 -3.47683983598360  1.96280286558656  3.28220438803880
 1 -2.16021088048805  1.36286491399140  4.29544926952695
 1 -1.73273607290729  2.61285992179218  2.86047820182018
 1 -6.41729562466247  2.36650560266027  1.45647376617662
 1 -7.41221392969297  0.79482581098110  1.68260068266827
 1 -8.22389088038804  2.19161133123312  0.69708870607061
 1  1.24358653995400  1.83578618661866  1.32935294289429
 1  0.54863890399040  2.66339442724272  2.80826118061806
 1  1.81115673397340  0.42388877907791 -0.16530875697570
 1  1.74006226482648 -5.02406792999300 -1.69444750695070
 1  0.27665574597460 -4.56324623802380 -0.92876564626463
 1 -7.94415974097410  0.62222485648565 -3.13523443544354
 1  1.23365630573057 -4.52372667696770  1.33943363096310
 1  2.71226226912691 -5.21069754875488  0.83607754615462
 1  3.96753119691969 -4.16515404390439 -1.73353240584058
 1  5.22971509300930 -2.73621250205021 -1.25662058355836
 1  4.41993909020902 -2.73343539913991 -2.86051637393739
 1  5.00593340044004 -0.47465157395740 -1.82126881508151
 1 -9.28987851005101  0.66306720392039 -0.44849553575358
 1 -10.02201036613661  0.04075845424542 -2.16038578027803
 1  4.00136656805681  2.78498106670667  3.18532671487149
 1  6.70453545914591  1.05565977247725 -2.32339984318432
 1  4.88898990919092  5.41295438743874 -2.30032708770877
 1  3.80587859195920  5.65777284718472 -0.94400748394839
 1  5.64067583908391  5.28460491509151 -0.52793454155416
 1  0.95463300180018 -7.92835407790779  1.28948862196220
 1  7.84653593539354  2.91138844514451 -3.05812457465747
 1  6.74571601590159  4.19656722802280 -2.52329521862186

