%nproc=4
%Mem=2GB
# td=(NStates=1) B3LYP/SVP 

TD

0 1
 8 -5.17422278407841  0.01124523952395 -3.30429326212621
 8  2.86157298339834  3.22333805720572  3.32046831123112
 8  3.16549728752875  1.03755876497650  3.13831579277928
 8  1.44354849074907 -7.13841974637464  1.52489289908991
 8  0.42906965636564 -6.96531743574357 -0.54266819801980
 8  2.18581204050405  3.93109607660766  0.27853611801180
 7 -2.41719232193219 -0.85351035763576  0.66147267436744
 7 -4.47369127302730  0.78634288288829 -1.25484741684168
 7  1.90429015611561 -0.69734171517152 -0.31433287138714
 7  2.85039631003100  1.76680513061306 -0.36645412041204
 6 -4.93919616591659  1.19994017341734  0.04555501200120
 6 -4.46650125552555  0.32553897159716  1.25485754645465
 6 -3.02276573277328  0.14783966636664  1.38203354345435
 6 -2.02540758505851  0.75056720372037  2.12987378557856
 6 -0.74781866936694  0.16078752025203  1.78046680888089
 6 -1.00714508950895 -0.82128723782378  0.84115082338234
 6 -6.45599169656966  1.25932768866887 -0.28824723852385
 6  0.49009249254925  0.37864578767877  2.59050371917192
 6 -6.69697212891289  0.73489579477948 -1.43845470317032
 6 -0.20560630263026 -1.85357065816582  0.23935111081108
 6  1.08451136233623 -1.81850436303630 -0.26521531473147
 6 -5.39101715981598  0.48907860106011 -2.19058849964996
 6  1.92445831573157 -2.90395397139714 -0.78851416801680
 6 -2.27184392559256  1.65533726572657  3.22427106710671
 6 -7.27445943814381  1.82545808180818  0.81752236613661
 6  3.07933346164616 -2.33499552385239 -1.28422958005801
 6  1.08114488708871  1.85335847804780  2.62915813421342
 6  3.09099564056406 -0.94596403580358 -0.98953258425843
 6  1.40579611751175 -4.33478785838584 -0.95539401330133
 6 -8.03447016791679  0.60321488588859 -2.11780650265027
 6  1.54721641174117 -5.08367460986099  0.37666399289929
 6  4.22380009640964 -3.00003126892689 -2.12972496989699
 6  4.10117906010601 -0.07890622882288 -1.35644583968397
 6  2.44460707610761  1.97152132643264  3.08405831093109
 6  3.88512303820382  1.40167942424242 -1.01136690739074
 6 -9.23168134113411  0.65044288808881 -1.57239600220022
 6  1.05359266766677 -6.50404913441344  0.33288408110811
 6  4.80454451935194  2.43892594759476 -1.52032575907591
 6  4.19830546504650  3.60926508670867 -1.17651722302230
 6  2.95942469846985  3.20870257165717 -0.38800734773477
 6  6.10496850125012  2.20879275067507 -2.20621215001500
 6  4.57402819621962  5.01377289448945 -1.32956562846285
 6  7.00291784318432  3.15871229262926 -2.70438510661066
 1 -4.44231218191819  2.27583262816282  0.05768531053105
 1 -5.04133256235624 -0.62651764286429  1.29027027532753
 1 -4.68106822602260  0.89845407450745  2.09518165266527
 1 -2.97221463186319 -1.49754661216122  0.02749035773577
 1 -3.53404909820982  0.91228430463046 -1.50491768906891
 1  0.32241882618262  0.02631260476048  3.56952228442844
 1  1.36803524752475 -0.10411029502950  2.23520184058406
 1 -0.55068556105611 -2.99354731803180  0.10127994639464
 1 -3.24135628762876  1.34826141144114  3.52026819441944
 1 -1.64047890729073  1.49703833133313  4.08432815741574
 1 -2.06630943024302  2.66749538533853  2.95081723572357
 1 -6.83581747684769  2.67901685378538  1.37405552435243
 1 -7.57059976827683  1.09254558295830  1.60870329292929
 1 -8.08015650695070  2.43945611571157  0.46212520972097
 1  1.14756693799380  2.31659426742674  1.66710671827183
 1  0.61905594569457  2.67295538333833  3.15147550205021
 1  1.71323694199420  0.14472086228623 -0.08374060016002
 1  2.08642690129013 -4.90071559475948 -1.80710877307731
 1  0.34530261066107 -4.42426233963396 -1.31171394109411
 1 -7.87380270527053  0.45403803780378 -3.33878479047905
 1  0.92735567566757 -4.62942724702470  1.27115680328033
 1  2.76878792169217 -5.15959243824382  0.74702864126413
 1  4.10445488928893 -4.13946147464746 -2.31977102970297
 1  5.12412453395340 -2.95073395419542 -1.53714863636364
 1  4.38890598689869 -2.51791384698470 -3.04364468676868
 1  4.92336514361436 -0.43219732853285 -1.96008269646965
 1 -9.58060758295830  1.01851274847485 -0.53235392159216
 1 -10.06174433953395  0.47944232263226 -2.41803154485449
 1  3.77170360176018  3.06813938253825  3.53781196339634
 1  6.42807781338134  1.20624483098310 -2.31655915911591
 1  4.65702671287129  5.11556464846485 -2.36955401040104
 1  3.95880388448845  5.60552762266227 -1.01412449564956
 1  5.74422619411941  5.09360581518152 -0.79383113121312
 1  1.19798733723372 -8.20071131363136  1.33351302440244
 1  7.82607388918892  2.73484079037904 -3.37152591479148
 1  6.61848329262926  4.20979855115512 -2.92830571967197

