%nproc=4
%Mem=2GB
# td=(NStates=1) B3LYP/SVP 

TD

0 1
 8 -5.33453881568157  0.60414452945295 -3.34279711251125
 8  2.93994082018202  3.09997572097210  3.19810607500750
 8  3.17933867166717  0.96011102020202  3.18434039523952
 8  1.81418555445545 -7.22845875027503  1.37433784358436
 8  0.57346409580958 -7.02205310931093 -0.33231716291629
 8  2.02955641494149  3.97652061906191 -0.07142887848785
 7 -2.42292289498950 -0.94349935653565  0.62460898799880
 7 -4.45644954885489  0.69583383198320 -1.22440437253725
 7  1.90023975107511 -0.67303928492849 -0.32094353245325
 7  2.70695196559656  1.83633208330833 -0.46989446444644
 6 -4.97986023232323  1.18575875527553  0.06485694219422
 6 -4.60025463086309  0.24023044074407  1.33731579227923
 6 -3.10836429262926  0.02375725812581  1.41166650675068
 6 -2.04743978827883  0.80090223722372  2.09448024622462
 6 -0.81283517101710  0.14861630313031  1.74651341354135
 6 -1.05097947294729 -0.93270837993799  0.86334304260426
 6 -6.42558865626563  1.34646640254025 -0.22611102490249
 6  0.51996547984798  0.50171809490949  2.44618928772877
 6 -6.78412084378438  0.93439574477448 -1.39825068276828
 6 -0.24816055805581 -1.92246754785479  0.07616479217922
 6  1.06080899209921 -1.81713422602260 -0.34352314551455
 6 -5.49027708580858  0.71577127032703 -2.13629307010701
 6  1.88139400930093 -2.93443701970197 -0.81403672027203
 6 -2.39036577777778  1.76455818781878  3.11668030803080
 6 -7.31838383058306  1.70811634763476  0.93752436633663
 6  3.08024355265527 -2.38181020532053 -1.18276943404340
 6  1.03462023462346  1.89848299049905  2.46324154255426
 6  3.10718725972597 -0.95867530693069 -0.99911354235424
 6  1.54269980788079 -4.35578995859586 -0.93830230413041
 6 -8.05558227912791  0.89244380878088 -2.09938466046605
 6  1.79321101120112 -5.08445468786879  0.44759108560856
 6  4.26042375877588 -3.24117538333833 -1.72432442984298
 6  4.12937187938794  0.00750241204120 -1.34334452955296
 6  2.50402301770177  1.91933610791079  3.00607051215122
 6  3.82042656855686  1.32273152945295 -1.13549932063206
 6 -9.30541871487149  0.66595443924392 -1.59901866446645
 6  1.39635694409441 -6.55163389288929  0.36530732343234
 6  4.81739580448045  2.45604765976598 -1.44548827532753
 6  4.28676431093109  3.52894705490549 -1.03840341164116
 6  2.84588334433443  3.29691139253925 -0.45423397039704
 6  6.13023102750275  2.15083695509551 -2.09384091289129
 6  4.72824361776178  4.97310882808281 -1.13039571147115
 6  6.85242279367937  3.00299672107211 -2.74736940504050
 1 -4.60443839453945  2.35504054895490  0.21542108410841
 1 -5.10092852195219 -0.81308629972997  1.24878612691269
 1 -4.91264138333833  0.67670189928993  2.28356049054905
 1 -3.16406381678168 -1.74598145564556  0.09481709040904
 1 -3.44702039533953  0.76279935613561 -1.60324752205220
 1  0.36274285858586  0.07711768526853  3.46064139633963
 1  1.32624106810681 -0.34126401040104  2.27046536693669
 1 -0.77865835833583 -2.86255421872187 -0.16821700330033
 1 -3.59262141414141  1.75131171647165  2.94325049264926
 1 -1.92483734313431  1.65510413791379  4.00657038163816
 1 -1.93803660296030  2.68277691349135  2.62096425042504
 1 -7.25045894099410  2.51506045814581  1.41000911971197
 1 -7.69881258955896  0.71864819321932  1.52810523312331
 1 -8.43208169946995  1.99213138323832  0.54811380858086
 1  0.91565374667467  2.36768937693769  1.53333334093409
 1  0.35401944204420  2.52806089388939  3.02183253775378
 1  1.68505412371237  0.40681707190719 -0.26259848594860
 1  2.17251551015101 -5.08473399659966 -1.66674473667367
 1  0.50465854625463 -4.37382729612961 -1.17086985668567
 1 -7.89631495649565  1.11828446244624 -3.15831674367437
 1  1.27527046714671 -4.90283458775878  1.53514320192019
 1  2.68437948084808 -4.75582206120612  0.76788072647265
 1  4.06644108790879 -4.53215074357436 -1.47590664326433
 1  5.14510663216322 -2.79794867566757 -1.28403332483248
 1  4.40753785008501 -3.21550360596060 -2.96576689898990
 1  5.07400020712071 -0.40750485928593 -1.88272496069607
 1 -9.31915143734373  0.58381927912791 -0.56600728692869
 1 -9.93769193429343  0.81337571597160 -2.41162090379038
 1  3.70256668806881  3.02848541714171  3.69935811801180
 1  6.47377238283828  1.13552775927593 -2.06605410861086
 1  4.35827683788379  5.33727681968197 -2.19608666366637
 1  4.17895589968997  5.56184325422542 -0.32296537973797
 1  5.77844961646165  5.03415987058706 -1.15488723682368
 1  1.44383192169217 -8.15054629712971  1.54954462756276
 1  8.10878216001600  2.79573687998800 -2.79502826502650
 1  6.56325777007701  4.09354692599260 -2.78128101720172

