%nproc=4
%Mem=2GB
# td=(NStates=1) B3LYP/SVP 

TD

0 1
 8 -5.22728809060906  0.18202231723172 -3.27348018081808
 8  2.93039986608661  3.06945266866687  3.02507877227723
 8  3.24569530733073  0.87263227232723  3.26105806700670
 8  1.43793792969297 -7.21398730313031  1.49501991179118
 8  0.39734648404840 -6.81502240624062 -0.41537546874687
 8  1.94476793609361  4.01683465046505 -0.20904263986399
 7 -2.47961856455646 -0.92835784238424  0.53058958605861
 7 -4.32829673357336  0.69087333593359 -1.10640257235724
 7  1.89736946404640 -0.58019000000000 -0.37427886598660
 7  2.73541481188119  1.79726817691769 -0.57162463746375
 6 -4.85571781808181  1.20333051245125  0.07582803930393
 6 -4.45691029642964  0.27320373807381  1.32082414311431
 6 -3.04476793299330  0.00230511291129  1.32673801390139
 6 -2.00801584588459  0.63208535553555  2.11043184138414
 6 -0.71553544104410  0.02713415491549  1.81820058225823
 6 -1.06693106810681 -0.88373348244824  0.72841955025503
 6 -6.33013911131113  1.27003875977598 -0.14070248404840
 6  0.57902138543854  0.26337426052605  2.48437310611061
 6 -6.76181861356136  0.80462276747675 -1.38005886358636
 6 -0.23125886788679 -1.80116541764176 -0.03594641894189
 6  1.12365527672767 -1.73480599319932 -0.34034282748275
 6 -5.43282134023402  0.53102279547955 -2.10263970477048
 6  1.89695556545655 -2.91386496249625 -0.87815313191319
 6 -2.24114085528553  1.69068080008001  3.17040568056806
 6 -7.29891188338834  1.79408494449445  0.91388200210021
 6  3.19531505980598 -2.37087911221122 -1.18235939303930
 6  1.06715348794879  1.68938208040804  2.38166338473847
 6  3.14798133913391 -0.98528796819682 -0.91596522752275
 6  1.51240677857786 -4.34018839843984 -0.84287276117612
 6 -8.00332705360536  0.82559712411241 -2.10507522952295
 6  1.63852554265427 -4.95311155355536  0.44242056855686
 6  4.37713542994299 -3.10018128392839 -1.80990298769877
 6  4.06513545574557  0.02796445824582 -1.25377557265727
 6  2.52860547594759  1.85043921822182  2.98839874497450
 6  3.86961148704870  1.36882613891389 -1.11270704140414
 6 -9.24441261426143  0.89300714451445 -1.55076383898390
 6  1.14504181258126 -6.37508623812381  0.51953274597460
 6  4.82300636553655  2.47225928092809 -1.38797252375238
 6  4.09021465596560  3.60823498369837 -1.19012858415842
 6  2.71266002200220  3.14219592099210 -0.62166071307131
 6  6.14709271367137  2.27547941934193 -1.90726225502550
 6  4.40980177357736  5.01431294849485 -1.27802047394740
 6  6.97966551795180  3.16930335173517 -2.36309097719772
 1 -4.59681763246325  2.30607565246525  0.18592813481348
 1 -5.13726215531553 -0.64060905200520  1.26167741604160
 1 -4.88343846304631  0.57031126022602  2.12742487698770
 1 -2.98486589698970 -1.58220507800780 -0.29536192749275
 1 -3.34763045634563  0.90513358955896 -1.55919311661166
 1  0.48961554585459 -0.00270029652965  3.51262659485949
 1  1.39947839183918 -0.49936982098210  2.09270759115912
 1 -0.79289978247825 -2.85833379667967 -0.32126230783078
 1 -3.22013416541654  1.75703228852885  3.38853502110211
 1 -2.02034689408941  1.51814044154415  4.15981570617062
 1 -1.81732453175318  2.63896253205320  2.91578373237324
 1 -6.85566946204621  2.39722867496750  1.71990010881088
 1 -7.93530623892389  0.99770609900990  1.37137956055606
 1 -7.89113760506051  2.41457362746275  0.25334433163316
 1  1.23619580088009  2.16623923192319  1.34732474007401
 1  0.45479952005201  2.33074116191619  2.88796915141514
 1  1.83826944524452  0.35476186638664 -0.11764399049905
 1  2.20521878047805 -4.90666618981898 -1.62319038123812
 1  0.42401048144814 -4.40176008940894 -1.10989375907591
 1 -7.79895522052205  0.73837647164716 -3.18629954195420
 1  0.91071401150115 -4.68115241954195  1.26664635223522
 1  2.60847189008901 -4.93866034503450  0.69942388078808
 1  3.98301274507451 -4.16852438093809 -2.06823587618762
 1  5.22950507200720 -3.10398927972797 -1.06251117261726
 1  4.92862995929593 -2.59832188778878 -2.84237455975598
 1  5.01300410751075 -0.35053916271627 -1.80659734793479
 1 -9.44495401760176  0.84421531873187 -0.62695338153815
 1 -10.18423658875888  1.12775715411541 -2.22405214691469
 1  3.89458588998900  2.89878244684468  3.19863804600460
 1  6.46618162376238  1.20207441394139 -1.71814931813181
 1  4.45886689688969  5.50201329332933 -2.34716177117712
 1  3.56658466256626  5.44060113001300 -0.66966004920492
 1  5.29430120162016  5.32608906350635 -0.76401814991499
 1  1.12610014851485 -7.92364360686068  1.16538621172117
 1  7.89612089388939  2.75539284558456 -2.70930969316932
 1  6.73079452375238  4.29175674697470 -2.79134202330233

