%nproc=4
%Mem=2GB
# td=(NStates=1) B3LYP/SVP 

TD

0 1
 8 -5.36329169096910  0.04104821982198 -3.33931676447645
 8  3.00429725582558  3.00092581598160  3.18557482188219
 8  3.25103584138414  0.77450245934593  3.12708466966697
 8  1.90792492839284 -7.20947685208521  1.38581899169917
 8  0.42835958535854 -6.96996790079008 -0.29800373157316
 8  2.07249070837084  4.02245521252125  0.08604686908691
 7 -2.38853945664566 -0.93588859545955  0.66950347744774
 7 -4.39441334523452  0.54481873047305 -1.37450938303830
 7  1.80003973107311 -0.59333131413141 -0.46287772587259
 7  2.58018928932893  1.91424987508751 -0.61044851985199
 6 -4.73779602590259  1.26110629002900 -0.09861940544054
 6 -4.49700430583058  0.33665008270827  1.19607166786679
 6 -3.00356381258126  0.09813469586959  1.34782012211221
 6 -2.00692573687369  0.70339248624863  2.16602740094009
 6 -0.81020490799080  0.13432487398740  1.80840960316032
 6 -1.00452482748275 -0.83330843994399  0.85665237353735
 6 -6.23158925632563  1.48096985288529 -0.29936835063506
 6  0.50542402570257  0.34057198029803  2.48114278307831
 6 -6.76060849254925  0.85251755695570 -1.46040689838984
 6 -0.23005874787479 -1.90756605770577  0.26095327102710
 6  1.05735864706471 -1.81488400100010 -0.28925771897190
 6 -5.43407146524652  0.40396008920892 -2.16465590639064
 6  1.79988585848585 -2.92360593659366 -0.79574489108911
 6 -2.30691743294329  1.72144387638764  3.28875751575158
 6 -7.02541453365337  2.11903743974397  0.75701631553155
 6  3.03403893219322 -2.45684770907091 -1.19012016911691
 6  1.11728850145014  1.75248839103910  2.50997621602160
 6  3.07070361136114 -0.94306374577458 -0.98426205720572
 6  1.44876041394139 -4.34457883748375 -0.90370884478448
 6 -8.02366908780878  0.77944250865087 -2.11897661966197
 6  1.80944263436344 -5.02409865226523  0.41828815531553
 6  4.11930964736474 -3.20998226402640 -1.85053705110511
 6  3.93785272747275  0.01159282108211 -1.30791098619862
 6  2.55205782118212  1.81706588088809  2.92051195629563
 6  3.69152367826783  1.37031628792879 -1.11213698439844
 6 -9.25357353035304  0.86644448824882 -1.58197696029603
 6  1.29191650005001 -6.50668939843984  0.48959975267527
 6  4.67174123902390  2.47154920992099 -1.39201292779278
 6  4.11175681018102  3.61052521272127 -1.14946451775178
 6  2.85618437443744  3.25955765716572 -0.45351389838984
 6  6.00750875527553  2.22597446884688 -1.95324685348535
 6  4.60906169956996  5.05494701190119 -1.00406307820782
 6  6.60037758915892  3.18090451185119 -2.65225989408941
 1 -4.34236218691869  2.17417246214622  0.16827636963696
 1 -5.05353378247825 -0.62238722982298  1.12570381868187
 1 -4.87913803300330  0.92156638573857  2.20228236273627
 1 -2.81926933733373 -1.29008586608661 -0.12779517081708
 1 -3.34957065036504  0.52639571577158 -1.62037923522352
 1  0.27478406270627 -0.18551857835784  3.41639697189719
 1  1.32494093809381 -0.16707659165917  1.99729805020502
 1 -0.68901939443944 -2.89414737803780  0.09952977137714
 1 -3.21870402240224  1.81198778407841  3.36879304690469
 1 -1.66400125952595  1.54945357285729  4.16582630723072
 1 -1.91838463776378  2.76751538733873  2.80798295229523
 1 -6.51400529562956  2.82596154825483  1.49049716851685
 1 -7.41390409870987  1.37848417681768  1.54851727432743
 1 -8.03825231653165  2.36523869396940  0.18675767296730
 1  1.14356653795380  2.34048665666567  1.55546555415541
 1  0.45033907400740  2.44623271107111  3.36381673617362
 1  1.74616023432343  0.28027441764176 -0.26795902200220
 1  1.88529678827883 -4.81954747794780 -1.75818388058806
 1  0.33568164856486 -4.52077199059906 -1.04009677937794
 1 -7.76730205520552  0.56192882688269 -3.12363327532753
 1  1.24244718481848 -4.63721802610261  1.22594228182818
 1  2.86066710961096 -5.16839331833183  0.62016595499550
 1  3.84640908470847 -4.26787431593159 -1.92619167176718
 1  4.98081020252025 -3.15176405720572 -1.21139606110611
 1  4.45607270357036 -2.96678873447345 -2.93584390669067
 1  4.83494630173017 -0.22340644944495 -1.71717840604061
 1 -9.35787530973097  1.11300219741974 -0.57910859705971
 1 -10.12221038613861  1.10331470987099 -1.97323706540654
 1  3.90067649904991  2.92595516411641  3.46093427562756
 1  6.57780278587859  1.34326853335333 -1.74209171237124
 1  4.84411542174217  5.64144723672367 -1.99664671967197
 1  3.78823682778278  5.50913798369837 -0.46122920612061
 1  5.69359113061306  5.19537599219922 -0.45976772487249
 1  1.85866340484048 -8.08922016451645  1.28230790389039
 1  7.63395467726773  2.98898620492049 -2.70087885008501
 1  6.19500094439444  4.05021259255926 -3.07766065516552

