%nproc=4
%Mem=2GB
# td=(NStates=1) B3LYP/SVP 

TD

0 1
 8 -5.33585894769477  0.31009512451245 -3.41357419021902
 8  2.98001482758276  2.96904262766277  3.22877914231423
 8  3.24681541934193  0.79972498159816  2.97521948314831
 8  1.34165830173017 -7.09015491989199  1.53864427422742
 8  0.16617336673667 -6.78706961096110 -0.21082501370137
 8  1.96370983028303  4.03045601260126  0.09467773217322
 7 -2.32432303500350 -0.95932093869387  0.50620714781478
 7 -4.41862576647665  0.53416766536654 -1.31032296439644
 7  1.80292001910191 -0.61518349934993 -0.43579501760176
 7  2.68990026042604  1.94769321942194 -0.57144461946195
 6 -4.85124737103710  1.10202038143814  0.04910536703670
 6 -4.40147475287529  0.22770918861886  1.21107316801680
 6 -2.95628908510851 -0.03294841244124  1.31005634573457
 6 -2.00266531083108  0.57034918191819  2.09480027822782
 6 -0.69134302180218  0.11454289578958  1.73529229142914
 6 -0.88756313131313 -0.87944305340534  0.83389009730973
 6 -6.34787088448845  1.22265402130213 -0.10857927172717
 6  0.61576505980598  0.30818874197420  2.49319398819882
 6 -6.69523195489549  0.81349365456546 -1.42434329202920
 6 -0.13934967696770 -1.97689299039904  0.15241241694169
 6  1.15080799199920 -1.85786829942994 -0.29306810001000
 6 -5.42975103320332  0.48870856405641 -2.21784122492249
 6  1.99853572347235 -2.88962253825383 -0.90676599319932
 6 -2.31532827402740  1.64792652465247  3.08095673567357
 6 -7.09888188038804  1.88496403240324  0.93299391329133
 6  3.21785731403140 -2.36877890219022 -1.27891904900490
 6  1.10670744334433  1.73198634083408  2.45054027242724
 6  3.07190373137314 -0.90514995439544 -0.98510214121412
 6  1.51016655455546 -4.35476985658566 -0.89172764666467
 6 -8.02770949184919  0.74563912831283 -2.17270199219922
 6  1.56809849995000 -4.90833707610761  0.63453978047805
 6  4.37637535393539 -3.01142240804080 -1.92021401880188
 6  3.99345828802880  0.02602426422642 -1.23001319641964
 6  2.56328894429443  1.74753892819282  2.99410931603160
 6  3.79387391329133  1.45402465876588 -1.06817258795880
 6 -9.20741891489149  0.73661150495050 -1.47656641924192
 6  0.97501480988099 -6.34799352885289  0.49420021272127
 6  4.82528659355936  2.47190924592459 -1.47711143764376
 6  4.12175781028103  3.61438559875988 -1.20072964426443
 6  2.83337209320932  3.29000070147015 -0.50587913491349
 6  6.09122712711271  2.30339221062106 -2.08535006380638
 6  4.56136693009301  5.09907142434243 -1.06613928582858
 6  6.86400395179518  3.14339076047605 -2.55496016411641
 1 -4.39647759845985  2.18587363226323  0.16149569156916
 1 -5.01794022312231 -0.87462245334533  0.98989023732373
 1 -4.58636875607561  0.70408463756376  2.25030716521652
 1 -2.81846925732573 -1.66870372787279 -0.21327371867187
 1 -3.46123181648165  0.65647872407241 -1.51062826012601
 1  0.33459004330433  0.02704267776778  3.53140847304730
 1  1.22687113111311 -0.55754563856386  2.34867318771877
 1 -0.91034152665267 -2.84435239853985  0.01190100850085
 1 -3.42064421642164  1.80734732003200  3.23597976557656
 1 -1.82012687208721  1.67746637413741  3.94204392899290
 1 -2.01710450975097  2.68147678347835  2.74822697669767
 1 -6.30695459055906  2.34500345244524  1.48751687048705
 1 -7.57472018031803  1.10497682608261  1.51731415401540
 1 -8.06448493979398  2.59939210931093  0.68970796799680
 1  1.30902308360836  1.96225883388339  1.32898290589059
 1  0.42842688278828  2.35175326312631  2.80031038553855
 1  1.50138575687569  0.40877726792679 -0.15364759085909
 1  2.33487174577458 -4.99497502070207 -1.45531359355936
 1  0.47036511691169 -4.50256016941694 -1.23923669336934
 1 -7.94967029202920  0.76652928692869 -3.31412232423242
 1  0.90343328342834 -4.19948425272527  1.44690437803780
 1  2.50178122102210 -4.76025250425042  1.41184512291229
 1  4.40040448424843 -4.18298582708271 -2.20766981958196
 1  5.15733785528553 -2.92689156995700 -1.11901682318232
 1  4.78301539783978 -2.48585064066407 -2.67160748304830
 1  4.89610241734173 -0.14444855365537 -1.70989767796780
 1 -9.46592611481148  0.68239913711371 -0.48310899709971
 1 -10.12775094019402  0.89655403380338 -2.17396713841384
 1  3.98178460986099  3.11954452305230  3.59675785798580
 1  6.41184619021902  1.30579478597860 -2.10694819801980
 1  4.53245425562556  5.57166025802580 -2.01856891189119
 1  4.00068807290729  5.59093616351635 -0.22934601780178
 1  5.62815458695870  5.18718517311731 -0.44106585468547
 1  1.03971150965096 -7.88358960146015  1.53128280138014
 1  7.99659094089409  3.01761906820682 -3.01116987918792
 1  6.21623306760676  4.23720129142914 -2.72793568266827

