%nproc=4
%Mem=2GB
# td=(NStates=1) B3LYP/SVP 

TD

0 1
 8 -5.17832319411941  0.38071218621862 -3.38963179597960
 8  2.81358818491849  2.94747047044704  3.34309057345735
 8  3.23632437023702  0.83545855495550  3.47695965716572
 8  1.87673180908091 -7.11547745214521  1.55683609340934
 8  0.18314506390639 -6.89104000800080 -0.21026495769577
 8  1.76364982428243  4.04381734873487 -0.23711544714471
 7 -2.34556515921592 -0.97431243784378  0.59199572667267
 7 -4.35292919681968  0.64012826142614 -1.21292322442244
 7  1.89074880198020 -0.64460644164416 -0.33259469756976
 7  2.67501877227723  1.91310976107611 -0.54601207620762
 6 -4.80159240554055  1.27666784618462 -0.02870241374137
 6 -4.48481308670867  0.39137555525553  1.23415547624762
 6 -3.05887934413441  0.00980586298630  1.34184952505251
 6 -1.99984502880288  0.47443959095910  2.15996679487949
 6 -0.73307719521952 -0.12271082958296  1.81596035823582
 6 -0.94848922392239 -1.01130623972397  0.89631633993399
 6 -6.32339843724372  1.38354010991099 -0.16146456025603
 6  0.61802528582858  0.22346026912691  2.53908857765777
 6 -6.57189962166217  1.01027333253325 -1.53145400310031
 6 -0.09067480948095 -1.96177147824782  0.18357553325333
 6  1.14333724492449 -1.82936544914491 -0.28730752395240
 6 -5.39770782888289  0.63770346354635 -2.23501294209421
 6  1.99660553045305 -2.93245682168217 -0.84235955255526
 6 -2.26973371457146  1.65694742674267  3.13984262426243
 6 -7.13651564376438  1.93156869286929  0.89546015991599
 6  3.19729525782578 -2.42070409470947 -1.20031118821882
 6  1.04382115471547  1.60339348154815  2.51809702810281
 6  3.06181272227223 -0.88204764416442 -0.98544217521752
 6  1.38646418431843 -4.40035441504150 -0.91862033593359
 6 -7.92963968486849  0.95355992039204 -2.22017673967397
 6  1.68289998009801 -5.05699194159416  0.37389371587159
 6  4.23668138453845 -3.09533079887989 -1.87155915331533
 6  4.05190413261326  0.09492115391539 -1.28372856795680
 6  2.52732534793479  1.74676885118512  3.12911281638164
 6  3.75338986488649  1.40345960226023 -1.11619739043904
 6 -9.08437661066107  0.77936578037804 -1.61384014661466
 6  1.13150045844584 -6.48338706820682  0.54314510721072
 6  4.63175724062406  2.41588364336434 -1.49634336083608
 6  4.03764939943994  3.58027218741874 -1.20924049534954
 6  2.67508626462646  3.31655335673567 -0.59516806380638
 6  5.92486049044904  2.22468433983398 -2.09876140494049
 6  4.51385217861786  5.08085960316032 -1.27336000790079
 6  6.74724227562756  3.19190561196120 -2.79246391449145
 1 -4.27098504920492  2.22625767066707  0.11852139413941
 1 -5.09653808290829 -0.59361435253525  1.02356360466047
 1 -4.66791691089109  0.96824105320532  2.11636377087709
 1 -2.68281569196920 -1.42407926542654 -0.26469886118612
 1 -3.44724041734173  0.56942001820182 -1.43967116441644
 1  0.30218680298030  0.24431440494049  3.59113444564456
 1  1.38727717171717 -0.48825870987099  2.19821814221422
 1 -0.71929242174217 -2.87099506280628 -0.10019020062006
 1 -3.23370552255226  1.28490507580758  3.76585275287529
 1 -1.41800666006601  1.47973660116012  3.92982270687069
 1 -2.25376817611761  2.81637027282728  2.70036219021902
 1 -6.45293918901890  3.03554250635063  1.19305742454245
 1 -7.30429313761376  1.42040836923692  1.85396781938194
 1 -8.28029652095210  2.18592076217622  0.58744774197420
 1  1.17629981128113  2.00646325432543  1.53811381898190
 1  0.46755079517952  2.37262535033503  3.09022937743774
 1  1.53734935323532  0.36185257545755 -0.29609183528353
 1  2.02391064966497 -4.79806532973297 -1.61569963216322
 1  0.36382446284628 -4.40565047844785 -1.24081685138514
 1 -7.72700802580258  1.10763339733973 -3.34155506750675
 1  1.38332127222722 -4.51197550185019  1.34431411901190
 1  2.80370141304130 -5.04857133613361  0.45715965436544
 1  3.97133157695770 -4.18269579807981 -2.38836788938894
 1  5.11510363186319 -3.08454733553355 -1.33383830533053
 1  4.61841893819382 -2.37826988258826 -2.74037435973597
 1  5.08153096019602 -0.16727083588359 -1.65933262146215
 1 -9.30536005820582  0.57628852605260 -0.61966265246525
 1 -10.04774293939394  0.81230560896090 -2.18092783448345
 1  3.64116054745475  3.07260982958296  3.77561574377438
 1  6.12053705930593  1.20934514101410 -2.36948445164516
 1  4.41953296349635  5.58710180218022 -2.27291434643464
 1  3.87052505660566  5.71456852675268 -0.41305438863886
 1  5.62040381188119  5.19712616721672 -1.05483723182318
 1  1.64589212771277 -8.17533877637764  1.49496917001700
 1  7.60200148194819  2.96058336463646 -3.28979774197420
 1  6.39174061836184  4.21254882618262 -2.99784267336734

