%nproc=4
%Mem=2GB
# td=(NStates=1) B3LYP/SVP 

TD

0 1
 8 -5.50208557035704  0.17834194919492 -3.33640647344735
 8  2.80582740884088  3.11705742914291  3.46939320372037
 8  3.20471120892089  0.91157616671667  3.66424838603860
 8  1.61117525342534 -7.06828273267327  1.73645405520552
 8  1.04752150155016 -7.30634153815382 -0.52736666786679
 8  2.12020547984798  4.07235020202020 -0.01654338993899
 7 -2.37830843354335 -0.88651365796580  0.53577010411041
 7 -4.57024092799280  0.60673492209221 -1.27349928202820
 7  1.84977470457046 -0.74076605760576 -0.36787822592259
 7  2.71987325772577  1.86474492459246 -0.46454392939294
 6 -4.90274252055206  1.22776295569557 -0.03792333583358
 6 -4.53047765316532  0.30551696939694  1.18510057075708
 6 -3.00631408760876  0.09495437783778  1.25270061016102
 6 -2.02990803510351  0.70327247424742  2.06872767096710
 6 -0.74932882038204  0.17093853535354  1.72045080728073
 6 -0.98751312631263 -0.84233934303430  0.79682639093909
 6 -6.46115221262126  1.34148590449045 -0.15139355315532
 6  0.43228671197120  0.29903782688269  2.45504017281728
 6 -6.71571400310031  0.85195750095009 -1.28461931963196
 6 -0.22898864086409 -1.86555185628563  0.03475065076508
 6  1.12507541874187 -1.85359787238724 -0.32351114431443
 6 -5.53165122322232  0.50674036723672 -2.15037447824782
 6  1.86547241714171 -2.98716229222922 -0.94024934153415
 6 -2.28371511271127  1.81034276627663  2.99645828582858
 6 -7.17196918911891  2.13093862986299  0.96477709160916
 6  3.14215974427443 -2.48391041534153 -1.36427758485849
 6  1.12604937753775  1.66843998619862  2.54372959135914
 6  3.10684722572257 -0.99878931833183 -1.00294392539254
 6  1.40379591749175 -4.42495687528753 -1.01210968486849
 6 -7.98527524842484  0.85925048944894 -2.12471719371937
 6  1.66430812091209 -5.06094233663366  0.44090041654165
 6  4.20804852125212 -3.10960222602260 -2.01988398579858
 6  3.98864780698070  0.00881254305431 -1.40964115921592
 6  2.42507512291229  1.75398957325733  3.29595950105010
 6  3.80286481238124  1.35985524182418 -1.12318808950895
 6 -9.24182235523552  0.95834367816782 -1.51722048464846
 6  1.42985029342934 -6.54507323682368  0.46419721242124
 6  4.66911097599760  2.39559161416142 -1.57140086658666
 6  4.17338297279728  3.63556771697170 -1.20299987128713
 6  2.81291004700470  3.27232893429343 -0.52250079707971
 6  6.09106711111111  2.23068493989399 -2.11887341614161
 6  4.62187298069807  5.00690220742074 -1.34531720362036
 6  6.89723727512751  3.15452187358736 -2.57927259535954
 1 -4.50614856555655  2.26511155605561  0.12236177817782
 1 -5.22679110821082 -0.45318030913091  1.08806005430543
 1 -4.52678279747975  0.80199442854285  2.24938707320732
 1 -2.99506691709171 -1.34992184968497 -0.16921931323132
 1 -3.65988168146815  0.77843091929193 -1.76029322662266
 1  0.27005358965897 -0.10165019151915  3.45963129532953
 1  1.25590403440344 -0.27895777977798  2.02868118851885
 1 -0.75661615411541 -2.83967193049305  0.10581039943994
 1 -3.31187333933393  2.08823540884088  3.33663983158316
 1 -1.70014487388739  1.55674430193019  3.88058778337834
 1 -1.96149894919492  2.81249988578858  2.75146730073007
 1 -6.65322921802180  3.15823477557756  1.14895301410141
 1 -7.41586429472947  1.48585491389139  1.77148957155716
 1 -8.28661715301530  2.50287245734573  0.48922791999200
 1  1.31040322162216  2.18077068506851  1.70257026462646
 1  0.57299133923392  2.28822691049105  3.17683803830383
 1  1.66500211851185  0.13264965516552  0.00602837673767
 1  1.85734399299930 -4.99105462866287 -1.54215227742774
 1  0.45415349574958 -4.71850176357636 -1.18728149784978
 1 -8.03707903290329  0.88505113911391 -3.16175708770877
 1  1.14187712781278 -4.59113341764176  1.24423411101110
 1  2.73931497439744 -4.99979645864586  0.60180411881188
 1  3.90893533733373 -4.19300682918292 -2.10429948254825
 1  5.16897901940194 -2.85978485928593 -1.43684860636064
 1  4.48357545384538 -2.82724478007801 -3.13760408270827
 1  5.05392819991999 -0.37779188798880 -1.76226291449145
 1 -9.54280380258026  0.84851574877488 -0.41184187038704
 1 -10.07161532663266  0.93044742314231 -2.19614935663566
 1  3.70005643704370  3.14601717031703  4.08807698989899
 1  6.18462346794679  1.11026523302330 -1.94578208140814
 1  4.80965197539754  5.30626371837184 -2.36126318131813
 1  3.77247525162516  5.68899596949695 -0.84955803900390
 1  5.58909068056806  4.93274972957296 -0.61358310641064
 1  1.30267780628063 -8.01399264176417  1.72399207230723
 1  8.05455673747375  2.94193149944994 -2.83398216041604
 1  6.75296674097410  4.31499907120712 -2.71392428152815

