%nproc=4
%Mem=2GB
# td=(NStates=1) B3LYP/SVP 

TD

0 1
 8 -5.18063342514251  0.31163527852785 -3.30103293609361
 8  2.95841266736674  3.02694841824182  3.08089435383538
 8  3.26167690549055  0.77377238633863  3.16013797499750
 8  1.39043317921792 -7.12675858025803  1.61691210101010
 8  0.26609335873587 -6.93413431743174 -0.31082501370137
 8  1.89049250855086  4.12772573957396 -0.25103683928393
 7 -2.38799940264026 -0.96053105970597  0.64868139523952
 7 -4.39516342024202  0.85801004960496 -1.19613154525453
 7  1.86984671177118 -0.66167814881488 -0.46037747584758
 7  2.64597586798680  1.87779622972297 -0.60936841184118
 6 -4.88448069436944  1.28474865426543  0.03033348984898
 6 -4.51509611501150  0.27017343504350  1.24959702040204
 6 -2.97356081228123  0.04991987438744  1.34288962906291
 6 -2.01762680698070  0.72814496149615  2.13261405960596
 6 -0.70260414791479  0.03596503800380  1.80940970317032
 6 -1.00731510651065 -0.98893400250025  0.94167087538754
 6 -6.36579267666767  1.31105286118612 -0.13262167596760
 6  0.62195567886789  0.33082100520052  2.55564023282328
 6 -6.60880331203120  0.81789409460946 -1.43071392909291
 6 -0.15245098709871 -1.93999930103010  0.18518569426943
 6  1.08854176537654 -1.78159067166717 -0.32361115431543
 6 -5.34349240734073  0.62311200440044 -2.13398283908391
 6  1.87510338023802 -2.94289786578658 -0.93167848444844
 6 -2.23538027922792  1.83966569856986  3.23625226522652
 6 -7.33739573177318  1.62102763876388  0.96757737163716
 6  2.98008353665367 -2.39461148544854 -1.35880703780378
 6  1.07466423902390  1.75268841104110  2.43765898429843
 6  3.06750329132913 -0.96170560996100 -1.02330596159616
 6  1.45829136703670 -4.33845822542254 -0.89246772067207
 6 -7.86504322522252  0.52775734013401 -2.23533825582558
 6  1.55580727082708 -5.09272551495150  0.48593491999200
 6  4.16582429882988 -3.02677394319432 -2.08398039543954
 6  4.02246118831883  0.00921258305831 -1.44090428552855
 6  2.50679329472947  1.78833300760076  2.89847975307531
 6  3.78631315721572  1.39624888118812 -1.10668643934393
 6 -9.10570874387439  0.42943078687869 -1.60725948854885
 6  0.98277558595860 -6.42434116361636  0.50836162886289
 6  4.82818688358836  2.51851390639064 -1.42654638113811
 6  4.14121975647565  3.75781994219422 -1.07439701100110
 6  2.88067682368237  3.30933263466347 -0.54823337033703
 6  6.22369037343734  2.27642951435144 -1.80244177297730
 6  4.67481827522752  5.16760827802780 -1.07740041194119
 6  7.03129068046805  3.12633905530553 -2.44805947404740
 1 -4.27803575427543  2.17286233113311  0.13703324532453
 1 -4.92004043314332 -0.72189718081808  0.97088833713371
 1 -4.92454257345735  0.73628785788579  2.19366150065006
 1 -2.74941235163516 -1.40323718121812 -0.12029442074207
 1 -3.37824351765177  1.02795587178718 -1.46861405870587
 1  0.70858744304430 -0.05860588708871  3.52510784298430
 1  1.24139258325833 -0.28609849384938  1.87876619701970
 1 -0.81666215871587 -2.86799476277628  0.16042586098610
 1 -3.21477362936294  1.83751033633363  3.51623779137914
 1 -1.76478133753375  1.57439606710671  4.19834955955596
 1 -1.78314111341134  2.77065570137014  2.68897105110511
 1 -6.97681157625763  2.56467541964196  1.52646076487649
 1 -7.60176288458846  0.79190551895190  1.67992041464146
 1 -8.40750924222422  2.10508267836784  0.51835083228323
 1  0.86834901620162  2.33118572657266  1.44812482008201
 1  0.57011105120512  2.30528861666167  3.37706806130613
 1  1.66395201350135  0.33364975517552 -0.22059428552855
 1  2.02104036263626 -4.98857438063806 -1.48700676287629
 1  0.45574365476548 -4.41229114251425 -1.18139090879088
 1 -7.71322664766477  0.51285391939194 -3.33653456545655
 1  0.83046598669867 -4.43132743704370  1.25695538313831
 1  2.44212525542554 -5.00357683668367  1.01784572297230
 1  3.96205064886489 -4.07307483598360 -2.42312136473647
 1  5.25039716121612 -2.79394827562756 -1.61455637713771
 1  4.17310440674067 -2.50387244284428 -3.02214253655366
 1  4.96068887598760 -0.25862997179718 -1.94304099229923
 1 -9.22487200940094  0.46155705290529 -0.46711739793979
 1 -10.04593275837584  0.36373075147515 -2.00642038373837
 1  3.88924535593559  2.95422799139914  3.37467564976498
 1  6.50422542814281  1.24101830833083 -1.72311981518152
 1  4.70127113731373  5.40220331233123 -2.00335739073907
 1  3.86946495059506  5.66692376227623 -0.38685176837684
 1  5.59932170367037  5.27558401300130 -0.57619936803680
 1  0.99709724822482 -7.93181442394239  1.61438111121112
 1  8.16763804560456  2.96814412071207 -2.61459022122212
 1  6.77515896019602  4.14371194249425 -2.83519640874087

