%nproc=4
%Mem=2GB
# td=(NStates=1) B3LYP/SVP 

TD

0 1
 8 -5.40364572637264  0.26591070607061 -3.33256608940894
 8  2.96707353345335  2.94688041144114  3.46377264166417
 8  3.15502624042404  0.67585259435944  3.19997195839584
 8  1.56203033893389 -7.12563846824682  1.56509691949195
 8  0.98718546794679 -7.17415831983198 -0.60647457865787
 8  1.89498295759576  3.95438840584058 -0.12918465406541
 7 -2.37717832053205 -0.83024803140314  0.51204773187319
 7 -4.40774467836784  0.79684393299330 -1.30570250235023
 7  1.86179590669067 -0.62863484448445 -0.37220865896590
 7  2.63340461086109  1.71703015311531 -0.54127160216022
 6 -4.87869011531153  1.29993017241724 -0.04256379987999
 6 -4.48043264866487  0.41459787748775  1.16391845254525
 6 -3.00328378457846  0.11353623602360  1.27175251535154
 6 -2.02076712101210  0.77367951495150  2.07384818301830
 6 -0.75707959545955  0.12129357085709  1.76399516171617
 6 -1.08664303930393 -0.84354946404640  0.82142885118512
 6 -6.33939003640364  1.34644640054005 -0.16276469026903
 6  0.50206368966897  0.31168909200920  2.60181485028503
 6 -6.74404683638364  0.97421972717272 -1.45880673837384
 6 -0.18895463746375 -1.88608390949095  0.23099027472747
 6  1.10283319451945 -1.76253876647665 -0.29869866306631
 6 -5.46375443354335  0.61819151235124 -2.20279972077208
 6  1.90818668856886 -2.95334891089109 -0.75647096369637
 6 -2.18635537673767  1.80344207620762  3.20570921092109
 6 -7.17695968816882  2.04916045204520  0.89591020492049
 6  3.08272380068007 -2.35598762306231 -1.20039119621962
 6  1.10256702930293  1.74594773697370  2.52292751115112
 6  3.06522306330633 -1.00923036243624 -1.04268789978998
 6  1.49162470037004 -4.40524490409041 -0.77385585948595
 6 -7.96165288618862  0.81053561796180 -2.10579530153015
 6  1.72129381948195 -5.04502074447445  0.66750307680768
 6  4.28072578897890 -2.96863812961296 -1.85412741014101
 6  3.99273821602160  0.02521418321832 -1.29190938603860
 6  2.43308592399240  1.70673484778478  3.03550345544554
 6  3.75185971187119  1.32512176847685 -1.16586235693569
 6 -9.24983315631563  0.67514535833583 -1.49971873447345
 6  1.38023533193319 -6.58576730623062  0.38371916461646
 6  4.63399746464646  2.48116017101710 -1.52107583408341
 6  4.11632726722672  3.54601876207621 -1.08238781008101
 6  2.70826958295830  3.14705640704070 -0.58230677767777
 6  6.02506051045104  2.27336920832083 -1.93559508830883
 6  4.53100389378938  5.08240975817582 -1.30873354525453
 6  6.86032358375838  3.07565398679868 -2.69600426852685
 1 -4.34250220092009  2.45446049094909  0.04134367636764
 1 -5.07881631073107 -0.50506549764976  1.00264151245125
 1 -4.78947906710671  0.79884411351135  2.13562569706971
 1 -2.73929133953395 -1.30424728222822 -0.34826721802180
 1 -3.49130482378238  0.87778085428543 -1.73976117341734
 1  0.38691527582758 -0.24430445694569  3.34590992319232
 1  1.40760920492049 -0.37525740974097  2.36737505790579
 1 -0.55767626012601 -2.85248321162116  0.00311012941294
 1 -3.19466161816182  2.00352693799380  3.45171133873387
 1 -1.79868472787279  1.33494212171217  4.16047577217722
 1 -1.72226502580258  2.74808344414441  2.95185733973397
 1 -6.42531642674267  2.80352930503050  1.29508762756276
 1 -7.53817652595259  1.43249957835784  1.80998342094209
 1 -8.03258174947495  2.49855202530253  0.46237523472347
 1  1.00870305160516  2.17849045704570  1.38341834943494
 1  0.21850589068907  2.36724481228123  2.97856821132113
 1  1.56642226052605  0.25915230543054 -0.24358658475848
 1  1.83866212481248 -4.91930745394539 -1.66710477267727
 1  0.35793387378738 -4.42750266366637 -0.93650642034203
 1 -7.88988431343134  0.97599023302330 -3.16577748974897
 1  1.01189412951295 -4.59994429872987  1.45538522612261
 1  2.75824686758676 -4.86296277527753  1.06356029442944
 1  4.18533297709771 -3.91212874137414 -2.11329038163816
 1  5.18494061556156 -2.85126400720072 -1.14639956145615
 1  4.23831092739274 -2.46152820842084 -2.71285160746075
 1  5.01188399549955 -0.32110621942194 -1.85620230843084
 1 -9.31909143134314  0.49471036823682 -0.30432111831183
 1 -10.26711487658766  0.62333671207121 -2.00805054675468
 1  3.85958238963896  2.87297986658666  3.46354453665367
 1  6.68516352195219  1.21551575807581 -1.57449495269527
 1  4.54661567176718  5.26522961496150 -2.41214826982698
 1  4.00313831793179  5.68473554345435 -0.49356243944394
 1  5.67100887238724  5.26232268686869 -1.14322607070707
 1  1.06898443694369 -8.09744098659866  1.52565223832383
 1  7.89485076687669  2.66293359965997 -2.95907466966697
 1  6.55632707700770  4.00841841314131 -3.09944283338334

