%nproc=4
%Mem=2GB
# td=(NStates=1) B3LYP/SVP 

TD

0 1
 8 -5.32531789358936  0.28927304230423 -3.38238107090709
 8  2.73670049614961  3.09035475887589  3.26856312071207
 8  3.28535927372737  0.92695770487049  3.05946790799080
 8  1.72610674657466 -7.26099200360036  1.45681609140914
 8  0.35187193659366 -6.96435733973397 -0.37721165236524
 8  1.83621708100810  4.05317828482848 -0.23655539113911
 7 -2.39449005170517 -1.11739674627463  0.67868439553955
 7 -4.35836974087409  0.52203645224522 -1.27410934303430
 7  1.89127885498550 -0.66446842784278 -0.40762220032003
 7  2.69560083048305  1.92650110021002 -0.47852532753275
 6 -4.79385163146315  1.22328250765076 -0.07194673817382
 6 -4.42230683608361  0.22499891759176  1.24258631933193
 6 -3.03307676387639 -0.03567868546855  1.39933527362736
 6 -2.03792883718372  0.64454660166017  2.13931472967297
 6 -0.82068595609561  0.10185162666267  1.76458522072207
 6 -1.03316769176918 -0.92829793889389  0.94472118041804
 6 -6.26645274267427  1.33871562746275 -0.21356977077708
 6  0.52469595289529  0.40747867096710  2.41412608140814
 6 -6.60745317701770  1.02199450465047 -1.49431028872887
 6 -0.22419816181618 -1.95617091819182  0.29028620432043
 6  1.06175908710871 -1.78862137473747 -0.36572536573657
 6 -5.35755381348135  0.54977467066707 -2.19662910371037
 6  1.89382525242524 -2.91809538553855 -0.84974029062906
 6 -2.24352109330933  1.66719845184518  3.15767440744074
 6 -7.06572856505651  1.89750528652865  0.94590520442044
 6  3.07983351165117 -2.35139716401640 -1.31147230433043
 6  0.99178595119512  1.81974511671167  2.38747396579658
 6  3.03934047504750 -0.92743218261826 -0.89354298529853
 6  1.44767030493049 -4.30483486308631 -0.86155462936294
 6 -7.95359208010801  0.95068963336334 -2.07916263826383
 6  1.74348603870387 -5.05956219861986  0.42738906540654
 6  4.24907262366237 -3.17219848564856 -1.80057205460546
 6  4.13848279047905  0.00193185498550 -1.11429162426243
 6  2.45631824722472  1.83730790509051  2.94739464456446
 6  3.77906243214321  1.38380763706371 -0.86751252195219
 6 -9.15777395039504  0.91173901770177 -1.43013177577758
 6  1.22625993439344 -6.55154388388839  0.37008780148015
 6  4.70706477137714  2.40680273527353 -1.47433115961596
 6  4.15528116261626  3.61082524272427 -1.11538110941094
 6  2.77308606460646  3.29085078647865 -0.69308785578558
 6  6.01138914331433  2.18000987238724 -2.05120664946495
 6  4.48140893429343  5.02927444464446 -1.21681435333533
 6  6.92877042844284  3.19400582198220 -2.44668933703370
 1 -4.22894084478448  2.14343938883888 -0.04859531753175
 1 -4.93479190829083 -0.72747773887389  0.93979522782278
 1 -4.94893501270127  0.77166139523952  2.17764989948995
 1 -2.67599500990099 -1.63077993549355 -0.15979837113711
 1 -3.36904259755976  0.73254633083308 -1.44733193049305
 1  0.57245382968297 -0.10015004150415  3.56738207040704
 1  1.37535597959796 -0.09309919391939  1.85364368476848
 1 -0.67282777527753 -2.97424538783878  0.20847066546655
 1 -3.27984013601360  1.71340792609261  3.66398256585659
 1 -1.38645350475047  1.33923255075508  3.88968869346935
 1 -2.01035383468347  2.81388002380238  2.70075222922292
 1 -6.42955685078508  2.50212916501650  1.57754587338734
 1 -7.69789249754975  1.12313864226423  1.50643306590659
 1 -8.01587007830783  2.62048421852185  0.67056605380538
 1  1.05014719601960  2.07309991799180  1.25361536913691
 1  0.53213725382538  2.77539562736274  2.90467082158216
 1  1.44668028632863  0.14724111431143 -0.04756698279828
 1  1.82781103970397 -4.80607613081308 -1.85274333653365
 1  0.28355643604360 -4.31827174057406 -1.11465423512351
 1 -8.01763708870887  0.86094872887289 -3.09963087508751
 1  1.23766670677068 -4.53517782208221  1.29649933753375
 1  2.83217426032603 -4.94474095309531  0.86722066046605
 1  3.96962140594059 -4.30575810431043 -1.90333938653865
 1  5.23370549204921 -2.98791767256726 -1.23662858435844
 1  4.58730582688269 -2.77189924552455 -2.71323164546455
 1  5.11246405350535 -0.33245735453545 -1.62509919811981
 1 -9.27020654285429  0.90955185238524 -0.43326401260126
 1 -10.27909607470747  0.82815719411941 -2.00580032173217
 1  3.86471290269027  3.03186575517552  3.41178936113611
 1  6.28933393899390  1.12789699619962 -2.00203770697070
 1  4.69161017121712  5.19914300630063 -2.49458651365137
 1  3.75453345744574  5.94026109600960 -0.97262034523452
 1  5.45099687118712  5.19233568816882 -0.78736048414842
 1  1.26735427392739 -8.16893813631363  1.28069774287429
 1  8.06549783158316  3.07574488078808 -2.80304906710671
 1  6.71070251455146  4.24483205450545 -2.38571146024602

