%nproc=4
%Mem=2GB
# td=(NStates=1) B3LYP/SVP 

TD

0 1
 8 -5.41983734553455  0.19635375037504 -3.31972480528053
 8  3.02292911901190  3.09673539693969  3.05730199459946
 8  3.33704444224422  0.86642165126513  3.15134709590959
 8  1.19182331823182 -7.02305821022102  1.84964537433743
 8  0.71273802320232 -7.11896280028003 -0.48099203040304
 8  1.89570302960296  3.93901686868687 -0.06221795739574
 7 -2.38796939963996 -0.90347535413541  0.60294682178218
 7 -4.44822872677268  0.66545079367937 -1.27517945004500
 7  1.88019774687469 -0.68835081608161 -0.41519295739574
 7  2.68950022042204  1.86644509460946 -0.34953242824282
 6 -4.86468871517152  1.18128830823082  0.03736419291929
 6 -4.46975158055806  0.23739015671567  1.23470553125313
 6 -2.96289974617462  0.08054293669367  1.31685702580258
 6 -1.93916896119612  0.68696084308431  2.01690248844885
 6 -0.70040392789279  0.11000244174417  1.65266402860286
 6 -0.98631300630063 -0.91914702380238  0.81983869216922
 6 -6.40747684508451  1.31010276617662 -0.19574798859886
 6  0.56717020032003  0.29161708480848  2.45033970277028
 6 -6.73383581528153  0.90910321552155 -1.44018487618762
 6 -0.19672541454145 -1.79076437753775  0.03678085378538
 6  1.17246015721572 -1.74681719431943 -0.40397919111911
 6 -5.52432049014901  0.54494418761876 -2.18566800760076
 6  1.87996386628663 -2.87510108610861 -0.94449976657666
 6 -2.08867560876088  1.71113284528453  3.13231187118712
 6 -7.21853384558456  1.85085062106211  0.86099671357136
 6  3.11390691899190 -2.46814883918392 -1.25540669776978
 6  1.24815158775878  1.72093523572357  2.41474669306931
 6  3.12416895789579 -0.96227566696670 -1.05217884888489
 6  1.45162069997000 -4.39135351495150 -1.01916038993899
 6 -8.05025174607461  0.68859342374237 -2.03265798779878
 6  1.53875556565657 -4.99552579497950  0.42806913341334
 6  4.28385610201020 -3.10778204400440 -1.91970396779678
 6  4.05273421562156 -0.01809014721472 -1.25802599769977
 6  2.64237685308531  1.79545371967197  2.94033393849385
 6  3.78800332623262  1.31084034033403 -0.93223899459946
 6 -9.31475964896490  0.81501934573457 -1.61720048264826
 6  1.22164947334733 -6.49451818131813  0.51376216891689
 6  4.74984904980498  2.52645470047005 -1.36697042354235
 6  4.10852648714871  3.66676083628363 -0.93861343264326
 6  2.76026478247825  3.21747344874487 -0.43709225622562
 6  6.12795079947995  2.27271914331433 -1.89383091189119
 6  4.52858365176518  5.10283180038004 -1.06326899879988
 6  6.84861241264126  3.27160358175818 -2.57562223032303
 1 -4.38043599429943  2.17066211111111  0.23274281628163
 1 -5.01438986808681 -0.81288627972797  1.22882413071307
 1 -4.94703482268227  0.72361659075908  2.12684481898190
 1 -2.87730514091409 -1.39812667016702 -0.09639203050305
 1 -3.51871756505651  0.64436751295130 -1.53568076537654
 1  0.52210879517952  0.03997397089709  3.49992532473247
 1  1.34616306030603 -0.35286517051705  1.96013433383338
 1 -0.82234272677268 -2.73953191649165 -0.17902808440844
 1 -3.15813796579658  1.76894347964797  3.27760392799280
 1 -1.52356721612161  1.53352197969797  4.08242796739674
 1 -1.75486828612861  2.66696533233323  2.59224137813781
 1 -6.62996689178918  2.47164611671167  1.65323344214421
 1 -7.62251495979598  1.12521885028503  1.59806222882288
 1 -8.06345483678368  2.33659582968297  0.41742073927393
 1  1.13467564886489  2.11432404040404  1.43969397699770
 1  0.68301234133413  2.34049213701370  3.16436679117912
 1  1.76338195649565  0.36539292949295 -0.21285351145115
 1  2.09611787038704 -4.71531705490549 -1.86834489668967
 1  0.35544362476248 -4.33645355875588 -1.43677644734473
 1 -7.85075040004000  0.60660329432943 -3.14730564256426
 1  0.70172311241124 -4.40002430673067  1.12345203280328
 1  2.53814485738574 -4.85729220822082  1.19212315071507
 1  4.00046449024902 -4.06995452395240 -2.04413346594660
 1  5.13042516401640 -3.01452033283328 -1.34877979947995
 1  4.46909400570057 -2.76273832943294 -2.93662398469847
 1  4.92342514961496 -0.07140124892489 -1.63343003120312
 1 -9.71583110531053  0.91071196839684 -0.45545623182318
 1 -10.05327349244924  0.68962334073407 -2.26304604630463
 1  3.91750818221822  3.24739730833083  3.40823900610061
 1  6.48944394999500  1.34869907640764 -1.80230773397340
 1  4.51834284448445  5.39194228622862 -2.20491754675468
 1  3.83670167426743  5.63426049594960 -0.73533661686169
 1  5.53981575307531  5.27640409500950 -0.69861160926093
 1  0.75287282578258 -8.01729297179718  1.84203387648765
 1  7.87238852065207  2.75487279357936 -3.20097886008601
 1  6.40785222952295  4.10931850315032 -2.84216710581058

