%nproc=4
%Mem=2GB
# td=(NStates=1) B3LYP/SVP 

TD

0 1
 8 -5.30238560036004  0.23866798179818 -3.30854368716872
 8  2.91092791889189  3.15552127552755  3.13416968136814
 8  3.32158289608961  0.93123813291329  3.01990395159516
 8  1.69311344724472 -7.22310821522152  1.43243365316532
 8  0.12958970837084 -6.74523542754275 -0.17691162236224
 8  2.01391485078508  4.06876984398440 -0.05548728432843
 7 -2.36428703140314 -0.93757876447645  0.58054458155816
 7 -4.36616051995200  0.71482573117312 -1.28328026012601
 7  1.86668639573957 -0.71278325932593 -0.42339377747775
 7  2.63569483988399  1.82539098919892 -0.53808128312831
 6 -4.84104635093509  1.16237641704170  0.05659611611161
 6 -4.51295590099010  0.14893131083108  1.21238329902990
 6 -2.97220067626763 -0.10523564116412  1.33798913901390
 6 -1.99479452375237  0.55506765376538  2.13102390059006
 6 -0.76520040754075  0.06247768926893  1.77019578177818
 6 -1.01952632763276 -0.92517762686269  0.76786349464947
 6 -6.36775287268727  1.28289004490449 -0.19054746854685
 6  0.63985746904690  0.31978990209021  2.33863853265327
 6 -6.67712014371437  0.92777508270827 -1.34379523722372
 6 -0.25557129912991 -1.90053535463546  0.09209638533853
 6  1.04048695989599 -1.80857336993699 -0.33251204440444
 6 -5.39610766886689  0.54486417961796 -2.10129957075708
 6  1.86501237113711 -2.92037561356136 -0.87294261086109
 6 -2.12190893209321  1.60147187918792  3.20832947294730
 6 -7.28607059925993  1.81886742274227  0.93016363026303
 6  3.05941146944694 -2.40446247054706 -1.32212336943694
 6  1.06148292089209  1.72210535273527  2.35857107550755
 6  3.03314985598560 -1.02350178957896 -1.06922055305531
 6  1.44127966586659 -4.31769614921492 -0.78517699159916
 6 -7.88067478837884  0.79121368576858 -2.15173989598960
 6  1.67275896599660 -5.02946918931893  0.56743306980698
 6  4.26547426382638 -3.13466473227323 -1.84201619901990
 6  4.04953389558956  0.00197185898590 -1.25915611071107
 6  2.46818943434343  1.81347552185219  2.93871377647765
 6  3.86561108700870  1.38964822112211 -0.96745251595160
 6 -9.12804097709771  0.86040388418842 -1.69207797039704
 6  1.08328563696370 -6.40603933343334  0.55717651035104
 6  4.78052211711171  2.55536759175918 -1.33711743824382
 6  4.17912354685469  3.67644180438044 -1.04264383568357
 6  2.75830458645865  3.24824652605261 -0.45202374937494
 6  6.17189519391939  2.27654952635264 -1.88687021582158
 6  4.54593538693869  5.10861237843784 -1.14304697659766
 6  6.86501405280528  3.21441786318632 -2.54896956505651
 1 -4.34575252595260  2.36968201310131  0.11682122412241
 1 -5.02690111921192 -0.68576356745675  0.89160040834083
 1 -5.04331445064506  0.25109933903390  2.33787592209221
 1 -2.88834624502450 -1.46012286978698 -0.13888627992799
 1 -3.64077977127713  0.61880495669567 -1.73066026332633
 1  0.58987557185719 -0.24206423292329  3.31978731093109
 1  1.39112755675568 -0.30917080108011  1.81390971137114
 1 -0.74092458495850 -2.64987295059506 -0.16363654525453
 1 -3.14285643764376  1.59506609190919  3.66702286988699
 1 -1.53964882428243  1.29975860336034  4.17848757335734
 1 -1.86911971127113  2.78735737153715  2.84228638263826
 1 -6.50936483158316  2.62599155125513  1.53479159795980
 1 -7.54588729702970  0.92609893829383  1.56392881548155
 1 -8.07777626892689  2.15932810291029  0.47011600880088
 1  0.91187336863686  2.31026363436344  1.38178818641864
 1  0.28218225832583  2.34552264006401  2.95706606110611
 1  1.61469708800880  0.18833522372237 -0.27145937203720
 1  1.76650490909091 -4.87647317051705 -1.64723278547855
 1  0.31985006540654 -4.41573148654865 -0.97297006670667
 1 -7.75002032703270  0.65257789178918 -3.21599251125112
 1  1.18062100220022 -4.48459276357636  1.29733942154215
 1  2.68836987988799 -4.87651413041304  0.70507444584458
 1  4.15870031383138 -4.22930045854585 -1.83775282788279
 1  5.23407552905291 -2.93772265306531 -1.32103702520252
 1  4.40509760606061 -2.93009506510651 -2.98149847214721
 1  4.89928273537354 -0.32468657745775 -1.85941262946295
 1 -9.31889141134113  0.86357725492549 -0.60972165836584
 1 -10.19639780488049  0.74393877227723 -2.18046778847885
 1  3.79916634803480  3.12737530613061  3.43094127632763
 1  6.52324733033303  1.22098630513051 -1.86112361556156
 1  4.23052406260626  5.35615870787079 -2.30638769376938
 1  3.79224722882288  5.67784485438544 -0.54622770597060
 1  5.51722349384938  5.33442989758976 -0.86722847094709
 1  1.29300683918392 -8.10774201670167  1.40558023112311
 1  7.64068535033503  2.96285359165917 -3.34209297149715
 1  6.66467791209121  4.31914948624863 -2.87727061616162

