%nproc=4
%Mem=2GB
# td=(NStates=1) B3LYP/SVP 

TD

0 1
 8 -5.21014637643764  0.26532064706471 -3.33166599939994
 8  2.72414924102410  3.17966368976898  3.29960622502250
 8  3.15172591039104  0.97197220632063  3.46459842104210
 8  1.30664480038004 -7.10755666006601  1.64888529832983
 8  0.71084783418342 -7.09125002900290 -0.59965389658966
 8  1.93642710201020  3.81580454745475 -0.04362609820982
 7 -2.39654025672567 -0.96338134473447  0.58360488758876
 7 -4.37901180508051  0.81897614621462 -1.30230216231623
 7  1.83148287538754 -0.66434841584158 -0.45190662876288
 7  2.80900217061706  1.69147759785979 -0.46074354935494
 6 -4.73296554285429  1.26465664506451  0.04038449494949
 6 -4.40497510291029  0.30684710241024  1.18914097479748
 6 -2.98797225342534  0.02043692609261  1.32027736783678
 6 -2.03398844314431  0.58535068206821  2.20486128432843
 6 -0.74774866236624 -0.00125868436844  1.76804556675668
 6 -0.96464083908391 -0.92352746184618  0.77464417271727
 6 -6.26695279267927  1.48442019791979 -0.21286970077008
 6  0.64333781708171  0.23023094619462  2.48567323612361
 6 -6.59908233993399  1.01346365156516 -1.37560841854185
 6 -0.16901264326433 -1.87165246634663  0.11381855755576
 6  1.15186809800980 -1.84178669126913 -0.32800159335934
 6 -5.38294635273527  0.69688938213821 -2.18942838363836
 6  1.95214108400840 -2.95462903890389 -0.86186150275028
 6 -2.29679642084208  1.59455118711871  3.40792943294329
 6 -7.28022001420142  2.10158569456946  0.83393400730073
 6  3.17138266656666 -2.42885490979098 -1.18647980508051
 6  1.02234900750075  1.79632277447745  2.58025324372437
 6  3.07595413641364 -1.03741318071807 -0.90687431843184
 6  1.47701323922392 -4.35976035563556 -0.97945641954195
 6 -7.95665238613861  0.75730029442944 -2.06845156715672
 6  1.62325401550155 -5.04222046444644  0.49262558905891
 6  4.30676839323932 -3.04926619241924 -1.81100309770977
 6  4.13753269546955 -0.07185552375238 -1.17392758785879
 6  2.40132274767477  1.86087026132613  3.19265917101710
 6  3.90082460836084  1.33802305860586 -1.02127789848985
 6 -9.23294146714671  0.69562740654065 -1.58920768336834
 6  1.20129743814381 -6.45969469896990  0.34019481218122
 6  4.69872393729373  2.49307136213621 -1.54157788428843
 6  4.02309794429443  3.59090325052505 -1.17509708100810
 6  2.84500325632563  3.15392709410941 -0.46515506250625
 6  5.98361636603660  2.30652252365237 -2.25615714451445
 6  4.35565635903590  5.02020353755376 -1.51896456835684
 6  6.76199375077508  3.25319174057406 -2.84525919401940
 1 -4.31397934863486  2.16490153505351  0.12207174917492
 1 -4.91492992209221 -0.62681767286729  1.01528277657766
 1 -4.93401352055206  0.49353358245825  2.14887702220222
 1 -2.73726113651365 -1.46934379187919 -0.03453584488449
 1 -3.36665235853585  0.57246032223222 -1.39269646694670
 1  0.66942352665267  0.12949292279228  3.58214354655466
 1  1.60794923892389 -0.27992787678768  2.25523384378438
 1 -0.83812430493049 -2.81589955325533 -0.23718389999000
 1 -3.32177432943294  1.90772735803580  3.56698286588659
 1 -1.83932879227923  0.98757738523852  4.36838656325633
 1 -1.84348714801480  2.58540717651765  3.21130328432843
 1 -6.77643153825383  2.78741769386939  1.56791491029103
 1 -7.64242695099510  1.29642597099710  1.49470189278928
 1 -8.01975046634663  2.67995016511651  0.14652364956496
 1  0.93386556785679  2.40064267226723  1.56348635623562
 1  0.34546858695870  2.43790187798780  3.30664101860186
 1  1.76015163346335  0.33487987818782 -0.16956918301830
 1  2.13775203380338 -4.82631815501550 -1.72010007220722
 1  0.53986206660666 -4.44378429182918 -1.63610638033803
 1 -7.89812513751375  0.64356699069907 -3.12918383038304
 1  1.27932087218722 -4.53210751505151  1.36303599119912
 1  2.56603764666467 -5.24910138913891  0.67583152155216
 1  4.44248869266927 -4.16076360486049 -1.82111116371637
 1  5.33799592109211 -2.86644552535253 -1.42000692219222
 1  4.47160425672567 -2.74000605620562 -2.73108343064306
 1  5.00778358545855 -0.26496060486049 -1.62095878407841
 1 -9.50482000420042  0.86999789698970 -0.64590527672767
 1 -10.15539370447045  0.40271464986499 -2.16061580328033
 1  3.71244767616762  3.35440800940094  3.63217139933993
 1  6.37721272687269  1.26512071857186 -2.51861936513651
 1  4.26929793999400  5.12430552255226 -2.56740379537954
 1  3.63800180428043  5.55447251715172 -0.86093917711771
 1  5.27854962646265  5.36337279187919 -1.13726547464747
 1  1.03890142864286 -7.96368761126113  1.51505117821782
 1  7.75207648944895  3.00096740304030 -3.28488725092509
 1  6.57720916521652  4.23585115641564 -2.67630051915191

