%nproc=4
%Mem=2GB
# td=(NStates=1) B3LYP/SVP 

TD

0 1
 8 -5.37019238103810 -0.08369425442544 -3.31758459125913
 8  2.93854068016802  3.08948467186719  3.49400566496650
 8  3.31404214201420  0.84022903200320  3.34944690589059
 8  1.70619475537554 -7.24249015341534  1.31425183498350
 8  0.35965271467147 -6.93371427542754 -0.32692662386239
 8  1.90225368466847  4.08294126112611 -0.04002573817382
 7 -2.44702530523052 -0.85874088068807  0.69260578767877
 7 -4.39355325922592  0.54855910451045 -1.25331726382638
 7  1.89488921602160 -0.63941592259226 -0.45639707780778
 7  2.74236550695070  1.90374882498250 -0.52234970997100
 6 -4.84562680898090  1.33558373777378 -0.08096764026403
 6 -4.38317292269227  0.66794321202120  1.20207226792679
 6 -2.91641509770977  0.25166004840484  1.35168050815082
 6 -1.98989403370337  0.80406255325533  2.13384418261826
 6 -0.65982987048705  0.18003944544454  1.87697645984598
 6 -1.02645702070207 -0.91816692579258  0.92332904120412
 6 -6.38331442884288  1.34246600250025 -0.21857027082708
 6  0.60631411471147  0.36899482258226  2.62577724652465
 6 -6.68184061576158  0.78121042624262 -1.44397525522552
 6 -0.27331307330733 -1.87024232533253  0.19745692139214
 6  1.05250816201620 -1.80792330493049 -0.41699049224922
 6 -5.40360841894189  0.29784947814781 -2.16328576937694
 6  1.83121899179918 -2.91634521052105 -0.89570488708871
 6 -2.11294803600360  1.85956768876888  3.17992663266327
 6 -7.31598359055906  1.93524906090609  0.83532414631463
 6  2.97246277457746 -2.34617664196420 -1.42515367246725
 6  1.12162893549355  1.76323946614661  2.66626184458446
 6  2.99188572957296 -0.99719915931593 -1.09641327232723
 6  1.42982852075208 -4.33379775937594 -0.92342081598160
 6 -8.00720744164416  0.54893945834583 -2.19075379737974
 6  1.68427011711171 -5.04156039843984  0.33353968046805
 6  4.14252196859686 -3.19040030583058 -1.93383538093809
 6  4.01507044924492  0.03355501730173 -1.34876507160716
 6  2.60115273067307  1.77979215351535  3.18375828092809
 6  3.78868339423942  1.43076233253325 -1.02278804950495
 6 -9.32140031303130  0.61906975077508 -1.75413417601760
 6  1.15655296369637 -6.52386111561156  0.37880867356736
 6  4.85021908680868  2.46364841984198 -1.44377810431043
 6  4.14490012451245  3.66421058125813 -1.11059063036304
 6  2.82373112911291  3.31953365476548 -0.50241878887889
 6  6.04744274867487  2.18852072347235 -2.00033156195620
 6  4.62130292369237  5.06733825102510 -1.17413008490849
 6  6.87335488688869  3.01718814021402 -2.61460612871287
 1 -4.36484443514351  2.26090113501350 -0.13086354435444
 1 -4.94520294939494 -0.27821281238124  1.23887513581358
 1 -4.59173929312931  1.36185041414141  2.24605674017402
 1 -2.83277068746875 -1.06832368986899 -0.27376976827683
 1 -3.35539123242324  0.70550362656266 -1.56644384168417
 1  0.41030761506151 -0.09952997949795  3.60614594679468
 1  1.32099054305431 -0.48592847684768  2.39894821522152
 1 -0.90070056255626 -2.68693665696570  0.05495531393139
 1 -3.26922907490749  2.05400198549855  3.35651181878188
 1 -1.54235909530953  1.57990661816182  4.22926265086509
 1 -1.76323912321232  2.86448508430843  2.78254040804080
 1 -6.76623051815182  2.97978693079308  1.37167528632863
 1 -7.52374508280828  1.37892422082208  1.90619304190419
 1 -8.21108960026003  2.42509467956796  0.38362735993599
 1  1.23979616091609  2.14717732573257  1.60168017561756
 1  0.64533857395740  2.38681676947695  3.08370872537254
 1  1.55850146844684  0.51112750295030 -0.15281750785079
 1  1.95569382798280 -4.92435795899590 -1.72790085228523
 1  0.21496957735774 -4.51439135253525 -1.04585735543554
 1 -7.97086241124112  0.42987562156216 -3.30040095209521
 1  1.41272421252125 -4.46742104640464  1.37546723432343
 1  2.78618966186619 -5.22195867486749  0.50089402780278
 1  3.97892233603360 -4.40538806730673 -1.91223027562756
 1  5.08458057955796 -3.00639952075207 -1.54639956145615
 1  4.32524962126213 -3.04214627022702 -3.14979530183018
 1  4.98143095019502 -0.44473858265827 -1.79680636883688
 1 -9.46909643184319  0.48050894809481 -0.65988667486749
 1 -10.41105927102710  0.39780415881588 -2.18176791849185
 1  3.83865029642964  2.84570713931393  3.61792997519752
 1  6.50309531513151  1.19277348384838 -2.15695319851985
 1  4.68017902810281  5.46193928592859 -2.23325038003800
 1  3.71117912201220  5.49765683558356 -0.72157524072407
 1  5.59367113861386  5.22938939353935 -0.87998974707471
 1  1.24954249274927 -8.21274251675167  1.28943861696170
 1  7.74810609240924  2.68569587588759 -2.97124588678868
 1  6.35785723002300  4.25208277957796 -2.87798068716872

