%nproc=4
%Mem=2GB
# td=(NStates=1) B3LYP/SVP 

TD

0 1
 8 -5.33052841464146  0.04036815181518 -3.37962079487949
 8  2.98098492459246  3.03914963836384  3.30330659505951
 8  3.34477521532153  0.78280328942894  3.11536349754976
 8  1.45231936783678 -7.17333323772377  1.49583999379938
 8  0.81310806020602 -7.12810371437144 -0.67405133633363
 8  1.95956941624162  3.94777774477448  0.04917318171817
 7 -2.35218582128213 -0.69587459405941  0.55782230933093
 7 -4.33256716061606  0.57454170277028 -1.30084201630163
 7  1.84431415851585 -0.64909689068907 -0.31946338443844
 7  2.68438970937094  1.80518896899690 -0.48598607360736
 6 -4.73439568586859  1.27182736213621 -0.12540208370837
 6 -4.43872847824782  0.39373579127913  1.20384244494449
 6 -2.96706016221622  0.15619050145015  1.37848318841884
 6 -1.91968701300130  0.75655780278028  2.17594839303930
 6 -0.80150403790379  0.09105054655466  1.89872863506351
 6 -1.00894526952695 -0.87432254135414  0.78862557085709
 6 -6.35474157155716  1.38502025792579 -0.28583699749975
 6  0.54586807010701  0.27094501760176  2.69935460426043
 6 -6.68035046674667  0.82674497969797 -1.52978383608361
 6 -0.33116885888589 -1.81738703980398  0.14955213091309
 6  1.01997490869087 -1.78932144474447 -0.27380617381738
 6 -5.37947600570057  0.38242793599360 -2.19109855065507
 6  1.82101797169717 -2.90040361636164 -0.84630994759476
 6 -2.20791753295330  1.85775750775078  3.24221286128613
 6 -7.16039803200320  2.13091862786279  0.71723233713371
 6  3.07724325262526 -2.42262428672867 -1.26882803990399
 6  1.03869064166417  1.70815395759576  2.85584080248025
 6  3.03834037503750 -1.00849028842884 -0.92616624762476
 6  1.39501503940394 -4.35013939353935 -0.82924139803980
 6 -7.94027074797480  0.60599516391639 -2.07371209320932
 6  1.56052774287429 -5.08957519991999  0.48446477297730
 6  4.27650536693669 -3.04975624142414 -1.78969096649665
 6  3.96591553375338  0.00774243604360 -1.31318151325133
 6  2.57262987838784  1.73106728102810  3.06806671177118
 6  3.78764329022902  1.38975823212321 -1.03699947064706
 6 -9.13104127712771  0.80580842464246 -1.47447621022102
 6  1.23180048844884 -6.49381811131113  0.29841063376338
 6  4.64601866676668  2.50729278427843 -1.47797152365237
 6  4.12544817931793  3.63948810901090 -1.06680625192519
 6  2.74609336533653  3.15509721112111 -0.39154770177018
 6  6.02883088748875  2.29854172557256 -2.02037356615662
 6  4.49863065646565  5.06066758395840 -1.34849752165217
 6  6.68014556595660  3.22230865226523 -2.87473214131413
 1 -4.31182913361336  2.23583862876288  0.22183172517252
 1 -5.16387481658166 -0.38161315241524  1.18764001230123
 1 -4.94300441964197  0.82791702080208  2.00288242274227
 1 -2.81226863726373 -1.23655051255126 -0.24340673197320
 1 -3.38017371067107  0.62177525372537 -1.73678087538754
 1  0.37217380168017 -0.16384641114111  3.70918625082508
 1  1.41644008800880 -0.48824870887089  2.29395771617162
 1 -0.96192668516852 -2.64525248854885 -0.10136031763176
 1 -3.18350050205021  2.08306489178918  3.42117828542854
 1 -1.51094595399540  1.72459108660866  4.10891061566157
 1 -1.80112291159116  2.95088372417242  2.88071022502250
 1 -6.50002389748975  2.74399335143514  1.46259437823782
 1 -7.69683239153915  1.38035436383638  1.21604402700270
 1 -8.05864435573557  2.74641681178118  0.26783578077808
 1  1.17802998429843  2.23094570257026  1.82165217281728
 1  0.57589162926293  2.27769585738574  3.59321967646765
 1  1.42934855315532  0.35965235543554 -0.20048227432743
 1  2.18100635923592 -4.85503102630263 -1.42295035723572
 1  0.25612369276928 -4.54050396379638 -1.14228699839984
 1 -8.09571489648965  0.13792642664266 -3.08157906990699
 1  0.74367730783078 -4.79273357765777  1.23338302590259
 1  2.61165220812081 -4.72806928592859  1.15090902930293
 1  4.29804424822482 -4.23967149564957 -1.34969402200220
 1  5.23109523102310 -2.61227010781078 -1.30624554605461
 1  4.15708280458046 -2.97777983358336 -2.94776509880988
 1  4.75270807790779 -0.46407051585159 -1.86021270947095
 1 -9.49240876307631  1.22714361156116 -0.49469015521552
 1 -10.09227739283928  0.63916829522952 -2.22334207590759
 1  3.97379381078108  2.90703327192719  3.47416559875988
 1  6.56017102270227  1.38439264576458 -1.66193369656966
 1  4.19094010421042  5.43553664566457 -2.39303635863586
 1  3.83085108920892  5.91863893379338 -0.81942502570257
 1  5.54377614911491  5.27420387498750 -1.06483823192319
 1  1.09790732923292 -7.97943918641864  1.39258893199320
 1  7.84424570637064  2.77176448274827 -3.22209097129713
 1  6.19861130543054  4.10572814411441 -3.48247113621362

