%nproc=4
%Mem=2GB
# td=(NStates=1) B3LYP/SVP 

TD

0 1
 8 -5.44124948674868  0.29054316931693 -3.34092692549255
 8  2.98310513661366  3.03715943934393  3.08776504090409
 8  3.21043178097810  0.81601661076108  3.29559152035204
 8  1.88879301520152 -7.26416232063206  1.34365477527753
 8  0.45122187158716 -6.88381928592859 -0.29785371657166
 8  1.89397285658566  3.96580954795480 -0.00086182178218
 7 -2.46023662636264 -0.88105311191119  0.58266479357936
 7 -4.45341924582458  0.61743599219922 -1.28878081018102
 7  1.87548727582758 -0.67767974897490 -0.29994143224322
 7  2.74833610401040  1.85287373747375 -0.40356783178318
 6 -4.82349459575958  1.18339851925193 -0.08954849834984
 6 -4.47970257565757  0.25327174487449  1.17140920162016
 6 -3.04770822702270  0.07766264866487  1.38067340744074
 6 -2.03982902720272  0.64926707370737  2.15981677987799
 6 -0.76946083358336  0.06854829632963  1.80072883508351
 6 -1.05317969296930 -0.89727483658366  0.73683039133913
 6 -6.34990108750875  1.44040579647965 -0.16235464926493
 6  0.51708519181918  0.34445236833683  2.39231390019002
 6 -6.67342977467747  1.01785409060906 -1.49435029272927
 6 -0.23319906190619 -1.87121242234223  0.14185136083608
 6  1.07039995119512 -1.85578809140914 -0.29483827702770
 6 -5.46873493159316  0.60207990119012 -2.17543698449845
 6  1.88530440034003 -2.81981555755576 -0.79788510511051
 6 -2.30871761296130  1.69963169516952  3.09971861186119
 6 -7.21547353955396  1.95336087208721  0.90348096199620
 6  3.10680620892089 -2.39571159545955 -1.10031118821882
 6  1.12776954955496  1.75340848304830  2.43917913631363
 6  3.13495003600360 -0.95771521092109 -0.95281891289129
 6  1.46695223312331 -4.35326970657066 -0.87376585048505
 6 -7.96350307120712  0.97839240364036 -2.14622934493449
 6  1.85558724882488 -5.14529077147715  0.44904123062306
 6  4.30719843624362 -3.22690395619562 -1.67510950835083
 6  4.04590353255326  0.00993265506551 -1.31306150125013
 6  2.60631324672467  1.78594276857686  2.99167907300730
 6  3.81280580648065  1.35183443974397 -1.02282805350535
 6 -9.16205437843784  0.77449529332933 -1.51363012561256
 6  1.30040734913491 -6.50029875937594  0.38618941164116
 6  4.67334139903990  2.43526558155816 -1.50378410491049
 6  3.99823545804580  3.65194935513551 -1.23130270157016
 6  2.73523227922792  3.23191489288929 -0.42277082408241
 6  5.99889789418942  2.13806567796780 -2.06914844364436
 6  4.45235602900290  5.11958347554755 -1.39231190309031
 6  6.86030358175818  3.11891831323132 -2.46564123222322
 1 -4.22762071277128  2.13480852575257  0.10020956295630
 1 -5.13722215131513 -0.79282427352735  1.09629087738774
 1 -4.98560868006801  0.78403263236324  2.05487762226223
 1 -2.73242065246525 -1.56375323282328 -0.15728812011201
 1 -3.51211690499050  0.95980905710571 -1.82454965226523
 1  0.46609319361936  0.27138711221122  3.48043337553755
 1  1.35249369336934 -0.52878276227623  2.27179549995000
 1 -0.51895238773877 -2.68024598789879 -0.03212339393939
 1 -3.29854200620062  1.53345993129313  3.61880804840484
 1 -1.60866572597260  1.52886151365137  4.00347007160716
 1 -1.96327912721272  2.70528916471647  2.94233638763876
 1 -6.69173306840684  2.63943289538954  1.85699381818182
 1 -7.72762547084708  1.16968329672967  1.35001742434243
 1 -8.12652114341434  2.66952912301230  0.46927592479248
 1  0.84842702400240  2.50631323932393  1.49702971057106
 1  0.56066010611061  2.35381346914691  3.05098545304530
 1  1.65160077837784  0.36559294949495 -0.07563979007901
 1  1.99387764636464 -4.93973949714972 -1.66850491269127
 1  0.43573165356536 -4.46276619001900 -1.07885065476548
 1 -7.83958928392839  1.12947558155816 -3.34489540154015
 1  1.34499743984398 -4.66163046734673  1.15098478607861
 1  2.82713375627563 -5.17989446844684  0.79048298669867
 1  4.20408485228523 -4.29387691619162 -1.80110916351635
 1  5.02500462196220 -3.05283416421642 -0.69211413291329
 1  4.81248834513451 -2.82033408900890 -2.65501582388239
 1  5.01899470657066 -0.19888399719972 -1.67409409760976
 1 -9.19982950515052  0.43791468866887 -0.29423010921092
 1 -10.24365253035304  0.78821319971997 -1.91412115381538
 1  3.89066549794979  3.12477504610461  3.31459964216422
 1  6.17385239083908  1.17610181668167 -2.05036253945395
 1  4.61111212141214  5.19269236123612 -2.56034308930893
 1  3.66153415751575  5.70070714061406 -0.92734581778178
 1  5.55943771527153  5.23510996559656 -0.79240098819882
 1  1.43821135963596 -8.06121736423642  1.35926559965997
 1  7.78498978077808  2.75798310461046 -2.94392315451545
 1  6.67720916521652  4.31140871217122 -2.56848973807381

