%nproc=4
%Mem=2GB
# td=(NStates=1) B3LYP/SVP 

TD

0 1
 8 -5.26552191399140  0.41963607860786 -3.44124695749575
 8  2.91640846694669  2.98871459485949  3.37460372477248
 8  3.30759149694970  0.86554156325633  3.21836379757976
 8  1.61981611751175 -7.29927583198320  1.44457486728673
 8  0.25873262266227 -6.81599250325033 -0.28924285548555
 8  1.97808126742674  3.98316128312831  0.06764502890289
 7 -2.39516011871187 -0.83207821442144  0.51740826792679
 7 -4.39800370427043  0.68577282588259 -1.31534346644664
 7  1.89664939203920 -0.75844782578258 -0.34674611271127
 7  2.73281455185519  1.86170462056206 -0.50449792479248
 6 -4.82519476577658  1.25209538893889  0.01689214571457
 6 -4.47130173557356  0.34663108080808  1.23676573727373
 6 -2.99862331853185  0.14701958435844  1.26564190429043
 6 -2.04723976827683  0.72701484848485  2.10259105730573
 6 -0.73753764126413  0.01422286378638  1.86631539373937
 6 -0.99228360336034 -0.97252236133613  0.85673238153815
 6 -6.26598269566957  1.29480123602360 -0.14210262406241
 6  0.55557904120412  0.24080200330033  2.59482415121512
 6 -6.59215164686469  0.88828113331333 -1.48619947764776
 6 -0.18642438443844 -1.95513081418142  0.22672984868487
 6  1.09401231243124 -1.90210272287229 -0.24492328552855
 6 -5.40945900400040  0.61968166136614 -2.23451289208921
 6  1.94085995589559 -2.99420299629963 -0.79744506110611
 6 -2.34704144534453  1.72642437443744  3.25234387438744
 6 -7.25800779297930  1.91310684668467  0.82930354425443
 6  3.19304483278328 -2.41440346464646 -1.27460861796180
 6  1.04306107870787  1.72691583378338  2.62203742214221
 6  3.09155569656966 -0.96955639503950 -0.95343897489749
 6  1.53724926282628 -4.35298967856786 -0.86513498739874
 6 -7.86183290419042  0.86998156255626 -2.18316303830383
 6  1.69965165526553 -5.11687793019302  0.54659098559856
 6  4.43428114451445 -3.08309957575758 -1.85657765516552
 6  4.00670961316132 -0.00254859305931 -1.35017521262126
 6  2.48239085448545  1.75876005030503  3.13855376047605
 6  3.73687821372137  1.45888514481448 -1.20746651735173
 6 -9.05330350335034  0.65559340314031 -1.54630339293929
 6  1.11954926332633 -6.47027575707571  0.45208600130013
 6  4.66267033193319  2.50148220322032 -1.58772249874987
 6  4.00210584508451  3.61937609780978 -1.25119469076908
 6  2.74947370337034  3.27512921432143 -0.44259280628063
 6  5.93649165356536  2.25419729112911 -2.21884341314131
 6  4.45413620702070  5.13766528372837 -1.34980765266527
 6  6.78425597699770  3.18476489788979 -2.75668033613361
 1 -4.41016896759676  2.17852289718972  0.16164570657066
 1 -5.04955338443844 -0.58633362446245  1.05055630393039
 1 -4.74733485268527  0.73172740184018  2.21170330483048
 1 -2.93786119651965 -1.40375723322332  0.03324093279328
 1 -3.46637233053305  0.54299737593759 -1.68738593589359
 1  0.41127771207121  0.04207418091809  3.69321465366537
 1  1.36931537553755 -0.36311619561956  2.08183650405040
 1 -0.66831732423242 -3.03917188048805  0.18200801920192
 1 -3.60866301830183  1.73080966626663  3.29494566216622
 1 -1.76057091649165  1.53815244274427  4.22648237283728
 1 -2.14735753505351  2.62351098689869  3.11787394139414
 1 -6.80772466756676  2.67235618771877  1.56420453925393
 1 -7.71299400770077  1.24189051745175  1.54446686928693
 1 -8.21360985228523  2.43471564166417  0.35967496469647
 1  0.92445462676268  2.16025863386339  1.63169317691769
 1  0.49648368846885  2.45360344814481  3.38044839933993
 1  1.40122574087409  0.14468085828583 -0.15411763786379
 1  2.08036629522952 -5.11298682188219 -1.69970803300330
 1  0.47731581198120 -4.52182209560956 -1.12917568726873
 1 -7.89749507450745  0.89057169116912 -3.20873178517852
 1  1.23671661176118 -4.45520982528253  1.26550623822382
 1  2.73718476137614 -5.33296977597760  0.79483342174217
 1  4.31568601240124 -4.07184471297130 -2.11667071967197
 1  5.17488961046105 -3.05237411821182 -0.83308823032303
 1  4.90518761506151 -2.50007206280628 -2.60175049734974
 1  4.87830063716372 -0.24575868466847 -2.01524821302130
 1 -8.96195571777178  0.34236513371337 -0.49780046624662
 1 -9.91335950105011  0.29853423182318 -2.10132987468747
 1  3.86424285568557  3.02331490009001  3.72230041224122
 1  6.29158416401640  1.32980718721872 -2.20490799399940
 1  4.63530454065407  5.28814190619062 -2.50633768876888
 1  3.59491749584959  5.87775484538454 -1.23066614981498
 1  5.34634640614061  5.23798025262526 -0.48006975507551
 1  1.31952949144914 -8.09512075457546  1.43818349144914
 1  7.78814009580958  2.96193349964996 -3.13811257345735
 1  6.50969241354135  4.35510308160816 -2.78309119821982

