%nproc=4
%Mem=2GB
# td=(NStates=1) B3LYP/SVP 

TD

0 1
 8 -5.28118348014801 -0.02067795279528 -3.26742957575758
 8  2.94553137923792  3.09918564196420  3.28375463986399
 8  3.26376711451145  0.96903191229123  3.16940890209021
 8  1.69106324222422 -7.42216812121212  1.40201061086109
 8  0.84398114751475 -7.17836874087409 -0.69033296449645
 8  1.85807926722672  4.03480644764476 -0.13815555115512
 7 -2.38773937663766 -0.74448945554555  0.52847937503750
 7 -4.43471737563756  0.54355860446045 -1.24135606770677
 7  1.86837656475648 -0.67213919491949 -0.42806424452445
 7  2.61778304870487  1.87046549664967 -0.45745322032203
 6 -4.76021826812681  1.20941112051205 -0.06111565506551
 6 -4.48972357775778  0.50725714341434  1.29086114681468
 6 -3.04054751095110  0.15844072647265  1.35040038013801
 6 -2.02138718301830  0.84309645664566  2.17043784198420
 6 -0.76174006150615  0.13640508200820  1.85525428762876
 6 -1.05622999799980 -0.88447355645565  0.89246595489549
 6 -6.28219431683168  1.40512226812681 -0.27315572937294
 6  0.61031451475148  0.30953887698770  2.56548121692169
 6 -6.61233366506651  0.87602990819082 -1.49520037773777
 6 -0.26196193819382 -1.94672997409741  0.28414559025903
 6  1.09149206040604 -1.74741725432543 -0.24619341254125
 6 -5.41607966606661  0.44969466266627 -2.16791623242324
 6  1.88572444234423 -2.96027960396040 -0.68402371897190
 6 -2.30298703990399  1.90171190319032  3.11881052105211
 6 -7.16073806600660  1.99673520952095  0.82993360726073
 6  3.02021755005501 -2.41078310261026 -1.20572172927293
 6  1.09257603020302  1.73015615781578  2.63209842824282
 6  3.03518005900590 -0.96283572297230 -0.93369700070007
 6  1.40311584948495 -4.38632301190119 -0.91178965286529
 6 -7.93535025592559  0.91990655505551 -2.10378510051005
 6  1.59491118121812 -5.09023526592659  0.46702302880288
 6  4.16013372977298 -3.05442670847085 -1.87964996239624
 6  3.93250219241924  0.03485514731473 -1.28029822492249
 6  2.53574619001900  1.86447062136214  3.09275918101810
 6  3.71222574847485  1.35914517081708 -1.06724249494949
 6 -9.11410958395840  0.90044788858886 -1.51653041564156
 6  1.32072938133813 -6.68103683318332  0.39145993869387
 6  4.65512957785779  2.43670572557256 -1.47004073057306
 6  4.02735837033703  3.57390155035504 -1.14780435173517
 6  2.80129888588859  3.27482918431843 -0.45549409640964
 6  5.99695770017002  2.20407227862786 -2.03477500630063
 6  4.42666345974597  4.96607812501250 -1.24168684058406
 6  6.83380093149315  3.14388080948095 -2.51692636073607
 1 -4.43040099079908  2.14710975587559 -0.07495795379538
 1 -5.09224765386539 -0.52105709680968  1.40910215851585
 1 -4.71998211741174  1.24966919601960  2.03162529702970
 1 -2.83457086748675 -1.35624248174817  0.00914852355235
 1 -3.50109580288029  0.69190226642664 -1.59168636593659
 1  0.41440802510251 -0.20490051655166  3.58466379857986
 1  1.36198464246425 -0.24831471547155  1.78187650805081
 1 -0.61920241274127 -2.87969593289329  0.15217503590359
 1 -3.25048720072007  1.93602018731873  3.40492666026603
 1 -1.49923478287829  1.65790441794179  3.88183790839084
 1 -1.93912671197120  2.86688532433243  2.59387154115412
 1 -6.61361525662566  2.56945589768977  1.33519163796380
 1 -7.61132384068407  1.24483081148115  1.47865028762876
 1 -8.01740023132313  2.79332150225023  0.43993299049905
 1  1.07898007930793  2.23770637863786  1.65147515511551
 1  0.42314635473547  2.33539162696270  3.43481383588359
 1  1.69958557685769  0.21289767996800 -0.23381560766077
 1  1.99596785538554 -4.95782130533053 -1.78147620982098
 1  0.45352343274327 -4.37909782318232 -1.15086785648565
 1 -7.91146647164716  0.86926956095610 -3.27148806080608
 1  0.90378331843184 -4.58955325962596  1.22089177677768
 1  2.63686472937294 -5.01962844184418  0.86594053245325
 1  4.17649209300930 -4.24231175967597 -1.36832588518852
 1  5.25681780328033 -2.55232411321132 -1.68564348584858
 1  3.93659075537554 -3.17233928952895 -3.21178150045004
 1  4.82957576467647 -0.32176628542854 -1.80610729892989
 1 -9.14957447964797  0.58517941514151 -0.47948863506351
 1 -9.95191335643564  0.82271665006501 -2.23366310801080
 1  3.92814924632463  3.19484205280528  3.35604378657866
 1  6.05671067666767  1.11828603510351 -2.04405190839084
 1  4.72691370157016  5.04279737173717 -2.38846590159016
 1  4.04069207330733  5.67736480638064 -0.75041812501250
 1  5.47309908140814  5.12040849544954 -1.00831257935794
 1  1.30336787528753 -8.33488473097310  1.05781545464546
 1  7.76090737253725  2.64926223252325 -2.76976573877388
 1  6.75248669296930  4.23930150145014 -2.67697058615862

