%nproc=4
%Mem=2GB
# td=(NStates=1) B3LYP/SVP 

TD

0 1
 8 -5.36121148294829  0.29522363736374 -3.32656548934893
 8  2.91891871797180  3.22115783918392  3.22685895029503
 8  3.19685042284228  0.96581159025903  3.35977793899390
 8  1.26956109200920 -7.22487839223922  1.44393480328033
 8  0.27200394979498 -6.91815271927193 -0.48821275247525
 8  1.97254071337134  4.01514448144815 -0.22240397599760
 7 -2.37990859355936 -0.75528053465347  0.50886741384138
 7 -4.45885978987899  0.76954120272027 -1.22299423152315
 7  2.01850157725773 -0.77939992099210 -0.39329076717672
 7  2.71692296269627  1.83969241934193 -0.47842531753175
 6 -4.93550579687969  1.20279045844584  0.04149460596060
 6 -4.44494910031003  0.26600301800180  1.31099316001600
 6 -2.96593004920492  0.04170905330533  1.35807114721472
 6 -2.03309835413541  0.66916906390639  2.20911170937094
 6 -0.77436132363236  0.10885232673267  1.80411917411741
 6 -0.88490286528653 -0.78556366546655  0.73705041334133
 6 -6.45608170557056  1.23586534243424 -0.18442685648565
 6  0.52383586688669  0.40345826892689  2.45862053085309
 6 -6.74510694239424  0.84495680088009 -1.40806166386639
 6 -0.04370011201120 -1.85980128122812  0.14143131883188
 6  1.23479639083908 -1.88039055165517 -0.28884767796780
 6 -5.54702276037604  0.50155984918492 -2.15478491929193
 6  1.98406427632763 -2.94030760676068 -0.94944026062606
 6 -2.29586632783278  1.73992572457246  3.21006964696470
 6 -7.30950294249425  1.68273380938094  0.92961357525753
 6  3.26712224052405 -2.38549057335734 -1.27721887898790
 6  1.10865763836384  1.85518866106611  2.57752297069707
 6  3.20895743674367 -0.98373781318132 -1.06028965996600
 6  1.56208174607461 -4.37678205780578 -0.89176765066507
 6 -8.07330405130513  0.77684224862486 -2.09881460346035
 6  1.54693638373837 -5.07852409480948  0.44678100460046
 6  4.46015373177318 -2.94869613541354 -1.82957495489549
 6  4.16208515071507  0.06571823362336 -1.25032522762276
 6  2.54786740214021  1.88792296659666  3.05466537163716
 6  3.78315284118412  1.38558781508151 -1.01588735943594
 6 -9.28475664866487  0.52212005580558 -1.49489825242524
 6  1.01300860926093 -6.52024075357536  0.39000979367937
 6  4.72461652655266  2.41609366436644 -1.51548527502750
 6  4.13080871537154  3.56449060926093 -1.17500707200720
 6  2.78917767376738  3.25451715311531 -0.59972851985199
 6  6.17848585298530  2.22529440084008 -1.95251678047805
 6  4.60482127552755  4.98558007520752 -1.39202187408741
 6  7.00358791019102  3.09074549594960 -2.45047971607161
 1 -4.42106005670567  2.17459250415041  0.25342488448845
 1 -4.97830625972597 -0.90889588068807  1.06078732703270
 1 -4.66985710491049  0.58175240434043  2.29638177267727
 1 -2.86345375577558 -1.23132999049905 -0.22850524182418
 1 -3.29157485078508  0.81088416461646 -1.55330252755276
 1  0.37922450675067 -0.03597362386239  3.59685501770177
 1  1.33171161516152 -0.31900178417842  1.96461478187819
 1 -0.74296478897890 -2.71398936223622 -0.02077225882588
 1 -3.31509366136614  2.00954754005401  3.44332049964996
 1 -1.79883474287429  1.47486611411141  4.13689341394139
 1 -1.85703850315031  2.69945858165817  3.07426958095810
 1 -6.84190808590859  2.52352130423042  1.53063118191819
 1 -7.76115882418242  0.76440276867687  1.39124154675468
 1 -8.17645613691369  2.45167733783378  0.54576357355736
 1  1.03856603790379  2.28271087908791  1.51293130073007
 1  0.39546358645865  2.57015510331033  3.17771812631263
 1  1.64986060436044  0.15957234743474 -0.14550677677768
 1  2.07101536013601 -4.99560508370837 -1.62157021922192
 1  0.52167024742474 -4.44192410581058 -1.36128889858986
 1 -8.03823914891489  0.76507914191419 -3.16287719971997
 1  0.94929786988699 -4.55640994529453  1.22690237783778
 1  2.73325436833683 -5.23967044604460  0.75373931233123
 1  4.47654209800980 -4.08690621912191 -1.80136918951895
 1  5.35937805930593 -2.80007888868887 -1.27920284178418
 1  4.77874497079708 -2.62394445004500 -2.91401172347235
 1  4.97465027212721 -0.21224533333333 -1.62248893709371
 1 -9.30920044224422  0.46435733293329 -0.34998568476848
 1 -10.07975614071407  0.54993937233723 -2.12983272497250
 1  3.85956238763876  3.14014658325833  3.71835001720172
 1  6.70816582218222  1.33427763426343 -1.88362586578658
 1  4.96333734393439  5.36936002800280 -2.33561061606161
 1  3.80628863296330  5.53870093999400 -1.07103018621862
 1  5.47828960046005  5.19844629922992 -0.68020976907691
 1  0.62818035653565 -8.05604684718472  1.44983465656566
 1  7.95738702050205  2.84606191249125 -2.84503326552655
 1  6.64448589288929  4.11795936723672 -2.38620150925092

