%nproc=4
%Mem=2GB
# td=(NStates=1) B3LYP/SVP 

TD

0 1
 8 -5.31942730453045  0.23590770577058 -3.33378621142114
 8  2.83590041614161  3.00021574497450  3.34792105650565
 8  3.29411014881488  0.89346435553555  3.26564852605261
 8  1.50951508740874 -7.13818972337234  1.64677508730873
 8  0.48589533893389 -6.99197010101010 -0.26202013321332
 8  1.87394085338534  3.92430539753975 -0.02558429402940
 7 -2.41407200990099 -0.93917892449245  0.55959248634864
 7 -4.33667757165717  0.80305455405541 -1.28569050115011
 7  1.92327205430543 -0.66723870487049 -0.35660709880988
 7  2.69235050545055  1.84184263436344 -0.52768024302430
 6 -4.81379362566257  1.29922010141014  0.04169462596260
 6 -4.39959456485649  0.38278469616962  1.21337339803980
 6 -2.96739019521952  0.06537141954195  1.31485682578258
 6 -1.95741078537854  0.65381752875288  2.09232003020302
 6 -0.71490537803780  0.06259770127013  1.74472323452345
 6 -0.98247262226223 -0.86760186928693  0.74053076137614
 6 -6.27904400180018  1.34066582248225 -0.21242965676568
 6  0.63897738103810  0.31713963706371  2.36591125992599
 6 -6.66756918861886  0.87006931213121 -1.37921877957796
 6 -0.17955369736974 -1.77366266736674  0.07619479517952
 6  1.09163207440744 -1.85411792439244 -0.38753754695470
 6 -5.43662172027203  0.57963765696570 -2.18809825062506
 6  1.82054792469247 -2.90582415841584 -0.88440375697570
 6 -2.10225696689669  1.77704943694369  3.12628126812681
 6 -7.32203419561956  1.74380991699170  0.89683029692969
 6  3.13257878617862 -2.42717474177418 -1.28134929202920
 6  1.07001377397740  1.77642078427843  2.55535075347535
 6  3.02095863686369 -0.89801924132413 -1.09789342034203
 6  1.34936047394739 -4.37149152875288 -0.87898637253725
 6 -7.88587530843084  0.78198276267627 -2.11848657065707
 6  1.65917760786079 -5.09180542294229  0.48835516201620
 6  4.23315103150315 -3.11123238903890 -1.99063106050605
 6  3.98539748194819  0.03617527932793 -1.42756295139514
 6  2.55958857425743  1.78691286558656  3.10564046914691
 6  3.74674920082008  1.40944020032003 -1.17572334303430
 6 -9.14977315031503  0.57381522532253 -1.65449421202120
 6  1.12976028442844 -6.49389811931193  0.54361515421542
 6  4.75991005590559  2.45826788178818 -1.43861758825883
 6  4.12383801830183  3.61337549774978 -1.04225379667967
 6  2.79489824582458  3.22223392479248 -0.39608815581558
 6  6.01231923632363  2.30883275467547 -2.07558908770877
 6  4.47064785818582  4.94694621182118 -1.05528820072007
 6  6.89963751515152  3.20665708710871 -2.65963063116312
 1 -4.56507445814581  2.31573661856186  0.19735927792779
 1 -5.08844727382738 -0.48039303040304  1.41962321062106
 1 -4.68047816701670  1.14390861996200  2.17192932743274
 1 -2.85824323472347 -1.61103796129613 -0.27740013131313
 1 -3.33821951525152  1.09083215941594 -1.51588878617862
 1  0.45518210251025 -0.18376840334033  3.32901823402340
 1  1.53065150915092 -0.06187607160716  1.71215953635364
 1 -0.79713020552055 -2.78218618191819 -0.07105728732873
 1 -3.22572472447245  1.88024460976098  3.34370053765377
 1 -1.63796865626563  1.47469609710971  3.98260798539854
 1 -1.45076787608761  2.63132176797680  2.62535468946895
 1 -6.71731562666267  2.48684763686369  1.58846696549655
 1 -7.79591229952995  1.01905823422342  1.69775219781978
 1 -8.00679917121712  2.34068623872387  0.20733973117312
 1  1.19696187748775  2.45306791479148  1.58627863546355
 1  0.42501654175418  2.37849593739374  3.30829118361836
 1  1.87510312861286  0.35512190239024 -0.18363058915892
 1  1.71308956755676 -4.91195671887189 -1.66705476767677
 1  0.21090917131713 -4.10384029742974 -1.22057482718272
 1 -7.96728205320532  0.98814144814481 -3.19166007800780
 1  1.25733867396740 -4.49588389268927  1.42356204380438
 1  2.83979502240224 -5.13410988998900  0.51688562696270
 1  4.11752619641964 -4.31725925442544 -1.85499455205521
 1  5.11673379487949 -2.78500738153815 -1.59917483898390
 1  4.13791088738874 -2.93694575017502 -3.20863118541854
 1  4.94882768986899 -0.43713782258226 -1.63801048924892
 1 -9.24378390059006  0.35735663286329 -0.71228191439144
 1 -10.12663082818282  0.42960733913391 -2.08067780948095
 1  3.78117454885489  3.23612618121812  3.57651583378338
 1  6.32758776437644  1.26489069556956 -2.13530103330333
 1  4.57169818001800  5.35803889588959 -2.05900295529553
 1  3.90872887698770  5.59560663056306 -0.51716479967997
 1  5.64303607510751  5.00690714531453 -0.59384113221322
 1  1.00376791529153 -7.88754999749975  1.58985865896590
 1  7.73953523532353  2.99107641394139 -2.94153291549155
 1  6.60768221252125  4.20715828712871 -2.99220210931093

