%nproc=4
%Mem=2GB
# td=(NStates=1) B3LYP/SVP 

TD

0 1
 8 -5.44805016681668  0.29834394939494 -3.38482131493149
 8  2.85005183128313  3.13880960436044  3.10763702810281
 8  3.03937467526753  0.94355936503650  3.21864382558256
 8  2.04975911181118 -7.27531343574357  1.40641105090509
 8  0.65721247064706 -7.02103300730073 -0.46103003420342
 8  1.82034549384938  3.91482444944495 -0.05264700030003
 7 -2.35553615631563 -0.95541054765477  0.57328385548555
 7 -4.45658956285629  0.71985623422342 -1.37311924402440
 7  1.92972269936994 -0.79150113111311 -0.28775021312131
 7  2.56945821622162  1.78386683678368 -0.58081555655566
 6 -4.76491873817382  1.25177535693569 -0.06803634713471
 6 -4.42857746314631  0.27996441414141  1.09823188388839
 6 -2.98660211641164  0.06713159555956  1.25753109320932
 6 -2.02533757805781  0.68822096909691  2.07258805700570
 6 -0.76422030953095  0.01125256675668  1.83172193439344
 6 -0.93631800680068 -0.91389649874987  0.86957366566657
 6 -6.28928502590259  1.47627938383838 -0.13419183298330
 6  0.59322280558056  0.25312323542354  2.60083475227523
 6 -6.69647207890789  1.16156846204620 -1.40919177687769
 6 -0.14847058905891 -1.97452275337534  0.29443661936194
 6  1.12272518371837 -1.95382789538954 -0.25112390559056
 6 -5.53780183828383  0.61238093129313 -2.17132657345735
 6  2.03401927182718 -3.05138871487149 -0.80153547014701
 6 -2.39253599479948  1.62629436143614  3.16817545754575
 6 -7.08981097329733  2.10233576957696  0.90973158705871
 6  3.17259278757876 -2.50584260856086 -1.15959711681168
 6  0.93721049364937  1.75129827202720  2.46300151855186
 6  3.07590413141314 -1.09019845924592 -0.92152578357836
 6  1.55473101100110 -4.43973835343534 -0.79556803070307
 6 -8.07463418431843  1.08681324572457 -2.01924664666467
 6  1.69558124822482 -5.05322156455646  0.50746707320732
 6  4.36417413381338 -3.22662392819282 -1.88632062946295
 6  3.98962790499050 -0.03808214641464 -1.15920611571157
 6  2.37322993839384  1.94814898919892  2.98291819691969
 6  3.81374590049005  1.27867712401240 -1.03120889158916
 6 -9.26569474247425  1.12835067886789 -1.47554631723172
 6  1.40021733013301 -6.55015374487449  0.44567536023602
 6  4.66072013691369  2.43280533553355 -1.48078180468047
 6  4.00531616611661  3.62752691289129 -1.11403097439744
 6  2.72814157015702  3.22666436783678 -0.55619416641664
 6  6.00607861226123  2.28643051445145 -2.10646217501750
 6  4.36088688208821  5.09049056625663 -1.20626329822982
 6  6.94880243164316  3.22282870427043 -2.59211387948795
 1 -4.28415636633663  2.15007005190519 -0.04270472847285
 1 -5.02065049414942 -0.52001699279928  0.93809505780578
 1 -4.86868698789879  0.70381461056106  1.97314944944495
 1 -2.86044345474547 -1.58994585208521 -0.28302069336934
 1 -3.38473416671667  0.38455153135313 -1.70180737803780
 1  0.50167675197520  0.07294726822682  3.73655898809881
 1  1.26002444644464 -0.33274315831583  2.09890821122112
 1 -0.76998749124912 -2.80283824712471  0.05217503590359
 1 -3.52134428642864  1.79324590989099  3.27377354495450
 1 -2.04968982838284  1.32504113161316  4.12506223082308
 1 -1.93108590789079  2.52160079587959  2.96286844084408
 1 -6.71406530163016  2.95625457755776  1.60165828462846
 1 -7.57671037933793  1.32298862726273  1.36429885248525
 1 -7.92718120942094  2.75584775487549  0.52167116431643
 1  1.05312749404941  1.98816142414241  1.40714072167217
 1  0.41729576967697  2.66690477827783  3.02794314881488
 1  1.57953357165717  0.13267965816582 -0.28600082618262
 1  2.19478773737374 -5.00610613381338 -1.51314937713771
 1  0.57961604200420 -4.36444635803580 -1.10404317401740
 1 -7.98542386738674  0.88221085508551 -3.12159307130713
 1  1.06419936003600 -4.89554385868587  1.25265495309531
 1  2.76553759665967 -4.75337181618162  1.07122106050605
 1  4.11436588038804 -4.32037956645665 -2.33708276087609
 1  5.13514563606361 -3.22551143194319 -1.25782070357036
 1  4.54652174847485 -2.67293934953495 -2.74435475777578
 1  4.83175598269827 -0.33900800960096 -1.83653034123412
 1 -9.40536005820582  1.08381927912791 -0.42595328152815
 1 -9.94941310641064  1.29398377677768 -2.30127986968697
 1  3.74722115351535  3.07144971357136  3.21770995319532
 1  6.23996900250025  1.22368657515752 -2.48755625882588
 1  4.60399140934094  5.15347843984398 -2.42977003200320
 1  3.22393039713971  5.51899896979698 -0.89471255445545
 1  5.16125789728973  5.40982743734373 -0.53184493259326
 1  1.62250978947895 -8.20964220672067  1.54018369146915
 1  7.96093737553755  2.81973928022802 -2.83714247644764
 1  6.70592203650365  4.30746831813181 -2.50039292839284

