%nproc=4
%Mem=2GB
# td=(NStates=1) B3LYP/SVP 

TD

0 1
 8 -5.40825618741874  0.41433554855486 -3.34798763156316
 8  2.84250107620762  2.97149287268727  3.07802406680668
 8  3.25768650645065  0.84110912001200  3.01710367156716
 8  1.59970410631063 -7.08383428782878  1.63139354915492
 8  0.68991574097410 -7.04188509250925 -0.31994592579258
 8  1.77014047334733  3.96635960296030 -0.24768650425043
 7 -2.41692229492949 -0.95564057065707  0.61841836893689
 7 -4.40984488838884  0.78380262886289 -1.29249118121812
 7  1.96534626172617 -0.71507348834883 -0.24485592369237
 7  2.62205347574757  1.78339678977898 -0.52157963296330
 6 -4.89749199549955  1.16604678407841  0.11737219371937
 6 -4.51362596799680  0.15236165386539  1.25721778247825
 6 -3.03574703090309  0.02506738913891  1.30309564966497
 6 -2.05531057535754  0.60208235523552  2.01594239243924
 6 -0.78089197669767 -0.06002456095610  1.74257301950195
 6 -1.10888526352635 -1.01768687778778  0.73075978427843
 6 -6.30103620102010  1.32140389628963 -0.10617903170317
 6  0.48189167246725  0.20236815991599  2.46500116891689
 6 -6.69806223792379  1.06049835503550 -1.42578343604360
 6 -0.21059680168017 -2.06069137023702  0.14540171587159
 6  1.11657456865687 -1.83915642824282 -0.28400719391939
 6 -5.39256731483148  0.71785147834783 -2.12824226502650
 6  1.96515238513851 -2.98124170017002 -0.91153647024702
 6 -2.14411115231523  1.66697842984298  3.13230187018702
 6 -7.19734172637264  1.92247778377838  0.92102271617162
 6  3.15066059435944 -2.44584660896090 -1.21999315641564
 6  1.08751552415242  1.65437858005801  2.44184940334033
 6  3.15032157315732 -0.96364580398040 -0.81513514451445
 6  1.58762430033003 -4.36767114671467 -0.84492296619662
 6 -7.95095181608161  1.13307787218722 -2.08624334633463
 6  1.77593928402840 -5.10083632603260  0.46379270577058
 6  4.49299701610161 -2.99347061286129 -1.69096109350935
 6  4.00603954615462  0.03221488328833 -1.18460865596560
 6  2.49763237863786  1.73527770207021  2.91750165526553
 6  3.82561708760876  1.35431468776878 -0.96409217991799
 6 -9.20307848084809  1.13618146194619 -1.62213097569757
 6  1.33204051245125 -6.47673640314031  0.47630842354235
 6  4.62169623452345  2.51063311831183 -1.45475920242024
 6  3.94695032953295  3.70202436263626 -1.16782635393539
 6  2.66020477647765  3.17115881728173 -0.60327887488749
 6  6.00616862126213  2.29775164656466 -2.01334286308631
 6  4.37815860926093  5.09423094029403 -1.30031270317032
 6  6.89743729512951  3.19620604200420 -2.49606427452745
 1 -4.40591854255426  2.20734577947795  0.38431797379738
 1 -5.02284071317132 -0.64048904000400  1.22933418171817
 1 -4.90317043624362  0.51284551365137  2.22481461596160
 1 -2.84030144054405 -1.51052791029103 -0.05834822612261
 1 -3.41001669496950  0.52696577277728 -1.87620481778178
 1  0.33673025732573  0.08141811531153  3.49426475867587
 1  1.46291473547355 -0.53859374337434  2.12268058845885
 1 -0.79730022252225 -2.94671263456346 -0.21692187378738
 1 -3.23694584658466  1.80310689598960  3.45348151575157
 1 -1.54809966936694  1.38482711021102  4.14909463406341
 1 -1.70033283258326  2.68172680848085  2.74500665466547
 1 -6.65871976707671  2.56246519861986  1.66503462226223
 1 -7.55437814611461  1.05571189958996  1.41424384698470
 1 -8.13420191149115  2.55740791089109  0.58264726192619
 1  1.16223840514051  1.89665227322732  1.41621162876288
 1  0.38036207630763  2.31708979677968  3.10209056355636
 1  1.66708232653265  0.34280067026703 -0.24981720782078
 1  2.32306056465647 -4.90264578777878 -1.54049211141114
 1  0.57389546994699 -4.58224813821382 -0.98993176287629
 1 -7.87764308930893  1.04399703370337 -3.23003391539154
 1  1.27541048114811 -4.46840114441444  1.18711839943994
 1  2.77431847474747 -5.11894837383738  0.80451438983898
 1  4.35880032383238 -4.04466199469947 -2.15132418501850
 1  5.25047716921692 -2.84566344714471 -0.89289421092109
 1  4.85473256955696 -2.48760081568157 -2.51814213651365
 1  4.85427823492349 -0.43333744254425 -1.67922461066107
 1 -9.60234975717572  1.08638953615361 -0.50658134433443
 1 -9.94896306140614  1.49738411681168 -2.30521026272627
 1  3.84427085848585  2.76978954755475  3.19717789999000
 1  6.46088109370937  1.16263046954695 -2.16862436563656
 1  4.62962397259726  5.25532862486249 -2.33188024302430
 1  3.62697070117012  5.89082615251525 -0.94917800100010
 1  5.20953272477248  5.13966042064206 -0.62152390049005
 1  1.17780531903190 -7.95563680618062  1.60493016611661
 1  7.79166044784478  2.85551285758576 -2.90545930813081
 1  6.65123656795680  4.07025459675968 -2.47297018611861

