%nproc=4
%Mem=2GB
# td=(NStates=1) B3LYP/SVP 

TD

0 1
 8 -5.24618998079808  0.30863497849785 -3.32294512731273
 8  2.91219804590459  3.02680840424042  3.32682894729473
 8  3.28915965376538  0.79677468656866  3.06375833703370
 8  1.55122925882588 -7.22764866926693  1.49210962076208
 8  0.43541029042904 -6.94818572257226 -0.35366929812981
 8  2.00711417071707  4.11526449344935 -0.10603233883388
 7 -2.39441004370437 -0.94058906550655  0.70155668276828
 7 -4.29912381628163  0.64421867046705 -1.22215414751475
 7  1.86877660476048 -0.63342532353235 -0.39273071117112
 7  2.62216348674867  1.93183163326333 -0.46153362836284
 6 -4.83579582588259  1.12789296869687  0.05705616211621
 6 -4.52561716711671  0.27424384208421  1.21876393709371
 6 -3.00222367856786  0.10151503390339  1.39233457355736
 6 -2.09988503280328  0.73503565056506  2.09016981518152
 6 -0.74666855435544  0.07442888438844  1.81997075927593
 6 -1.03374774977498 -0.98278338743874  0.87754446274627
 6 -6.28634473187319  1.42318407430743 -0.27577599139914
 6  0.53995747904790  0.30578850195020  2.56836150495050
 6 -6.63511594329433  0.84683698889889 -1.44812567026703
 6 -0.25032077407741 -1.91796709780978  0.21937911361136
 6  1.08504141534153 -1.83765627822782 -0.30948974217422
 6 -5.34885294339434  0.59386908010801 -2.17108654945495
 6  1.84475034493449 -2.94656823282328 -0.88265358195820
 6 -2.31269801100110  1.72591432343234  3.20479911991199
 6 -7.22716470867087  1.87246278227823  0.85289590349035
 6  3.15569109740974 -2.37545957025703 -1.23974513161316
 6  1.13019979257926  1.67117025922592  2.57113233163316
 6  3.06110265126513 -0.91081052045204 -0.95169880088009
 6  1.46071160906091 -4.40514489408941 -0.82649112301230
 6 -7.92649937083708  0.74781934633463 -2.12671739373937
 6  1.77066875697570 -5.08870511291129  0.45498182468247
 6  4.31825954235423 -3.07463872967297 -1.87888988638864
 6  4.01227016921692  0.11433309510951 -1.28196839193919
 6  2.55451806720672  1.73568774307431  2.88410831593159
 6  3.71952647854785  1.41046030233023 -1.07322309300930
 6 -9.29414758775878  0.84058190199020 -1.74928369096910
 6  1.16108341674167 -6.48520725022502  0.50794158685869
 6  4.68111217611761  2.47562961796180 -1.48337206370637
 6  4.06752238673867  3.61764592479248 -1.09065863716372
 6  2.81671042704270  3.30867256865687 -0.48063661066107
 6  6.04070207460746  2.21138300970097 -2.11096262506251
 6  4.62631342474247  5.00271178837884 -1.26857952985299
 6  6.76445399679968  3.21555797719772 -2.72089675777578
 1 -4.24909285998600  2.00015506040604  0.32109165116512
 1 -4.91177960706071 -0.77116210731073  1.05037628592859
 1 -4.92708282748275  0.79900412951295  2.15467760226023
 1 -2.96131354175418 -1.61104796229623  0.25312292099210
 1 -3.40590628392839  0.63201627782778 -1.40342754005401
 1  0.45034161846185 -0.29965999249925  3.58596392859286
 1  1.23200164416442 -0.42377226122612  1.90825914631463
 1 -0.78876936943694 -2.79659762306231  0.11041085948595
 1 -3.34341649364936  1.77954453975398  3.42231839943994
 1 -1.72178703810381  1.57232586008601  4.06305603020302
 1 -2.06327912721272  2.75586422222222  3.02548470247025
 1 -6.88129202430243  2.74057300940094  1.34064218301830
 1 -7.30742345064507  1.04985131353135  1.66899932253225
 1 -8.10752924422442  2.12207437753775  0.42462145934593
 1  0.98915109640964  1.87081968996900  1.60315032263226
 1  0.40103414351435  2.70677876567657  2.95837619211921
 1  1.66921253955396  0.39462585278528  0.05714348824882
 1  1.75910416901690 -4.87675319851985 -1.68336639883988
 1  0.45048312871287 -4.49334924832483 -1.02009477917792
 1 -7.78315364036404  0.70344297829783 -3.11762267426743
 1  1.42357529762976 -4.42417672197220  1.21921160876088
 1  2.68949999289929 -5.27704418341834  0.78709264766477
 1  4.06197064086409 -4.11847937643764 -2.30582963556356
 1  5.08826094759476 -3.08071695249525 -1.07307222872287
 1  4.82642973927393 -2.49196125172517 -2.78702902520252
 1  4.78532133923392 -0.20440454925492 -2.02817950615061
 1 -9.53863338553855  0.96606750395040 -0.72892357855786
 1 -10.28171633673367  0.82573695209521 -2.31506124782478
 1  3.78293472487249  2.88975154375438  3.66217439963996
 1  6.50411541714171  1.20624483098310 -2.01532903610361
 1  4.45558656885689  5.66786987898790 -2.32477953295330
 1  4.16785478957896  5.66872394229423 -0.64346742994299
 1  5.87083885538554  4.95284173877388 -0.96129787788779
 1  1.18032557105711 -8.00154139663966  1.53335300840084
 1  7.91307258905891  3.07349465576558 -3.06657541974197
 1  6.38908035233523  4.18055562686269 -2.80420330943094

