%nproc=4
%Mem=2GB
# td=(NStates=1) B3LYP/SVP 

TD

0 1
 8 -5.40314567636764  0.28465258025803 -3.27266009880988
 8  2.86598342444244  3.11903762716272  3.14787105150515
 8  3.08946968476848  0.87062207130713  3.19746170737074
 8  1.83594773067307 -7.37633353775378  1.43582399219922
 8  0.50436718611861 -7.02807371137114 -0.35580951215122
 8  2.02122558185819  4.02610557755776  0.03543180758076
 7 -2.36691729442944 -0.78063306990699  0.52542907000700
 7 -4.36437034093409  0.90579482808281 -1.27097903000300
 7  1.89384911201120 -0.73459544054405 -0.31384282238224
 7  2.70911218161816  1.85250370047005 -0.39035651065106
 6 -4.91350359665967  1.31182136153615 -0.00366991049105
 6 -4.45611021642164  0.34206062376238  1.14639670037004
 6 -2.93387684388439  0.22913779617962  1.33535887598760
 6 -1.98704374867487  0.85586773377338  2.01230202840284
 6 -0.77432131963196  0.13786522802280  1.81404016621662
 6 -1.03577795279528 -0.88200330943094  0.71175788408841
 6 -6.38839493689369  1.32824458035804 -0.15724413821382
 6  0.46162964626463  0.40952887598760  2.54953962276228
 6 -6.77099953165316  0.91898420362036 -1.43303416111611
 6 -0.21498724072407 -1.84577987908791  0.09422659835984
 6  1.12536544774477 -1.91140365296530 -0.32927172037204
 6 -5.47158521662166  0.63690338353835 -2.12740218101810
 6  1.93566943684368 -2.97343091909191 -0.91521683828383
 6 -2.22977971917192  1.87760949294929  3.03706234623462
 6 -7.34427641984198  1.84033956995700  0.89384999889989
 6  3.06300182848285 -2.45928795309531 -1.23400455755576
 6  0.98079485208521  1.82949609180918  2.72536775517552
 6  3.06043258425843 -1.02538197759776 -0.85929956095610
 6  1.34849038693869 -4.42189656925693 -0.89969844374437
 6 -7.94178089898990  0.75182974737474 -2.09043376537654
 6  2.01472316241624 -5.21571781418142  0.40206653315332
 6  4.25699341574157 -3.08518978477848 -1.89455145254525
 6  3.96283522572257 -0.01277961616162 -1.21776197129713
 6  2.40988360376038  1.83375755005501  3.06727663276328
 6  3.77992251815182  1.27995725202520 -0.95144091479148
 6 -9.20082825582558  0.71997984178418 -1.59802856545655
 6  1.36363367176718 -6.56124485398540  0.42685347804780
 6  4.64160822572257  2.38518057305731 -1.48034176067607
 6  4.13914954945495  3.59741390159016 -1.12940251155116
 6  2.89352810881088  3.24165586698670 -0.41127967496750
 6  6.11422942734273  2.17316918831883 -2.07329885868587
 6  4.50012080548055  5.09664118131813 -1.21933460536054
 6  6.87710526192619  3.04319074047405 -2.79723439153915
 1 -4.54988293899390  2.37976302120212  0.20791033303330
 1 -4.81295972507251 -0.86061105220522  0.90097134543454
 1 -4.73806392559256  0.58747297639764  2.20981311581158
 1 -2.91538894929493 -1.47474433193319 -0.02165455675568
 1 -3.43972966626663  1.11865494169417 -1.44114131143114
 1  0.31817840214021 -0.13470349684968  3.64566989918992
 1  1.40879932393239 -0.34643452745275  2.10754907530753
 1 -0.81137162966297 -2.69466743004300 -0.16600678227823
 1 -3.30397254925493  1.86483306860686  3.18266443404340
 1 -2.03134799419942  1.37775640314031  4.19894961956196
 1 -1.68922172147215  2.98825746154616  2.98542069606961
 1 -6.80380427552755  2.37622657475748  1.74769288808881
 1 -7.92683539183918  0.89016534493449  1.26764918751875
 1 -8.06643513481348  2.69748191829183  0.34505350255026
 1  0.90538271957196  2.40256286428643  1.84840484808481
 1  0.35068910901090  2.44467255505551  3.17165752025203
 1  1.61188680698070  0.19856624682468 -0.29695192129213
 1  1.57118537713771 -4.82997852105211 -1.90005806800680
 1  0.28735681608161 -4.52986289968997 -0.57052982268227
 1 -7.88853417841784  0.44803743774377 -3.24595550755076
 1  2.00926386648665 -4.61882618691869  1.39803949154915
 1  3.28892993589359 -5.21910838983898  0.22070600900090
 1  3.88311275507551 -4.22220974947495 -2.24731378397840
 1  5.28767088858886 -3.30033891469147 -1.21938686018602
 1  4.41439853615362 -2.41255331093109 -2.77692801510151
 1  4.84309711681168 -0.29448355715572 -1.85624231243124
 1 -9.32245176737674  0.81125202240224 -0.56322700890089
 1 -10.11349951505150  0.72654703310331 -2.20762050375038
 1  3.80294672607261  3.10756332493249  3.51481966416642
 1  6.34780978657866  1.11819602610261 -1.95879338253825
 1  4.11241225142514  5.54253734573457 -2.17361441644164
 1  3.88070607470747  5.53875094499450 -0.56475955915592
 1  5.63329510101010  5.19448590319032 -0.98418016611661
 1  1.53378091659166 -8.24951619411941  1.48766843994399
 1  7.77744902670267  2.60866817311731 -3.28833759595960
 1  6.64621606590659  4.12609018031803 -2.83706659575958

