%nproc=4
%Mem=2GB
# td=(NStates=1) B3LYP/SVP 

TD

0 1
 8 -5.18336369816982  0.16581069606961 -3.28934176697670
 8  2.75509233533353  3.08336405980598  3.44170043444344
 8  3.19723046084608  0.78926393549355  3.28157011821182
 8  1.53072720862086 -7.20923682808281  1.51353176297630
 8  0.07438418781878 -6.79145004900490 -0.25436936813681
 8  2.17148060736074  4.17839080608061  0.08058632303230
 7 -2.44667527022702 -0.87411241784178  0.63108963606361
 7 -4.28171207510751  0.58048229682968 -1.33490542264226
 7  1.85904563166317 -0.71764374537454 -0.31206264436444
 7  2.61410268066807  2.00240869096910 -0.60234770977098
 6 -4.77804005030503  1.24536471587159 -0.07880742424242
 6 -4.45658026342634  0.44109052675268  1.32089415011501
 6 -2.96868032423242  0.10150503290329  1.39703504360436
 6 -1.95661070537054  0.71559370637064  2.19146994519452
 6 -0.81179506700670  0.04446588808881  1.76787554975498
 6 -1.04030840584058 -0.97582269136914  0.85733244154415
 6 -6.30236633403340  1.23980573647365 -0.24939335313531
 6  0.57637112041204  0.17119504260426  2.54759942874287
 6 -6.55744817651765  0.79648195339534 -1.50789164686469
 6 -0.24237997999800 -1.96837213831383  0.18702587828783
 6  1.03490640184018 -1.88196070867087 -0.22831162436244
 6 -5.33596165426543  0.44908460166017 -2.14645408620862
 6  1.79134500440044 -2.88250182618262 -0.79937525412541
 6 -2.08262500370037  1.70184191619162  3.23994263426343
 6 -7.10786277847785  1.77095263126313  0.83601421532153
 6  3.03618914721472 -2.33375539983998 -1.21690284738474
 6  1.06871364396440  1.54648779097910  2.62502772117212
 6  3.01109765076508 -0.86562600200020 -1.00700433143314
 6  1.51458699659966 -4.26073045264526 -0.90632910681068
 6 -7.91208792969297  0.60894545894589 -2.19039376137614
 6  1.59240093019302 -5.00782702510251  0.38781510801080
 6  4.19998771517152 -3.01379264506451 -2.05021701910191
 6  3.85511445364536  0.14935659745975 -1.34053424852485
 6  2.49538215361536  1.79048322262226  3.24130403550355
 6  3.70509503540354  1.49803906020602 -1.16246201690169
 6 -9.14346251925193  0.55469331313131 -1.70807957055706
 6  1.08916622502250 -6.39362809230923  0.43133392609261
 6  4.72210627552755  2.52542459745975 -1.61559528602860
 6  4.30335597009701  3.72382654285429 -1.11371094239424
 6  2.85717447344734  3.29123082448245 -0.50298884588459
 6  6.04724272867287  2.17948982038204 -2.20961249004900
 6  4.69845063846385  5.13062457965797 -1.29621229312931
 6  6.88116566796680  3.09064548594860 -2.83374804290429
 1 -4.52457040774077  2.43346839173917  0.09043858585858
 1 -5.06991542064206 -0.45257024812481  1.44413566186619
 1 -4.78817893709371  0.98731296039604  2.14576671117112
 1 -2.89431684208421 -1.20847770527053 -0.28889128042804
 1 -3.23632932623262  0.74342741894189 -1.53541073837384
 1  0.61757834213421 -0.08130815731573  3.57846317851785
 1  1.35807425142514 -0.41206109010901  2.27475579597960
 1 -0.69971046354635 -2.99905786908691 -0.05347552915292
 1 -3.07128928092809  1.74592117741774  3.85173134073407
 1 -1.38787364676468  1.62578120562056  4.25186491109111
 1 -1.90574337363736  2.73524216001600  2.84451660566057
 1 -6.49221311641164  2.31176012811281  1.53826194499450
 1 -7.70389309760976  0.75849217761776  1.29624204680468
 1 -7.80131862316232  2.41660383048305  0.63754275147515
 1  1.16289847114711  1.82306491449145  1.64004401200120
 1  0.38901294139414  2.15544363216322  3.19531988648865
 1  1.75529114741474  0.30646703690369 -0.09852207830783
 1  2.20702896149615 -4.89931545474548 -1.60001806400640
 1  0.39739782018202 -4.37719763316332 -1.27287005670567
 1 -7.66011133613361  0.38570120412041 -3.36688760076008
 1  0.89997293739374 -4.39716402070207  1.14049373697370
 1  2.50892193509351 -4.69269574857486  0.92067600600060
 1  3.88910335413541 -4.02062959145915 -2.01937098969897
 1  5.24726684818482 -2.68844772557256 -1.74450937243724
 1  4.22623972027203 -2.70193224882488 -3.15590591289129
 1  4.75884869196920 -0.34630873967397 -1.61736842504250
 1 -9.40156967916792  0.70502139933993 -0.57480816701670
 1 -10.08211637673767  0.57961233963396 -2.20229997169717
 1  3.71164759615962  3.16072864146415  3.77264544674467
 1  6.38558356395639  1.09692389888989 -2.29016651985199
 1  4.56871788198820  5.60032312431243 -2.34319137413741
 1  4.00147815191519  5.67656472637264 -0.56667975117512
 1  5.71793356485649  5.36278273287329 -1.16744849294929
 1  1.16302384088409 -8.13394463696370  1.39476915001500
 1  7.79892117391739  2.57386469276928 -3.38710747294729
 1  6.82298374267427  4.16597416871687 -2.74357724682468

