%nproc=4
%Mem=2GB
# td=(NStates=1) B3LYP/SVP 

TD

0 1
 8 -5.24805016681668  0.30678479347935 -3.31533436623662
 8  2.81556838293829  3.04435015841584  3.15455171957196
 8  3.09900063786379  0.83572858195820  3.06608857005701
 8  1.24869900580058 -7.16922282668267  1.80929133893389
 8  0.60124687408741 -6.93749465346535 -0.48785271647165
 8  1.90668412771277  4.09567253425343 -0.26812854845485
 7 -2.48469907260726 -0.93453846044604  0.50705723282328
 7 -4.31973587748775  0.79316356495650 -1.22710464256426
 7  1.84798452555256 -0.65639762076208 -0.45473691179118
 7  2.63059432983298  1.94268271837184 -0.57653512851285
 6 -4.85592783908391  1.18849902930293  0.12528298479848
 6 -4.50086469186919  0.13898031573157  1.26863892459246
 6 -2.98051150735074 -0.07332244984498  1.39720506060606
 6 -1.97628267256726  0.49494164116412  2.05827662586259
 6 -0.74890877837784 -0.08898745724572  1.71220998319832
 6 -1.03780815581558 -0.98552366146615  0.74054076237624
 6 -6.32221831923192  1.37602935883588 -0.13446185998600
 6  0.57448093139314  0.21937986108611  2.52311698049805
 6 -6.61000343204320  0.94971727692769 -1.38734959265927
 6 -0.24510025202520 -1.99121442254225  0.02611978767877
 6  1.04273718491849 -1.78473098569857 -0.35661445464546
 6 -5.31605966406641  0.68202789598960 -2.15073451425142
 6  1.96606247614761 -2.87935151115111 -0.90662597919792
 6 -2.11906864806481  1.62635436743674  3.13485212521252
 6 -7.18320031223122  1.90011554755476  1.00544115801580
 6  3.16647217551755 -2.35265729002900 -1.19015017211721
 6  0.98568534113411  1.61114425662566  2.40050526892689
 6  3.04044058505851 -0.83199263866387 -1.00709434043404
 6  1.61912745064506 -4.40559493909391 -0.82834130803080
 6 -7.92462918381838  0.88329289368937 -2.11239596159616
 6  1.61094278437844 -5.13171941434143  0.62019834633463
 6  4.24911262766277 -3.10395166096610 -1.84961695909591
 6  4.00022896509651  0.06959862166217 -1.21443163826383
 6  2.43457607300730  1.81994616891689  2.90693059815982
 6  3.83387791369137  1.46178543484348 -1.06270204090409
 6 -9.06161433443344  0.72111995579558 -1.51317007960796
 6  1.10606791519152 -6.46837556705671  0.56013680638064
 6  4.71609567446745  2.54947700270027 -1.46898062456246
 6  4.18602423692369  3.70192435263526 -1.14436400770077
 6  2.83800255625563  3.26415811721172 -0.57993654065407
 6  6.17516552095210  2.26524839623962 -1.93678520732073
 6  4.56045683908391  5.15648716591659 -1.11126379827983
 6  6.86669422082208  3.19678610001000 -2.61678634673467
 1 -4.44019196989699  2.35041008590859  0.41526106810681
 1 -4.89689811891189 -0.84157914901490  0.91060230853085
 1 -4.87417753695370  0.35301953105311  2.26376851135114
 1 -2.82524993539354 -1.80696755425543 -0.12884527582758
 1 -3.35192088538854  0.75368844504450 -1.37393459075908
 1  0.30279686398640 -0.06414644114411  3.45248058025803
 1  1.42666111011101 -0.39674955895590  2.03142146254625
 1 -0.53058355085509 -3.06100406370637 -0.16486666826683
 1 -3.14929708170817  1.77650423572357  3.64617078467847
 1 -1.39449430883088  1.34020264776478  3.97265699029903
 1 -1.75809860916092  2.67357599339934  2.86391854585459
 1 -6.57756165126513  2.58099705180518  1.60183830263026
 1 -7.21538424672467  1.13623995239524  1.72411483408341
 1 -8.05378386968697  2.27377954805481  0.44957395459546
 1  0.85058724002400  2.00491309930993  1.40252025962596
 1  0.53268730883088  2.35029311711171  3.17260761526153
 1  1.28896451475148  0.16934332453245 -0.47571979807981
 1  2.21562982158216 -5.03144866806681 -1.44186224842484
 1  0.47456553695370 -4.37304721812181 -1.04317708740874
 1 -7.79204452945295  1.10653328732873 -3.18973988598860
 1  0.87862080218022 -4.51594589888989  1.46810649824982
 1  2.79067010991099 -5.24212069106911  0.92560649904990
 1  3.90176462026203 -4.04278180668067 -2.06995604820482
 1  5.10824294579458 -3.12553143394339 -1.29034395589559
 1  4.55997309360936 -2.63360541614161 -2.66939726202620
 1  4.93057586468647 -0.41850595939594 -1.75521220942094
 1 -9.16422594479448  0.46910780798080 -0.43149383558356
 1 -9.84657282238224  0.68191256965697 -2.25531527322732
 1  3.81944837623762  3.33536610521052  3.26439462166217
 1  6.55030003560356  1.34351855835584 -1.82357986118612
 1  4.48462947314732  5.58962205420542 -2.14762181718172
 1  3.91029903400340  5.85964303420342 -0.39293237643764
 1  5.70056182768277  5.31129758435844 -0.76615836393639
 1  0.77217475597560 -8.06415765826583  1.68235790889089
 1  7.76212749454945  2.97085439173917 -3.06636539873987
 1  6.42090353465347  4.05369294059406 -2.85722861196120

