%nproc=4
%Mem=2GB
# td=(NStates=1) B3LYP/SVP 

TD

0 1
 8 -5.45554091589159  0.23630774577458 -3.39728256105611
 8  2.99987681378138  3.06194191759176  3.07849411381138
 8  3.23235397319732  0.80315532463246  3.13990595179518
 8  1.48198233413341 -7.27047295169517  1.39221963176318
 8  0.15677242664266 -6.76471737573757 -0.38014194539454
 8  2.06469992929293  4.12038500550055 -0.19609134473447
 7 -2.42925352805281 -0.84716972357236  0.62617914501450
 7 -4.51508541244124  0.58647289588959 -1.27923985608561
 7  1.95429515661566 -0.66209819081908 -0.40014145224522
 7  2.74527579797980  1.86604505460546 -0.50314778977898
 6 -4.95957820412041  1.20721090049005 -0.03348289178918
 6 -4.40596520192019  0.41403782148215  1.26802886358636
 6 -3.03157661386139  0.12428731113111  1.38474381448145
 6 -2.08093313761376  0.70412255925593  2.11521231943194
 6 -0.77957184468447  0.10853229472947  1.84440320252025
 6 -0.96449082408241 -0.85400050915092  0.88460516881688
 6 -6.41426752415242  1.27143889978998 -0.16413482728273
 6  0.48677216051605  0.32743066616662  2.54590925972597
 6 -6.78754118581858  0.91666397159716 -1.41808266596660
 6 -0.21229697169717 -1.80842614371437  0.11015819151915
 6  1.12981589278928 -1.77201971457146 -0.30547934113411
 6 -5.55133319141914  0.59468916211621 -2.23030247104710
 6  1.94780064996500 -2.87975155115512 -0.82360767736774
 6 -2.33394013521352  1.72414414641464  3.25884452445245
 6 -7.37474946714671  1.75837137313731  0.91493210711071
 6  3.23259878817882 -2.45340736503650 -1.16164732183218
 6  1.14861163376338  1.77201034323432  2.47737295569557
 6  3.13606014701470 -0.99287872727273 -0.81530516151615
 6  1.41851738963896 -4.25973035263526 -0.82897137103710
 6 -8.12453917481748  0.62744730913091 -2.08541326332633
 6  1.78864055415542 -5.10080632303230  0.35904223072307
 6  4.33505122152215 -3.06526779257926 -1.82367436483648
 6  4.18580752295230 -0.02348068626863 -1.15308550365036
 6  2.59227184258426  1.73492766706671  2.92163206830683
 6  3.89361388728873  1.42546180248025 -1.00529630033003
 6 -9.30756892989299  0.44388223202320 -1.54077283988399
 6  1.12329963836384 -6.49403813331333  0.38343913661366
 6  4.88350241514151  2.47082913791379 -1.49654338083808
 6  4.24770040454045  3.66056021622162 -1.15222479377938
 6  2.93160191619162  3.30027172857286 -0.55524407140714
 6  6.20194819921992  2.24616648804881 -1.87856938573857
 6  4.61436222962296  5.10296181338134 -1.22951562346235
 6  6.96918446984698  3.15327174857486 -2.51501616971697
 1 -4.52546049674967  2.15784082898290 -0.05517597559756
 1 -4.91443987308731 -0.44545953705371  1.47992924122412
 1 -4.82892301150115  1.09409363846385  1.92710484498450
 1 -2.99294670507051 -1.31073793129313 -0.27521991329133
 1 -3.51138683198320  0.75376845304530 -1.65633283058306
 1  0.36880346464646 -0.02220224672467  3.61517684988499
 1  1.15981442544254 -0.22554243824382  2.05592391279128
 1 -0.64200469296930 -2.82240020332033  0.07564738313831
 1 -3.41325347734773  1.85880246554655  3.25593176077608
 1 -2.05243010241024  1.34982360986099  4.34408413301330
 1 -1.87126992629263  2.81241987778778  2.99512166616662
 1 -7.15245914101410  2.60548950105010  1.57529564836484
 1 -7.47298000630063  0.81142747114711  1.53386580918092
 1 -8.35568405970597  1.96223839393939  0.30958995619562
 1  0.83364554585459  2.35760836883688  1.50304031163116
 1  0.62904694479448  2.42517060486049  3.33155350985098
 1  1.66771238953895  0.28630502070207 -0.14446667276728
 1  1.80676893549355 -4.81790731393139 -1.61186924912491
 1  0.37592567296730 -4.45792570597060 -1.03181595129513
 1 -8.00065539053905  0.49584221822182 -3.13252416441644
 1  1.56517945804580 -4.55550985528553  1.43810349794979
 1  3.01754279717972 -5.20984746374637  0.33828776717672
 1  4.16017046084608 -4.15989351785178 -2.11259031163116
 1  5.34517663916392 -2.94563344414441 -1.33420834233423
 1  4.39555665196520 -2.65830788638864 -2.78729905220522
 1  5.11619442654265 -0.44177828662866 -1.75662235043504
 1 -9.43600312251225  0.70344124132413 -0.53882456865687
 1 -10.26441460656066  0.28428280668067 -2.04269401110111
 1  4.06030246164616  2.80203277187719  3.21839002120212
 1  6.60950595619562  1.30533473997400 -2.00691819501950
 1  4.61256226642664  5.44996808880888 -2.13976103110311
 1  4.19810781488149  5.81965903580358 -0.63229631283128
 1  5.74735650715072  5.36029248384838 -1.21483323142314
 1  0.97974551305130 -8.10352159465947  1.47322699579958
 1  7.96421770357036  2.73039034533453 -2.99352811501150
 1  6.92050349464947  4.18380595189519 -2.75543843294329

