%nproc=4
%Mem=2GB
# td=(NStates=1) B3LYP/SVP 

TD

0 1
 8 -5.47723308510851  0.09958407340734 -3.36055888868887
 8  2.85595242134213  3.04817054045405  3.47730399479948
 8  3.23005374317432  0.87603261236124  3.18326028722872
 8  1.67118125402540 -7.20297620202020  1.40601101090109
 8  0.04870161956196 -6.83959486348635 -0.17240117131713
 8  2.11847530683068  4.16078904590459 -0.08430016561656
 7 -2.40719132183218 -0.78886389298930  0.57342386948695
 7 -4.44205810971097  0.62673692229223 -1.36549848194819
 7  1.98399812691269 -0.64698667966797 -0.31017245534553
 7  2.74085535593559  1.93709215931593 -0.59379685468547
 6 -4.88537078337834  1.23908408780878 -0.06738628212821
 6 -4.50132473787379  0.31206762446245  1.14635669636964
 6 -2.99878333453345  0.06346122852285  1.28622396249625
 6 -2.01996704100410  0.67646979397940  2.15561635983598
 6 -0.75729961746175  0.08376981848185  1.77327608980898
 6 -0.97531190619062 -0.89716482558256  0.72394910321032
 6 -6.37987408480848  1.26084784068407 -0.17300571437144
 6  0.49891337463746  0.34227215031503  2.46825149394940
 6 -6.78899133083308  0.81223352855286 -1.32705356305631
 6 -0.16660240224022 -1.82428772987299  0.03556073177318
 6  1.11110402160216 -1.80293280588059 -0.40378917211721
 6 -5.49559761786179  0.47012670587059 -2.21153059385939
 6  1.97957382728273 -2.84178775477548 -0.88122343894389
 6 -2.25283202440244  1.80317204920492  3.14266290629063
 6 -7.33813580578058  1.79098463446345  0.85586620052005
 6  3.12550807910791 -2.38590061436144 -1.31482263936394
 6  1.03158993159316  1.73661680388039  2.44667988638864
 6  3.16921346234623 -1.03200263966397 -0.91514514551455
 6  1.48635417331733 -4.28363274287429 -0.96760523442344
 6 -8.15027174807481  0.75479004340434 -1.91778650065006
 6  1.76521821192119 -5.11119736213621  0.32645897239724
 6  4.40072778917892 -3.07082834863486 -1.84677667506751
 6  4.12464140634063  0.00750241204120 -1.31537173227323
 6  2.46881949734974  1.83304747904790  3.04141404650465
 6  3.79137366326633  1.35990524682468 -1.13542931363136
 6 -9.34917309030903  0.62527037083708 -1.36122488508851
 6  1.10415772417242 -6.44679340884088  0.45448624132413
 6  4.79546361126113  2.43169522452245 -1.54794852135214
 6  4.17437307180718  3.66548070827083 -1.12042161346135
 6  2.88435719171917  3.25596729812981 -0.53820236723672
 6  6.21314931933193  2.09151102250225 -2.05715724452445
 6  4.66240703410341  5.07352887008701 -1.22548522042204
 6  7.17210476187619  3.11189761116112 -2.33266793489349
 1 -4.56137408810881  2.14594963986399  0.13890343234323
 1 -4.97830625972597 -0.53108809990999  1.04084533283328
 1 -4.84572469166917  0.93745797489749  2.01329346384638
 1 -2.88847625802580 -1.21240809830983 -0.10650304160416
 1 -3.47326301960196  0.32026510271027 -1.76103330063006
 1  0.34611119541954  0.04983495699570  3.50146547874787
 1  1.42119056305631 -0.09330921492149  2.03988230863086
 1 -0.84696518901890 -2.64080204350435 -0.24487466906691
 1 -3.24029618161816  2.08122470777078  3.61181734933493
 1 -1.77831269066907  1.71266989448945  4.03917364196420
 1 -1.72339513881388  2.55872450825083  2.74144629862986
 1 -6.88641253635364  2.86129508160816  1.23238135693569
 1 -7.45093780208021  1.13265959435944  1.77358978157816
 1 -8.34362285358536  2.07747991809181  0.57408640584058
 1  1.20080226152615  2.27396000400040  1.30375038263826
 1  0.52247628772877  2.39605769356936  3.06948730323032
 1  1.68368398669867  0.50713710391039 -0.42494472057206
 1  1.99124738333833 -4.88959448264827 -1.85024308650865
 1  0.35001308170817 -4.42673258665867 -1.07673044274427
 1 -8.10144546954695  0.68729136313631 -2.95086599859986
 1  1.38483142324232 -4.46076038033803  1.19714940254025
 1  2.73826486938694 -5.24186066506651  0.58955289368937
 1  4.16514095789579 -3.98706623512351 -2.08661771437144
 1  5.19263138463846 -3.14423330413041 -0.88300322182218
 1  4.75775287158716 -2.54443649924992 -2.72987330963096
 1  5.10202300940094 -0.39649375817582 -1.94452114031403
 1 -9.42326184838484  0.64826572377238 -0.26076676287629
 1 -10.15536370147015  0.27688206660666 -2.19207894959496
 1  3.59732616401640  3.16535910451045  4.00521870407041
 1  6.35761076667667  1.01208541504150 -2.19301680488049
 1  4.65710672087209  5.58908200020002 -2.25693274827483
 1  3.90709871397140  5.61291836173617 -0.77736081928193
 1  5.45118689018902  5.32052850745074 -0.52466421452145
 1  1.05777331583158 -7.85701694419442  1.74082375547555
 1  8.00130141194119  2.74968227452745 -2.79257802000200
 1  7.10517196149615  4.12458002930293 -2.10776366546655

