%nproc=4
%Mem=2GB
# td=(NStates=1) B3LYP/SVP 

TD

0 1
 8 -5.22853821562156  0.07098121312131 -3.34462729552955
 8  2.88830565666567  3.18229395279528  3.18112437683768
 8  3.21202193999400  0.97141215031503  3.44082604380438
 8  1.51281541744174 -7.28418432283228  1.42032244204420
 8  0.64432118151815 -7.03373427742774 -0.51757568876888
 8  1.94124758405841  3.99192215921592 -0.04958669426943
 7 -2.31064166686669 -0.86844185078508  0.53734026112611
 7 -4.40895479937994  0.57088133673367 -1.27474940704070
 7  1.88611833893389 -0.68110009100910 -0.27798923702370
 7  2.68841011141114  1.91818026812681 -0.49115659065907
 6 -4.84210645694569  1.17701788118812 -0.02181172467247
 6 -4.47811241664166  0.34885130283028  1.20198225892589
 6 -3.00852430863086  0.04600948334834  1.31788712881288
 6 -2.01009605390539  0.63830597759776  2.19573037123712
 6 -0.72063595109511  0.10736217771777  1.83755251745175
 6 -0.99093346834683 -0.87377248634864  0.85195190349035
 6 -6.38377447484748  1.35386714261426 -0.19902831663166
 6  0.50410389368937  0.39584750785078  2.66289095789579
 6 -6.66427885958596  0.99918222342234 -1.45209606730673
 6 -0.16020176217622 -1.94935023612361  0.32158933463346
 6  1.07449036023602 -1.77691020362036 -0.25512430563056
 6 -5.38461651975197  0.50593028622862 -2.23597303810381
 6  1.87203307320732 -2.91840541654165 -0.81464678127813
 6 -2.36591333253325  1.61562329432943  3.27785642564256
 6 -7.17310930313031  2.01048658465847  0.86135674957496
 6  3.08648417671767 -2.41592361666167 -1.29703086018602
 6  1.11346811941194  1.76895003720372  2.53745896429643
 6  3.07452399339934 -0.97660710011001 -0.88133176417642
 6  1.40943648154815 -4.34335871547155 -0.89012748664866
 6 -7.94223094399440  0.87575213961396 -2.11410613261326
 6  1.71569325942594 -5.09250549294929  0.45359168566857
 6  4.27044476087609 -3.15993725952595 -1.95689768716872
 6  3.99912885508551  0.01177283908391 -1.31828202330233
 6  2.47710032543254  1.86330050435043  3.13911381648165
 6  3.79190371627163  1.40197945424542 -1.06207197789779
 6 -9.18434660766077  0.88592643644364 -1.61897065966597
 6  1.20310761916192 -6.51017974747475  0.36739753245325
 6  4.75766983188319  2.44197625262526 -1.47220094659466
 6  4.14585021952195  3.61584574477448 -1.00518008930893
 6  2.82279103510351  3.28334003540354 -0.47190573757376
 6  5.92545054945495  2.18791066246625 -2.26906843564356
 6  4.53376416981698  5.03226474367437 -1.25683835573557
 6  6.79515706710671  3.12161858325833 -2.81341600970097
 1 -4.25299325002500  2.08854389928993  0.19357889988999
 1 -5.07013544264426 -0.63148813991399  1.25824707300730
 1 -4.84719483868387  0.85809003810381  2.01406354085409
 1 -2.76769417981798 -1.44971182868287 -0.27510990229023
 1 -3.52491818511851  0.70131320752075 -1.49098629592959
 1  0.41572815711571  0.18215818931893  3.77930326252625
 1  1.23673211721172 -0.58232811681168  2.33798211861186
 1 -0.85650614311431 -2.76908487178718  0.21534135253525
 1 -3.35606775877588  1.45415200050005  3.50236640424042
 1 -1.75868072747275  1.63802242974297  4.16638636323632
 1 -2.03687648694869  2.66449508530853  2.88404055805581
 1 -6.77552144724473  2.92765171727173  1.26337445624562
 1 -7.52335504380438  1.22095842424242  1.71400382298230
 1 -8.04960345164516  2.41988415851585  0.31329032623262
 1  1.15644782608261  2.06361896989699  1.43740374797480
 1  0.29364340444044  2.56082417021702  2.84953530803080
 1  1.43605922422242  0.35465185538554 -0.07500972707271
 1  1.62661091969197 -4.89409493269327 -1.74926298849885
 1  0.34797287768777 -4.26222613601360 -1.23402617231723
 1 -7.92259758475848  0.38633126712671 -3.24351526352635
 1  1.25263820392039 -4.43498780308031  1.26261594919492
 1  2.63648469136914 -5.34710118911891  0.72925686408641
 1  4.17193163696370 -4.16319384788479 -2.19869892249225
 1  5.20303242474247 -3.24125300610061 -1.46428134963496
 1  4.61234833113311 -2.67105916151615 -2.94786510881088
 1  5.07481028812881 -0.26147025582558 -1.68380506870687
 1 -9.48627815001500  1.05043594079408 -0.55607629382938
 1 -9.95516368146815  0.56733111151115 -2.34456419811981
 1  3.78642507390739  3.23812638123812  3.52301048324832
 1  6.30591559715972  1.16102030853085 -2.49072657585759
 1  4.66261727192719  5.30303339533953 -2.47289434443444
 1  3.96745474957496  5.71271834173417 -0.73119620282028
 1  5.54517628912891  5.23391984658466 -0.87347909600960
 1  1.19649718821882 -8.15166640914091  1.45759543264326
 1  7.61817309910991  2.90858816511651 -3.50030879307931
 1  6.56774821912191  4.19942751405141 -2.68131102020202

