%nproc=4
%Mem=2GB
# td=(NStates=1) B3LYP/SVP 

TD

0 1
 8 -5.41084644644464  0.02199631463146 -3.31209404220422
 8  2.97778460456046  3.01286701010101  3.03085935033503
 8  3.15396613441344  0.82147715681568  3.47460942214221
 8  1.47710184608461 -7.14937084148415  1.54518492829283
 8  0.59223597299730 -7.08842974697470 -0.48937286848685
 8  1.95897935723572  3.97967093409341 -0.06327806340634
 7 -2.39803040574057 -0.72610761736174  0.51433796089609
 7 -4.43616752065207  0.52583683228323 -1.35431736383638
 7  1.96852657975798 -0.60017199819982 -0.33076451455146
 7  2.73202447284728  1.90224867496750 -0.56119359435944
 6 -4.81389363566357  1.15285546494649 -0.10509005250525
 6 -4.37922252765276  0.32388880658066  1.22871493219322
 6 -2.99729318551855  0.10054493689369  1.33676901700170
 6 -2.04073911821182  0.76598874587459  2.09564036223622
 6 -0.72454634213421  0.09969141064106  1.80386914911491
 6 -1.08348272327233 -0.72337744684468  0.70623733203320
 6 -6.33303940134013  1.37277903380338 -0.20104851865187
 6  0.55302878617862  0.33142106520652  2.59943461226123
 6 -6.77761019271927  0.81576388158816 -1.35535639333933
 6 -0.24087982998300 -1.80599590069007  0.08002517821782
 6  1.12770568176818 -1.70157266986699 -0.17067586078608
 6 -5.50543860196020  0.37332702590259 -2.19604904570457
 6  1.93162903280328 -2.88564214021402 -0.87843315991599
 6 -2.32376911811181  1.72891462346235  3.17015565556556
 6 -7.14746673887389  1.89091462746275  0.79707032093209
 6  3.10144567286729 -2.48541056535654 -1.24837599469947
 6  1.07678445104510  1.73420656285629  2.52279749814981
 6  3.10560710171017 -0.95923536293629 -0.98510214121412
 6  1.40964650255025 -4.34996937653765 -0.88263673757376
 6 -8.03298001890189  0.78960352475248 -1.98302302430243
 6  1.68206989708971 -5.07345358775878  0.38142446894689
 6  4.23771148754875 -3.10770203600360 -1.89941193859386
 6  4.00760970317032 -0.00576891509151 -1.25497569266927
 6  2.50194280968097  1.75450962526253  3.05106501160116
 6  3.85690021592159  1.35736499279928 -1.06025179587959
 6 -9.17597577057706  0.90752859665967 -1.38934769736974
 6  1.15002231063106 -6.53611234073407  0.38913970667067
 6  4.82498656355636  2.58620067506751 -1.44957868436844
 6  4.10656629112911  3.65758991919192 -1.07121669296930
 6  2.79620837683768  3.24971667306731 -0.49476802380238
 6  6.12839084348435  2.31100297169717 -1.97581911071107
 6  4.59671046444644  5.02600411761176 -1.13428610051005
 6  6.88366591799180  3.17594401580158 -2.67831249934994
 1 -4.38734668536854  2.17579262416242  0.15809535153515
 1 -4.88301673077308 -0.59976496759676  1.27748899719972
 1 -4.98094821402140  0.89045327442744  2.00909304380438
 1 -2.89886729712971 -1.27407426492649 -0.05429782108211
 1 -3.44563025632563  0.33518659485949 -1.50825802310231
 1  0.41523810811081 -0.02840286678668  3.61629696189619
 1  1.29567801180118 -0.20221010501050  1.86536485688569
 1 -0.79130962346235 -2.64163212651265 -0.22684286588659
 1 -3.37791994399440  1.83779036433643  3.47314348194819
 1 -1.65997085648565  1.49507813531353  3.92174189878988
 1 -2.01104390369037  2.73277191299130  2.75453760776078
 1 -6.85211910701070  2.73610256235624  1.43188130693069
 1 -7.45010771907191  1.06491281968197  1.29230165276528
 1 -8.08238672997300  2.37544971507151  0.12749174637464
 1  0.94753693499350  2.22998560656066  1.53626363396340
 1  0.41776581668167  2.50464855265527  2.92650300480048
 1  1.81804742304230  0.39360575077508 -0.29475170127013
 1  1.82276053465347 -4.90974649784978 -1.61988005020502
 1  0.22683076347635 -4.35980589398940 -1.12513528322832
 1 -7.87621294629463  0.52038467246725 -3.12028294029403
 1  0.94930787088709 -4.64541884618462  1.17949763736374
 1  2.66818786168617 -5.04560103910391  0.83707764616462
 1  4.07514195799580 -4.34245177367737 -1.98800785338534
 1  5.31137325882588 -2.90699958075808 -1.41774669616962
 1  4.20989808610861 -2.84072612821282 -3.17871819411941
 1  4.90916372347235 -0.32801691049105 -1.82893958215822
 1 -9.17160668286829  0.86347724492449 -0.43183386958696
 1 -10.14749291439144  0.73181756015602 -1.92175191689169
 1  4.08500493189319  3.06402897149715  3.23797197939794
 1  6.56721172677268  1.24565877237724 -1.53483098629863
 1  4.10094110431043  5.43228632063206 -2.13778083308331
 1  3.85763376747675  5.57625469536954 -0.46528961216122
 1  5.66258803030303  5.19025548014802 -1.10143189128913
 1  1.05757329582958 -8.07833907640764  1.72905257835783
 1  7.97305858765877  2.71937924422442 -2.84340310251025
 1  6.86902834713471  4.32453002430243 -2.93882677177718

