%nproc=4
%Mem=2GB
# td=(NStates=1) B3LYP/SVP 

TD

0 1
 8 -5.42997835963596  0.27930204520452 -3.39435226802680
 8  2.93982080818082  2.96029175257526  3.24058032243224
 8  3.16353709150915  0.76036104520452  3.34646660786079
 8  1.19448358425843 -6.93141904630463  1.71376178597860
 8  0.69696644604460 -6.94661556555656 -0.54994892609261
 8  2.19150260956096  4.10784375137514 -0.03004474007401
 7 -2.35459606230623 -0.87005201180118  0.55784231133113
 7 -4.40127403130313  0.66572082068207 -1.30719265136514
 7  1.91941166826683 -0.65400738173817 -0.33024446254625
 7  2.72943421382138  1.95936438653865 -0.57091456645665
 6 -4.82736498279828  1.02863304270427  0.04686514301430
 6 -4.45885049044904  0.14144056175618  1.25355741644164
 6 -2.99515297149715  0.04512939533953  1.31073641374137
 6 -2.05703074737474  0.60483263026303  2.18434923312331
 6 -0.75786967446745  0.02318375987599  1.84784354655466
 6 -1.01357573257326 -0.83127823692369  0.79767647594759
 6 -6.34602069946995  1.19086084198420 -0.14653306710671
 6  0.46847033033303  0.35586350945095  2.65054972377238
 6 -6.79247167886789  0.70990329552955 -1.44013487118712
 6 -0.18450419241924 -1.79274457555756  0.14449162486249
 6  1.07967087828783 -1.74181669426943 -0.30935972917292
 6 -5.43753181128113  0.50284997819782 -2.18281772257226
 6  1.85564143404340 -2.78349192519252 -0.99560487708771
 6 -2.35521226242624  1.66903863586359  3.17139577957796
 6 -7.17818981118112  1.64993052905291  0.98230884478448
 6  3.07128265656566 -2.31713373767377 -1.29296045314531
 6  1.07986475907591  1.72862600480048  2.57959317771777
 6  3.08186472747275 -0.89371881128113 -0.95837946894689
 6  1.42911844974497 -4.24845922552255 -0.89163763766377
 6 -8.01488820972097  0.76287085148515 -2.08955367736774
 6  1.54679636973697 -4.98562480488049  0.45296162266227
 6  4.32530024642464 -3.01264253005301 -1.79492148954895
 6  4.02868181038104 -0.00441878007801 -1.23415361046105
 6  2.47076969236924  1.71176535083508  3.12641254635464
 6  3.81839636553655  1.37256651295130 -1.06283205390539
 6 -9.23730190319032  0.84758260206021 -1.57782654525453
 6  1.13260056845685 -6.37108583808381  0.42998379107911
 6  4.83039710461046  2.47671972697270 -1.54762848934893
 6  4.39520515501550  3.65389955015502 -1.20258983028303
 6  2.90572932893289  3.27010871227123 -0.57383593059306
 6  6.14724272867287  2.15567743914391 -2.06176770557056
 6  4.69871066446645  5.08847036423642 -1.41265393729373
 6  6.89981753315331  3.08680510191019 -2.76060072817282
 1 -4.50139809050905  1.99372441734173  0.29920946294629
 1 -4.88522695179518 -0.88189318041804  0.81286253455346
 1 -4.93612373157316  0.45187941704170  2.10412254675468
 1 -2.79777718811881 -1.36627348484848 -0.11587397869787
 1 -3.43001869516952  0.81359443564356 -1.70136733403340
 1  0.24604118841884  0.10428040154015  3.70513584578458
 1  1.20656910091009 -0.36614649864987  2.25367368776878
 1 -0.62956344884488 -2.65931389468947 -0.08401858345835
 1 -3.46233838583858  1.79668625392539  3.25316148374837
 1 -2.08033289268927  1.23873250075007  4.06235596019602
 1 -1.99981278057806  2.66234487028703  2.84661681568157
 1 -6.54316821192119  2.16909586168617  1.73325144394439
 1 -7.74911762006201  0.66722305070507  1.27142956555656
 1 -7.99963845514552  2.28490066016602  0.61879087628763
 1  1.19203138443844  2.02562517051705  1.48476848444845
 1  0.39099313941394  2.38737682548255  3.21653200770077
 1  1.81134675297530  0.36003239343934 -0.14017624372437
 1  2.02207046564656 -4.73179870307031 -1.56933499569957
 1  0.17392547294729 -4.44848476187619 -1.34076684638464
 1 -7.93854917991799  0.74916755075508 -3.14846575857586
 1  1.02529546964696 -4.42319662396240  1.39106879447945
 1  2.48604964786479 -4.88153463246325  0.96072001040104
 1  4.17392183598360 -4.07955548404840 -1.86701575417542
 1  5.24322644414442 -2.83985286608661 -1.36682160366037
 1  4.65027212351235 -2.73755581118112 -2.87283760606061
 1  5.06609941704170 -0.37639174797480 -1.73717040524052
 1 -9.57170669286929  0.98231912911291 -0.57614830103010
 1 -10.12949111421142  0.89609398779878 -2.09003874557456
 1  3.86384281568157  3.10495306390639  3.42992117431743
 1  6.37550255585558  1.10176438293829 -1.70890839403940
 1  4.52305331553155  5.36197928992899 -2.51165822082208
 1  3.86466447054705  5.68066513641364 -0.88742182538254
 1  5.69632140364036  5.32551900650065 -1.06476822492249
 1  0.83000053855386 -7.91286252875287  1.63127280038004
 1  7.79816109790979  2.75628293459346 -3.25697445964596
 1  6.47330877517752  4.09421699299930 -2.82964585368537

