%nproc=4
%Mem=2GB
# td=(NStates=1) B3LYP/SVP 

TD

0 1
 8 -5.32997835963596  0.09615373037304 -3.35518835163516
 8  2.93176000210021  3.10098582198220  3.10658692309231
 8  3.15712645044504  0.87653266236624  3.26657861906191
 8  1.38949308520852 -7.17519342374237  1.67740815061506
 8  1.06221297069707 -7.31497240124012 -0.79765369656966
 8  2.14794825412541  4.03924689168917 -0.00186192179218
 7 -2.41867246994699 -0.78391339793979  0.55005153225323
 7 -4.49972387628763  0.68654290289029 -1.33334526662666
 7  1.87534726182618 -0.63845582658266 -0.36432787088709
 7  2.78102937333733  1.79713816391639 -0.48793626862686
 6 -4.89938218451845  1.34664484388439 -0.12184172767277
 6 -4.36539114451445  0.45462187988799  1.12301436213621
 6 -3.05423888008801  0.20702558495850  1.30448578867887
 6 -1.98134317861786  0.77262940994099  2.12337313551355
 6 -0.72804669216922  0.18194963646365  1.80320908310831
 6 -1.03091746674667 -0.80752586168617  0.82426913521352
 6 -6.47497359475948  1.31268302420242 -0.23989240304030
 6  0.55650913421342  0.36699462256226  2.55696036483648
 6 -6.72439487118712  0.74887719291929 -1.42320317801780
 6 -0.24066980898090 -1.88420372147215  0.13761093679368
 6  1.03729664086409 -1.79014152675268 -0.26155494869487
 6 -5.48432649074907  0.56639633283328 -2.17288672947295
 6  1.75960183008301 -2.80185376137614 -0.84521983858386
 6 -2.24919166036604  1.85180691269127  3.11105974597460
 6 -7.23927591979198  1.90414595059506  0.86815742964296
 6  3.08551407970797 -2.37134915921592 -1.15467662476248
 6  1.05926269886989  1.83225636783678  2.66573179157916
 6  3.04404094509451 -0.93499293869387 -0.92702633363336
 6  1.31373691159116 -4.28245262486249 -1.01364983888389
 6 -8.13299001990199  0.54655922032203 -1.96829155115512
 6  1.51285297539754 -5.07420366276628  0.50078640514051
 6  4.05308302470247 -3.05399666546655 -1.78307030443044
 6  4.04028297049705 -0.09588792699270 -1.26799699479948
 6  2.46365898129813  1.78792296659666  3.02135204030403
 6  3.85357988388839  1.40425968226823 -1.07892366306631
 6 -9.25913408640864  0.65241308510851 -1.34712347494749
 6  1.27936524492449 -6.53596232573257  0.35353614631463
 6  4.84426849174918  2.45730778577858 -1.41321504800480
 6  4.27329296379638  3.53286744694469 -1.05963553485349
 6  2.85242399839984  3.24324602600260 -0.49574812181218
 6  6.03652165656566  2.18004987638764 -2.21984351315131
 6  4.76094688808881  5.01804332153215 -1.07928059996000
 6  6.93718126952695  3.16557297869787 -2.63454812291229
 1 -4.60871882258226  2.51469651455146 -0.18949940794079
 1 -5.03781221032103 -0.59313430453045  1.37367861616162
 1 -4.81915203440344  1.22260648974897  1.75425756025603
 1 -2.72689009940994 -1.28085494299430 -0.20389278057806
 1 -3.47111280458046  0.80221329752975 -1.69664686198620
 1  0.31135772007201 -0.09110913741374  3.53944927712771
 1  1.36552499649965 -0.27827771177118  2.20294861526153
 1 -0.70722121462146 -2.84375233853385 -0.07611779337934
 1 -3.32164431643164  1.68444502980298  3.52828899649965
 1 -1.72305716511651  1.61957058455846  4.07557728232823
 1 -2.05736853615362  2.77624626042604  2.60326248024802
 1 -6.55522941804180  2.23802275437544  1.61225934473447
 1 -7.86580928922892  1.08124445284528  1.34031645424542
 1 -7.95126361766177  2.57620979107911  0.42557155435544
 1  0.57094927622762  2.55749835783578  1.70182018961896
 1  0.39278331843184  2.43779186698670  3.35720607510751
 1  1.81152677097710  0.38242463266327 -0.16050827692769
 1  1.90225848444844 -4.79410493369337 -1.83884194639464
 1  0.25946402680268 -4.42389230263026 -1.04455722542254
 1 -8.08638396339634  0.21201383538354 -3.10922183418342
 1  1.11114405450545 -4.73178748304831  1.42992267986799
 1  2.49136017891789 -4.96314279327933  0.83653759215922
 1  3.86239068286829 -3.95916344484448 -2.10846989958996
 1  4.92685480698070 -3.07090597139714 -1.19993491499150
 1  4.33772086838684 -2.59557161276128 -2.70679100140014
 1  5.02723553065307 -0.34399850865087 -1.72641933013301
 1 -9.37937745994600  0.90609150635064 -0.11590227642764
 1 -10.10031819691969  0.20038441684168 -1.88958870057006
 1  3.95652208360836  2.94558712731273  3.36179436163616
 1  6.30207521312131  1.11590579707971 -2.31948945214521
 1  4.60224123432343  5.24331742374237 -2.08243529852985
 1  3.87791579567957  5.76180325022502 -0.72247533073307
 1  5.77354912641264  4.94111056565657 -0.69091083918392
 1  1.55681321982198 -8.30511175367537  1.47065673877388
 1  7.76703798559856  2.97594490079008 -3.32229099129913
 1  6.82332377667767  4.21813938523852 -2.09451234033403

