%nproc=4
%Mem=2GB
# td=(NStates=1) B3LYP/SVP 

TD

0 1
 8 -5.24482984478448  0.28368248324833 -3.35601843464346
 8  2.75660248634863  3.14618034143414  3.29548581298130
 8  3.24296503430343  0.93027803690369  3.29835179637964
 8  1.54776891279128 -7.12179808420842  1.61617202700270
 8  0.47863461286129 -6.87699860386039 -0.32272620382038
 8  1.99882334163416  4.01833480048005  0.11446971137114
 7 -2.30722132483248 -0.96924193079308  0.50300682778278
 7 -4.36383028692869  0.49359360796080 -1.31024295639564
 7  1.88937866496650 -0.68828080908091 -0.40368180628063
 7  2.64773604400440  1.76103455355536 -0.45405288028803
 6 -4.75042728902890  0.98062824222422  0.04067452395240
 6 -4.39453405880588  0.22703912161216  1.22244430513051
 6 -2.93441689788979 -0.04452957055706  1.36661200130013
 6 -2.04746979127913  0.61410355735574  2.09781057925793
 6 -0.78723261076108  0.05296673817382  1.67076583878388
 6 -0.98226260126013 -0.95243035213521  0.73252996129613
 6 -6.26810290769077  1.33425518141814 -0.22620103390339
 6  0.53299678297830  0.31366929002900  2.45453012181218
 6 -6.71177360906091  0.92179448464846 -1.44526538423842
 6 -0.15505124712471 -1.88644394549455  0.18826600230023
 6  1.11969488068807 -1.82792530513051 -0.31461025422542
 6 -5.41612967106711  0.46281597479748 -2.09416885768577
 6  1.78865473537354 -2.92349592559256 -0.96722203880388
 6 -2.29670641184118  1.78800053205321  3.03130177017702
 6 -7.12099409160916  2.01285682168217  0.87150776467647
 6  3.12510803910391 -2.39599162346235 -1.41269242634263
 6  1.06295306790679  1.73002614481448  2.58524374277428
 6  3.02802934393439 -0.94535397479748 -1.16111974297430
 6  1.62402794069407 -4.44154853445345 -0.92599107300730
 6 -8.02709943084309  1.06265082948295 -2.08419314131413
 6  1.73783547364736 -5.07842408480848  0.43110943744374
 6  4.32901061746175 -3.04445571137114 -1.85030702810281
 6  4.05165410761076  0.05203686548655 -1.32587278237824
 6  2.43159577497750  1.74912908720872  3.12897280238024
 6  3.79115364126413  1.36203545984598 -1.05235100580058
 6 -9.25590376337634  1.03177102090209 -1.49042780538054
 6  1.10919822822282 -6.47222595209521  0.58743953665367
 6  4.74884894979498  2.54507656265627 -1.42343607010701
 6  4.06964259875988  3.64110827102710 -1.10575014631463
 6  2.75466422242224  3.17819952135214 -0.44351289828983
 6  6.07159516391639  2.31198306970697 -1.97816934573457
 6  4.34990578397840  4.99615113231323 -1.26906957885789
 6  6.85144269566957  3.09484590599060 -2.82810747884788
 1 -4.11870982168217  1.88218326322632  0.26283582558256
 1 -5.18078650775078 -0.52299729082908  1.45794704300430
 1 -4.71481160036004  0.72359658875888  2.08521065556556
 1 -2.85709311971197 -1.84092094959496  0.07156476517652
 1 -3.46555224852485  0.82483555975598 -1.80553775107511
 1  0.27256384068407 -0.19250927742774  3.61473680588059
 1  1.22731117511751 -0.32377226122612  2.12063038343834
 1 -0.41427191969197 -2.93183114641464  0.28983880228023
 1 -3.18851100310031  1.71325791109111  3.14006017361736
 1 -1.73434829422942  1.65055368286829  3.99873959855986
 1 -2.01535433473347  2.77294593039304  2.81085323932393
 1 -6.59001289638964  2.90885983808381  1.45105322412241
 1 -7.52165487378738  1.31073740214021  1.78848127072707
 1 -8.01774026532653  2.25500767086709  0.28998799599960
 1  1.18517069836984  2.06524913291329  1.57039704730473
 1  0.68702274237424  2.31780986878688  3.19287964246425
 1  1.61489710801080  0.18678506870687 -0.18102032813281
 1  2.19531779037904 -4.91627715091509 -1.76021408360836
 1  0.67684576497650 -4.90610052345235 -1.30467323702370
 1 -7.84680000500050  1.28100073407341 -3.24063497549755
 1  1.29687262736274 -4.50076438073807  1.21694138173817
 1  2.87418846174617 -5.27431391039104  0.58674261266127
 1  4.39372381618162 -4.23092062056206 -1.61126017861786
 1  5.13252537403740 -2.73312219301930 -1.19546446794679
 1  4.60326742304230 -2.83611566716672 -2.87226754905491
 1  4.82376518361836 -0.19308341714171 -2.01333802200220
 1 -9.49018854105411  0.91263216041604 -0.43881456765677
 1 -10.12145031013101  1.02443682208221 -2.06770651235124
 1  3.70675710711071  3.16213878247825  3.59625780798080
 1  6.44207921352135  1.25906011251125 -1.69754725792579
 1  3.98168917911791  5.53287637963796 -2.15482253725373
 1  3.81594959905991  5.81759882978298 -0.58596167936794
 1  5.59267103860386  5.28356481108111 -1.12796454455446
 1  1.32089962846285 -8.02556379887989  1.63699337243724
 1  7.67381866366637  2.71760906720672 -3.27093585578558
 1  6.47946939123912  4.21822939423942 -3.01132402150215

