%nproc=4
%Mem=2GB
# td=(NStates=1) B3LYP/SVP 

TD

0 1
 8 -5.46560192199220  0.18111222622262 -3.36420925372537
 8  2.96058288438844  3.04568029142914  3.17733399779978
 8  3.13396413421342  0.74370938003800  3.39134109530953
 8  1.61116525242524 -7.05481138553855  1.64738514831483
 8  0.75996274567457 -7.06277718171817 -0.44710864206421
 8  1.92597605690569  3.89771273827383 -0.15569730533053
 7 -2.32012261496150 -0.82627763436344  0.55881240834083
 7 -4.48110201410141  0.61835608420842 -1.26007793989399
 7  1.92333206030603 -0.75307728872887 -0.31271270937094
 7  2.73677494789479  1.77334578467847 -0.55551302630263
 6 -4.82281452775277  1.20508068746875 -0.00139968346835
 6 -4.44816942234223  0.27199361706171  1.18675073577358
 6 -2.92446590279028  0.07706258865887  1.31821716181618
 6 -2.00329537383738  0.62363451045105  2.20158095629563
 6 -0.75555944344434  0.05502694419442  1.78211697389739
 6 -1.01177555255526 -0.85528063716372  0.83404011231123
 6 -6.30141623902390  1.40858261416142 -0.20220863466347
 6  0.53738722202220  0.35846376947695  2.47432210101010
 6 -6.70460289198920  1.00793309850985 -1.41619247694770
 6 -0.25817155915592 -1.88579388048805  0.11330850655066
 6  1.05118803000300 -1.83016552915292 -0.27845663886389
 6 -5.52919097719772  0.53178287148715 -2.18625806660666
 6  1.83435930583058 -2.99313288928893 -0.91556687328733
 6 -2.30090683188319  1.80147187918792  3.13028166816682
 6 -7.15598759095910  1.96469200520052  0.94028464236424
 6  3.03584911321132 -2.44640666496650 -1.23653481058106
 6  1.09318609120912  1.76557970017002  2.50192541094109
 6  3.07002354335434 -1.00533997339734 -0.91489512051205
 6  1.44367990589059 -4.33088746834683 -0.92413088698870
 6 -7.99262598349835  0.92515708010801 -2.15683040504050
 6  1.73750544064406 -5.02302854525453  0.41625795229523
 6  4.21565928232823 -3.19815108090809 -1.85424742214221
 6  3.95505444764476 -0.01230956915692 -1.36491668676868
 6  2.50131274667467  1.79362353665367  3.05844574967497
 6  3.85200972687269  1.39334859115912 -1.17802357305731
 6 -9.22636080908091  0.77976582038204 -1.53446220882088
 6  1.26858416681668 -6.54121285078508  0.48551934463446
 6  4.76528059295930  2.48041009600960 -1.42757648414841
 6  4.17822345684568  3.62843700390039 -1.05123469476948
 6  2.72397115311531  3.18339004040404 -0.54376292329233
 6  6.04789279367937  2.30869274067407 -2.09129065786579
 6  4.51832262566257  5.07228874607461 -1.22243491539154
 6  6.93000055145515  3.35447186858686 -2.51612628072807
 1 -4.68430638133813  2.26488153305331  0.00368991099110
 1 -5.03238166726673 -0.63286827792779  0.95167641594159
 1 -4.93417353655366  0.91600582968297  2.02780491499150
 1 -2.80753816421642 -1.63758061556156  0.06457406610661
 1 -3.63022871617162  0.79993306950695 -1.65737293459346
 1  0.31381796609661 -0.17950797729773  3.42373770597060
 1  1.34763320732073 -0.30754063806381  2.00762908330833
 1 -0.75024551705171 -2.77684564786479 -0.26233641524152
 1 -3.34187633963396  1.95119170447045  3.29216538413841
 1 -1.67800265966597  1.64717334483448  4.09689941454145
 1 -1.73457625692569  2.75773440924092  2.81242339633963
 1 -6.54436833193319  2.85320427252725  1.41258937773777
 1 -7.47825053335333  1.30310663906391  1.90655307790779
 1 -8.02964145544554  2.67935010511051  0.59377837503750
 1  1.17529971127113  2.25803841184118  1.47654766236624
 1  0.37092113221322  2.29616770457046  3.11240159465947
 1  1.50806642494249  0.14973136333633 -0.30267249334933
 1  1.86317457605761 -4.88643416661666 -1.60891895409541
 1  0.48959704010401 -4.61961187458746 -1.20367313701370
 1 -7.98755408040804  0.72625525952595 -3.25099601160116
 1  1.04389732983298 -4.79101340564056  1.26710639823982
 1  2.88485952885289 -4.67144362336234  0.81349528792879
 1  4.07899234303430 -4.19742727122712 -1.93535258785879
 1  5.21156327782778 -2.93261214201420 -1.33632855435544
 1  4.59136623292329 -2.63062511811181 -2.68843916621662
 1  4.87008981608161 -0.37492160096010 -1.93569025722572
 1 -9.38976849904991  1.00775167236724 -0.44545523172317
 1 -10.06111427652765  0.83016739513951 -2.20232997469747
 1  3.78862529392939  2.91829439803980  3.80278846104610
 1  6.29992499809981  1.16632083858386 -2.34610211341134
 1  4.86882789298930  5.27458055005501 -2.29937699269927
 1  3.58229623372337  5.71610868076808 -0.76684976817682
 1  5.52637440894089  5.28537499209921 -0.40897264536454
 1  1.35541307980798 -7.95530677317732  1.53759343244324
 1  7.86428771057106  3.09308661496150 -3.02510127232723
 1  6.55407685198520  4.41370894219422 -2.33125601470147

