%nproc=4
%Mem=2GB
# td=(NStates=1) B3LYP/SVP 

TD

0 1
 8 -5.11547690949095  0.28099221422142 -3.36246907970797
 8  2.85287211331133  3.11978770217022  3.03990025442544
 8  3.20314105190519  0.91399640874087  3.30028198939894
 8  1.52723685958596 -7.27809371377138  1.54422483228323
 8  0.57877462686269 -7.02214311831183 -0.47175110631063
 8  1.86006946624662  3.97748071507151 -0.08717045264526
 7 -2.43593419611961 -0.88696370297030  0.51914844194419
 7 -4.37932183608361  0.62583683228323 -1.15858779087909
 7  1.90468019511951 -0.65049703070307 -0.32102354045405
 7  2.70268153855386  1.84663311341134 -0.29214668966897
 6 -4.78207045334533  1.19879005840584  0.08635909240924
 6 -4.44188879427943  0.31073749144914  1.24822688338834
 6 -3.01598505470547  0.07183206560656  1.31249658975898
 6 -2.04587963226323  0.64024617161716  2.14504530273027
 6 -0.73110699819982 -0.01346990549055  1.83032179437944
 6 -0.99114348934894 -0.86060116921692  0.83346005430543
 6 -6.27196329372937  1.39753150905091 -0.12132054585459
 6  0.49522300560056  0.26560448354835  2.68089275807581
 6 -6.57701013271327  0.97604991019102 -1.48783964166417
 6 -0.19043478547855 -1.85792109320932  0.21375855155516
 6  1.06050896209621 -1.83411592419242 -0.30519931313131
 6 -5.40676873497350  0.57728742194219 -2.18961840264026
 6  1.90511638153815 -2.93604718071807 -0.81711702830283
 6 -2.09370611181118  1.64214594659466  3.24761340134013
 6 -7.13948594079408  1.89055459145915  0.90911152505251
 6  3.11026655495550 -2.38803082738274 -1.25862701980198
 6  0.98938571117112  1.72338548074807  2.56728194659466
 6  3.10873741474147 -0.92279171857186 -0.99511314231423
 6  1.45883142104210 -4.37836221582158 -0.89422789668967
 6 -7.83932065296530  0.88357292169217 -2.24687940994099
 6  1.69442113221322 -5.14290053245325  0.49964629112911
 6  4.20204792119212 -3.18126939273927 -1.83446544394439
 6  3.94872381458146  0.05943760556056 -1.29989018411841
 6  2.40778339373937  1.82728690299030  3.03543344844484
 6  3.82393691959196  1.42339159545955 -0.96026179687969
 6 -9.05302347534754  0.87541538533853 -1.72419118171817
 6  1.20336764516452 -6.53521225072507  0.44736552925293
 6  4.60533459835984  2.54011606660666 -1.46592031853185
 6  4.05059069356936  3.69679383958396 -1.10990056135614
 6  2.76332508850885  3.22889459085909 -0.40846939393939
 6  5.89890789518952  2.19677154855486 -2.22255378417842
 6  4.42944373777378  5.12216373357336 -1.29410208210821
 6  6.75094264566457  3.04420084148415 -2.87646231433143
 1 -4.30935888658866  2.10248529342934  0.22883242524252
 1 -5.04958338743874 -0.67029202030203  0.93518476677668
 1 -4.76576669586959  0.65401963106311  2.07515965046505
 1 -2.71303871427143 -1.53588044554455 -0.06185857715772
 1 -3.45542123542354  0.81584466066607 -1.43633083038304
 1  0.42473905820582 -0.18720874737474  3.75232056425643
 1  1.27578602260226 -0.28997888188819  2.10331865226523
 1 -0.73596408890889 -2.89857782108211  0.01623144154415
 1 -3.12404455645565  2.11688827412741  3.65930209780978
 1 -1.56436129552955  1.40767939543954  4.17426715131513
 1 -1.70280307960796  2.76194483028303  3.17246940094009
 1 -6.69482337743774  2.83336228832883  1.32219033783378
 1 -7.29570227852785  1.00875720412041  1.70487290989099
 1 -8.29709820112011  2.00863303340334  0.45808480568057
 1  0.88696087738774  2.11339394739474  1.50106011361136
 1  0.37434147424742  2.19107719551955  3.35000535503550
 1  1.52686830513051  0.34938132833283 -0.35294752085208
 1  1.89855811441144 -4.85518104130413 -1.68363642584258
 1  0.28503658405841 -4.66655656905691 -1.20696346604660
 1 -7.72786811181118  1.04743737773777 -3.32435334733473
 1  1.20412335243524 -4.43274757905791  1.43634332193219
 1  2.85063610651065 -5.17933441244124  0.91179511791179
 1  4.00437488128813 -4.25579310781078 -2.17061611421142
 1  5.19469159065907 -2.91186006680668 -1.40918584008401
 1  4.21330842714271 -2.48202025762576 -2.78274859715972
 1  4.94178698579858 -0.20063417221722 -2.04676136433643
 1 -9.19397892009201  0.69006990419042 -0.60425111131113
 1 -9.99917808290829  1.20882526092609 -2.44249399109911
 1  3.73301973337334  3.18485105370537  3.41381956415642
 1  6.19207421302130  1.20394460096010 -2.07432493569357
 1  4.08976998719872  5.52638573057306 -2.37052410741074
 1  4.02039004310431  5.63989105900590 -0.43700678387839
 1  5.58428019951995  5.11970842544254 -1.31778352645265
 1  1.67320485898590 -8.11805304780478  1.21310098319832
 1  7.63716499829983  2.97188449474947 -3.33973273547355
 1  6.53952539683968  3.99849742104210 -2.72991588068807

