%nproc=4
%Mem=2GB
# td=(NStates=1) B3LYP/SVP 

TD

0 1
 8 -5.33162852465246  0.16028014301430 -3.23746657945795
 8  2.78566539263926  3.21127685108511  3.33252951735173
 8  3.12022276007601  0.98248325742574  3.50506246744674
 8  1.80468460436044 -7.28551445584558  1.47566797659766
 8  0.71659840924092 -7.05006591059106 -0.44408834003400
 8  2.10892435173517  4.05595856285629  0.05652391679168
 7 -2.40255085778578 -0.93608861546155  0.52505903300330
 7 -4.51036494039404  0.81105535413541 -1.22841477357736
 7  1.87399712681268 -0.80283226422642 -0.27955939403940
 7  2.69726099649965  1.85627407750775 -0.46250372537254
 6 -4.82303454975498  1.20734091349135  0.09481993849385
 6 -4.55385999139914  0.17840425812581  1.14645670637064
 6 -3.09620307650765 -0.04544966256626  1.20121546164616
 6 -2.03382842714271  0.63652579957996  2.03695449364937
 6 -0.81399528702870  0.13418485998600  1.84947370957096
 6 -0.99317369236924 -0.90316542564256  0.87607431573157
 6 -6.36133223062306  1.49459121502150 -0.17042545634563
 6  0.51144462776278  0.40187811091109  2.59271394019402
 6 -6.63623605530553  0.94310661586159 -1.42435329302930
 6 -0.19001474347435 -1.94057935903590  0.15998317401740
 6  1.14383729492949 -1.85795830843084 -0.27463625682568
 6 -5.42584064216422  0.59038873207321 -2.13309275007501
 6  1.84787065696570 -2.96197977397740 -0.93510882748275
 6 -2.37500424162416  1.53649538153815  3.09882852285229
 6 -7.27056904910491  2.13021855785579  0.93132374627463
 6  3.06289181748175 -2.44039606390639 -1.20713187028703
 6  1.11518829142914  1.81381452365237  2.56294151255126
 6  3.11641818281828 -1.06701614101410 -0.95760939193919
 6  1.38997453535354 -4.35441982158216 -0.93403187708771
 6 -7.98473519441944  0.83879844424442 -2.13720844284428
 6  1.85893758385839 -5.12782902530253  0.37774410091009
 6  4.28389610601060 -3.03668493429343 -1.87666966436644
 6  3.97644658685869 -0.05145348354835 -1.21148134323432
 6  2.40150276567657  1.86673084738474  3.17271717681768
 6  3.76308083398340  1.36474573087309 -1.04727049774977
 6 -9.28805697869787  1.06069391319132 -1.70845960856086
 6  1.37429473787379 -6.59743847334734  0.40927171987199
 6  4.72874693959396  2.42971502650265 -1.62514624112411
 6  4.12756839133913  3.58422258245825 -1.15133470477048
 6  2.83592234823482  3.30549225062506 -0.47114566156616
 6  5.97921592599260  2.16766863826383 -2.30530205900590
 6  4.62069286268627  4.99621113831383 -1.38247091899190
 6  6.79764731613161  3.11755817721772 -2.80652532063206
 1 -4.42112006270627  2.18771381628163  0.38537807980798
 1 -5.11849027812781 -0.81660665176518  1.11228247654765
 1 -4.74887500670067  0.52816704580458  1.99268140264026
 1 -2.87868527892789 -1.59231608910891 -0.17290968226823
 1 -3.54943063636364  0.90226330253025 -1.57809500680068
 1  0.25808239253925  0.38118809230923  3.63454878707871
 1  1.33397184118412 -0.41419130313031  2.26310463086309
 1 -0.85954644714471 -2.89376734003400 -0.04967514911491
 1 -3.35503765576558  1.79263584888489  3.45958212581258
 1 -1.66255111451145  1.43218184568457  4.00930065466547
 1 -1.97863066236624  2.57906654245425  2.71107326132613
 1 -6.66605050015001  2.66059501160116  1.65424354315432
 1 -7.76458916721672  1.28436476487649  1.48480090269027
 1 -8.08593708500850  2.72736490659066  0.44769376657666
 1  1.20978315961596  2.33641624962496  1.53247325492549
 1  0.32986702680268  2.64735282308231  2.77476783128313
 1  1.79066468476848  0.13378976917692 -0.01555378147815
 1  1.67280553915392 -4.89082460566057 -1.84066212841284
 1  0.33136121652165 -4.34069398279828 -0.78574134383438
 1 -7.80678600360036  0.57565019901990 -3.29385029702970
 1  1.67022996309631 -4.72802710701070  1.32542222982298
 1  3.02258330123012 -5.19218569756976  0.30634457285729
 1  4.13238768256826 -4.09409693819382 -1.76003505610561
 1  5.25320744224423 -2.95218409920992 -1.24796971847185
 1  4.58500559685969 -2.67121917751775 -2.85879620192019
 1  4.86776958405841 -0.25261937073707 -1.73538022622262
 1 -9.32124164636464  1.34101499869987 -0.58848953515351
 1 -10.19537770287029  0.98148252665267 -2.39046878857886
 1  3.65410184158416  3.18426099469947  3.82066024822482
 1  6.34710971657166  1.20905511201120 -2.24094159735974
 1  4.60124113431343  5.04978807080708 -2.49286634163416
 1  3.96588459255926  5.75794286418642 -0.97211029422942
 1  5.64594636613661  5.23556001060106 -0.98935068316832
 1  1.53294083258326 -8.22878412091209  1.56202587568757
 1  7.83937521932193  2.87304461076108 -3.11404016621662
 1  6.38822026632663  4.19069664096410 -2.92042493159316

