%nproc=4
%Mem=2GB
# td=(NStates=1) B3LYP/SVP 

TD

0 1
 8 -5.35506086788679  0.38026214121412 -3.29195202800280
 8  2.92281910801080  3.10870659405941  2.86058232263226
 8  3.16396713451345  0.92478748784878  3.29154111531153
 8  1.45973010891089 -7.05889179357936  1.59226963676368
 8  0.62878962836284 -6.97252815681568 -0.48387231843184
 8  1.89959341864186  4.10686365336534 -0.27766950255025
 7 -2.36919752245225 -0.89565457205721  0.50296682378238
 7 -4.46006991089109  0.65009925852585 -1.22242417451745
 7  1.82120184728473 -0.76365834683468 -0.36036747484748
 7  2.74343561396140  1.88317676777678 -0.51224869986999
 6 -4.94276652295230  1.26705688508851  0.09418987548755
 6 -4.49999460486049  0.09899631733173  1.17589965066507
 6 -3.00288374457446 -0.00206532413241  1.40195553565357
 6 -2.06998204250425  0.57736988398840  2.20142094029403
 6 -0.76279016651665  0.01378281978198  1.79582834503450
 6 -0.95333970897090 -0.85344045314531  0.68425513381338
 6 -6.43222932033203  1.26219797569757 -0.10181859565957
 6  0.45074855815582  0.23203112621262  2.54696936573657
 6 -6.72749518121812  0.94269657485749 -1.30017087478748
 6 -0.14756049804981 -2.00407570867087  0.09838701440144
 6  1.15853876507651 -1.86212872547255 -0.34907370057006
 6 -5.48090614871487  0.62340203340334 -2.05941538233823
 6  1.99142501240124 -2.91958553455346 -0.76386170277028
 6 -2.29866660786079  1.70690242224222  3.23709234923492
 6 -7.26096808900890  1.89231476747675  0.86326694059406
 6  3.13555908420842 -2.44122614691469 -1.14142529962996
 6  1.08075484808481  1.69353249544954  2.36874209260926
 6  3.00933747474748 -1.01704114351435 -0.93449708070807
 6  1.45768130603060 -4.37528190779078 -0.87762623652365
 6 -8.00388710961096  0.75221978637864 -2.04847956995700
 6  1.64283597369737 -5.07461370377038  0.45696202270227
 6  4.36423413981398 -3.07656892269227 -1.88190018741874
 6  4.03063200540054  0.04661632343234 -1.24593478857886
 6  2.51918453385339  1.84728890319032  2.88617852295229
 6  3.84771929782978  1.41898115441544 -1.02448821952195
 6 -9.27088526152615  0.94541238503850 -1.63595235783578
 6  1.27166447484748 -6.51771050055006  0.37555834853485
 6  4.80154421932193  2.44695675067507 -1.41838556505651
 6  4.15655128962896  3.67215137533753 -1.12261183248325
 6  2.79827858385839  3.26020772217222 -0.63138168516852
 6  6.11280928532853  2.23557542894289 -1.91100262906291
 6  4.55394618801880  5.06843836103610 -1.18539121102110
 6  7.06130368176818  3.08164458585859 -2.43954862296230
 1 -4.40359831053105  2.00861590649065  0.43299284128413
 1 -4.97850627972797 -0.85405039613961  1.08688993729373
 1 -4.86362648184818  0.61945617471747  2.15917805230523
 1 -2.86674408480848 -1.37231408890889 -0.17691008230823
 1 -3.60066575987599  0.58939201540154 -1.58847604490449
 1  0.30872745704570 -0.08866889338934  3.62911824402440
 1  1.40241868586859 -0.37385726972697  2.27516583698370
 1 -0.84716520902090 -2.80352831613161 -0.20104028562856
 1 -3.43054520652065  1.95409199449945  3.33762993059306
 1 -1.83311817121712  1.32651127862786  4.18906863146315
 1 -1.66304910421042  2.73655229102910  2.98408056205621
 1 -6.71312520762076  2.57893684578458  1.53847196599660
 1 -7.50349305760576  0.91437776617662  1.66517894049405
 1 -7.98603709500950  2.44507667776778  0.42882187938794
 1  1.22966514781478  1.79877248524853  1.28125813341334
 1  0.47465150525053  2.58979706750675  2.71926228072807
 1  1.64398001630163  0.35259164936494 -0.26507873397340
 1  2.13967222582258 -4.87092261546155 -1.62191025322532
 1  0.29902798319832 -4.25688560196020 -1.18565133483348
 1 -7.79072439743974  0.57331996599660 -3.17746865886589
 1  0.90485342544254 -4.57040134443444  1.32329201680168
 1  2.70575161806181 -4.79209568856886  1.00930486888689
 1  4.15852029582958 -4.10791832033203 -2.26378543114311
 1  5.39691181268127 -3.14679356015602 -1.41909683118312
 1  4.51575867216722 -2.51700375597560 -2.85132545484548
 1  4.89777258435844 -0.61553566236624 -1.57468415661566
 1 -9.55717523972397  1.24962585978598 -0.45788647484748
 1 -10.10536870197020  0.91274565296530 -2.31512125382538
 1  3.86933336473647  3.35855842444244  3.23883206540654
 1  6.62608761436144  1.10729493599360 -2.00434793799380
 1  4.75732674287429  5.51247433943394 -2.25199225422542
 1  3.62008001210121  5.66812388228823 -0.70456353955396
 1  5.56508828032803  5.33578003260326 -0.60537228532853
 1  1.07405494399440 -8.09405064756475  1.62337201030103
 1  7.94573585538554  2.66926423272327 -2.56026478867887
 1  6.81120256455646  4.26987455875588 -2.42698558765877

