%nproc=4
%Mem=2GB
# td=(NStates=1) B3LYP/SVP 

TD

0 1
 8 -5.22446780858086  0.44388850385039 -3.32151498429843
 8  2.55763258935894  3.16748247164716  3.41597786218622
 8  3.35705644344434  1.05937094619462  2.69899186038604
 8  2.13187732363236 -7.38641454585458  1.42720313011301
 8  0.50838758815882 -7.08574947894790 -0.25054898609861
 8  1.87961142044204  4.01079404640464 -0.06601833743374
 7 -2.43783438613861 -0.92758776537654  0.56737326442644
 7 -4.35309921382138  0.87245149374938 -1.17201913401340
 7  1.84404413151315 -0.65373735473547 -0.40180161826183
 7  2.56517778817882  1.78560701080108 -0.52188966396640
 6 -4.85819806610661  1.32852303170317  0.11554201070107
 6 -4.45309991539154  0.34365078277828  1.26486854755476
 6 -3.01329478567857  0.03257814021402  1.39622496259626
 6 -1.99228427272727  0.62140428742874  2.10651144934493
 6 -0.73919780728073  0.08099954145415  1.74149291149115
 6 -1.01000537553755 -0.87021213031303  0.71300800910091
 6 -6.40922702010201  1.43638539443944 -0.15722413621362
 6  0.57307079037904  0.32591051415142  2.52847751655166
 6 -6.71889432113211  0.98163046824682 -1.47779863756376
 6 -0.30980672267227 -1.87476277737774  0.06996417211721
 6  1.10179309050905 -1.80123263586359 -0.29433822702270
 6 -5.35984404250425  0.78812850605060 -2.20183962476248
 6  1.87185305520552 -2.91656523252325 -0.78403371997200
 6 -2.17804454565457  1.66341807380738  3.18692733273327
 6 -7.30800279247925  1.92576811281128  0.89478009190919
 6  3.04938046634663 -2.50537256155616 -1.14482563966397
 6  0.97825459805981  1.77059020122012  2.49196441484148
 6  3.06183272427243 -1.02295173457346 -0.90762439343934
 6  1.38855439333933 -4.35500988058806 -0.79174764866487
 6 -7.98206492739274  0.90991555595560 -2.21356607860786
 6  1.79182087218722 -5.14289053145315  0.44912123862386
 6  4.21345906230623 -3.25603686948695 -1.67888988638864
 6  3.96651559375938 -0.08243658185819 -1.34232442754275
 6  2.41961457685769  1.86332050635063  2.87801770687069
 6  3.70640516641664  1.30096935323532 -1.14838060876088
 6 -9.17691586458646  0.68631647544754 -1.57717648024802
 6  1.41591890029003 -6.64306303580358  0.41651244394439
 6  4.67713177807781  2.37624967996800 -1.56598032453245
 6  4.16149178367837  3.50240440064006 -1.05511508280828
 6  2.83463221922192  3.23129483088309 -0.53191173817382
 6  6.01018902330233  2.20451232263226 -2.25136666546655
 6  4.64146493989399  4.99379089628963 -1.07419009090909
 6  6.94325187658766  3.21299772117212 -2.43648831693169
 1 -4.47263521422142  2.40517556245625  0.24278382038204
 1 -5.07208563766377 -0.58930392149215  1.07465871417142
 1 -4.91212133133313  0.91903613271327  2.24437657215722
 1 -2.92326973737374 -1.28521537903790 -0.28376076737674
 1 -3.50143583688369  0.69273234943494 -1.37265446274627
 1  0.31720830513051 -0.10714074057406  3.46005133733373
 1  1.35906435043504 -0.41771165516552  2.14022234263426
 1 -0.91935242774277 -2.79172713601360 -0.05267544914491
 1 -3.40086223822382  1.80626721202120  3.38313448104810
 1 -1.76316117551755  1.17613624112411  4.08791851645165
 1 -1.81822462176218  2.62779141494149  3.00630278427843
 1 -6.73537743284328  2.55340429252925  1.72931104990499
 1 -7.69668237653765  1.03126945534554  1.50219264186419
 1 -8.16315480678068  2.67518968906891  0.47864686188619
 1  1.06411859315932  2.36672928092809  1.61561156875688
 1  0.41754579467947  2.53830191799180  3.14586494099410
 1  1.60383600190019  0.42252864306431 -0.27347957405741
 1  1.90490874947495 -4.99405492869287 -1.51887995019502
 1  0.30374845524552 -4.43556346974697 -0.90752352205220
 1 -7.91158648364836  1.13549618361836 -3.39901081308131
 1  1.17186012611261 -4.74591889618962  1.32896258385839
 1  2.68470951385138 -5.02102858185819  0.67582152055205
 1  3.78640308410841 -4.30559808830883 -2.08564761736174
 1  4.83169529102910 -3.53168204900490 -0.81550647214721
 1  4.85251234753475 -2.89072112771277 -2.42559288158816
 1  4.87842064916492 -0.16367047584759 -1.76446313451345
 1 -9.20763028522852  0.40384128132813 -0.48184887108711
 1 -10.24265243034303  0.72678705710571 -2.12226196789679
 1  3.46198262966297  3.18573114171417  3.57362554475447
 1  6.23286829242924  1.12392659915992 -2.46160366356636
 1  4.65819682988299  5.27369046104610 -2.09580663566357
 1  3.71168917301730  5.46516358625863 -0.73756683988399
 1  5.57962973447345  5.19024547914792 -0.39793154125413
 1  1.70978851735174 -8.19608085058506  1.30675034813481
 1  7.97952923472347  2.86970427672767 -2.96762552475247
 1  6.92415385968597  4.22967053835384 -1.96167905700570

