%nproc=4
%Mem=2GB
# td=(NStates=1) B3LYP/SVP 

TD

0 1
 8 -5.27324268606861  0.39805392039204 -3.41570440324032
 8  2.88744557065707  3.19365508890889  3.20811707610761
 8  3.36707744554455  1.01191620072007  3.11962392359236
 8  1.59671380728073 -7.34334023842384  1.38554896469647
 8 -0.01166441704170 -6.74084498849885 -0.26604053525353
 8  2.08550200950095  4.06225919291929  0.02113037743774
 7 -2.35511611431143 -0.93844885148515  0.62556908400840
 7 -4.39208311221122  0.59524377297730 -1.20652258435844
 7  1.89176890399040 -0.62560454145415 -0.36683812191219
 7  2.72497376777678  1.90682913301330 -0.54286176117612
 6 -4.88468071437144  1.06659683908391  0.10152060856086
 6 -4.50291489688969  0.23344976267627  1.25852791349135
 6 -3.02344580078008 -0.02366748434843  1.30794613471347
 6 -2.07897294159416  0.64268641564156  2.10433123132313
 6 -0.77589147664766  0.08952039353935  1.68367712991299
 6 -1.05002937793779 -0.93998910801080  0.79748645694569
 6 -6.36183228062806  1.07818957485749 -0.16958537233723
 6  0.47856133943394  0.40595851895190  2.45204987378738
 6 -6.74007643934393  0.83811611681168 -1.38560941864186
 6 -0.16925266726673 -1.85999130023002  0.15861303700370
 6  1.16409932113211 -1.73166567916792 -0.32008080128013
 6 -5.43209126722672  0.57155684888489 -2.22115155595560
 6  1.93872974287429 -2.82715629162916 -0.80485580218022
 6 -2.26570331153115  1.63784551655166  3.18697733773377
 6 -7.27146913911391  1.55463099909991  1.03589420332033
 6  3.12715824412441 -2.35332735703570 -1.20036119321932
 6  1.10354712731273  1.78291143334333  2.37170238863886
 6  3.16477301830183 -0.97947738713871 -0.94846847784778
 6  1.50628616651665 -4.20325470507051 -0.79630810471047
 6 -8.00270699159916  0.88615317971797 -2.18460318231823
 6  1.81483317341734 -5.14959120152015  0.45959228572857
 6  4.27269498589859 -3.13750501630163 -1.84027602500250
 6  4.10829977217722  0.06858852065206 -1.34511470657066
 6  2.49917253265327  1.88675284958496  2.99588949404940
 6  3.82958748464846  1.42301155745575 -1.11977774847485
 6 -9.25387356035604  0.75835367916792 -1.62283104570457
 6  1.00525783418342 -6.53107183668367  0.49461025372537
 6  4.79092315721572  2.53796585158516 -1.43608733523352
 6  4.15627126162616  3.64222838303830 -1.17085665696570
 6  2.82690144614461  3.21510321172117 -0.51537008400840
 6  6.14291229562956  2.22310418181818 -1.94250577937794
 6  4.73417421082108  5.06598811601160 -1.12678535043504
 6  6.82825037643764  3.03407982938294 -2.71615628372837
 1 -4.54194214491449  2.05534057895790  0.33230277227723
 1 -5.09324775387539 -0.73985897699770  0.88942019031903
 1 -4.75386550575058  0.83763799289929  2.25698783328333
 1 -2.78321573197320 -1.67369422692269 -0.08639103040304
 1 -3.35525121842184  0.40497357355736 -1.44800199749975
 1  0.18999558385839  0.12886285978598  3.61936726892689
 1  1.23065150915091 -0.27038692269227  2.17820614101410
 1 -0.75167566006601 -2.75471343464346 -0.00730091169117
 1 -3.44460661266127  1.65149173447345  3.31808797639764
 1 -1.80152501190119  1.65197382488249  4.14740446504651
 1 -2.06659945924592  2.67352598839884  2.73937609160916
 1 -6.81879577467747  2.30540949304930  1.55274339313931
 1 -7.43343605190519  0.89361568996900  1.69315173777378
 1 -8.14964345564557  2.01076324642464  0.67303630083008
 1  1.13586576787679  2.20688329632963  1.47208721632163
 1  0.64250829092909  2.47953604140414  2.83868422292229
 1  1.91366698499850  0.49966635683568 -0.10501272737274
 1  1.87135539413941 -4.67992351555156 -1.76452451465146
 1  0.46246432683268 -4.31133104650465 -0.93819658935894
 1 -7.87263258825883  1.18368100210021 -3.27264817681768
 1  1.32472541264126 -4.67017132143214  1.19565925352535
 1  2.97336837973797 -5.40240671967197  0.57905184358436
 1  4.10836528032803 -4.20292782128213 -1.82816186878688
 1  5.18619074057406 -2.79572845364536 -1.41166608810881
 1  4.21213831013101 -2.88915097069707 -2.87393771607161
 1  5.08228103520352 -0.38694280308031 -1.60599728792879
 1 -9.47987750995100  0.51718261546155 -0.69016970317032
 1 -10.16507467256726  0.88655303370337 -2.26357609930993
 1  3.78814524592459  3.02096466506651  3.56457463966397
 1  6.51145615121512  1.25037924442444 -1.56809431263126
 1  4.49711072127213  5.54161725372537 -2.22358941394139
 1  4.32032003610361  5.88473554345435 -0.35934901810181
 1  5.74186595809581  4.95951240584058 -1.08263001110111
 1  0.78915645414542 -8.13432467496750  1.49968964206421
 1  7.83868515031503  2.72220952725273 -3.02589135133513
 1  6.51420286458646  4.01502907420742 -2.80809369846985

