%nproc=4
%Mem=2GB
# td=(NStates=1) B3LYP/SVP 

TD

0 1
 8 -5.41438680048005  0.22914702970297 -3.37096992979298
 8  2.96855368146815  2.91684740814081  3.37402366676668
 8  3.24211494929493  0.64549955905591  3.12210417161716
 8  1.72781691759176 -7.31205711011101  1.47550796059606
 8  0.31946869626963 -6.80350125412541 -0.22628655985599
 8  1.97155061436144  4.05908887588759 -0.02141387698770
 7 -2.34274487718772 -0.78114312091209  0.53288981608161
 7 -4.49976388028803  0.54809905850585 -1.30783271537154
 7  1.82288201530153 -0.68139012001200 -0.41665310341034
 7  2.63425469586959  1.89108755885589 -0.63576105110511
 6 -4.83524577087709  1.18410859025903 -0.12122166566657
 6 -4.40545515091509  0.45856227392739  1.18429048974897
 6 -2.97803125932593  0.24329921232123  1.25098043814381
 6 -1.96310135443544  0.80085223222322  2.08361916011601
 6 -0.73779766726673  0.17176861836184  1.73861262346235
 6 -1.01058543354335 -0.86897200630063  0.70357706600660
 6 -6.37591368876888  1.26762851875188 -0.16359477327733
 6  0.63515699899990  0.20573849694970  2.45717038583858
 6 -6.82067449914991  0.87773007820782 -1.43307416511651
 6 -0.19414515651565 -1.88317361846185  0.16319349504951
 6  1.04093700490049 -1.79818233083308 -0.28912770597060
 6 -5.58278633673367  0.54173386658666 -2.17696713751375
 6  1.82639850975097 -2.95689926592659 -0.81600691729173
 6 -2.14088082928293  1.91286301830183  3.00096873687369
 6 -7.21693368556856  1.94126966296630  0.83655426932693
 6  3.14133966226623 -2.44804682898290 -1.17630878797880
 6  1.14752152475248  1.64988813101310  2.40184540294029
 6  3.05820236123612 -0.97310675007501 -0.96609024002400
 6  1.37606314421442 -4.37179155875588 -0.79271774567457
 6 -8.12285900680068  0.70920548494849 -2.03459818181818
 6  1.93337502760276 -5.09708595099510  0.44302062856286
 6  4.33488120452045 -3.10653191899190 -1.77835983338334
 6  4.06626556875688  0.01318298009801 -1.25201539663966
 6  2.56372898829883  1.62736691099110  3.01078098319832
 6  3.77104163006301  1.39398865516552 -1.10674644534453
 6 -9.29518769176918  0.73186102990299 -1.45519428202820
 6  1.26020332873287 -6.53839256875688  0.59047984068407
 6  4.71033509840984  2.50382243724372 -1.49867359385939
 6  4.15607124162416  3.63383754395440 -1.14132370367037
 6  2.74870362636264  3.28841054245425 -0.47545609260926
 6  6.05516352075208  2.30307217861786 -2.01136266506651
 6  4.53286407980798  5.11508302550255 -1.03627629952995
 6  6.93897144854485  3.20742716411641 -2.43291795989599
 1 -4.12097004770477  2.03165821072107  0.10332987498750
 1 -4.85655408450845 -0.58443343444344  1.00840208850885
 1 -4.67538765796580  1.05392962206221  1.93159529402940
 1 -2.70934834523452 -1.07408426592659 -0.42569496079608
 1 -3.48766445974598  0.81115419161916 -1.64068126542654
 1  0.47185376967697 -0.09433946044604  3.55599093129313
 1  1.36252469646965 -0.62200208420842  1.77747606800680
 1 -0.67540803330333 -2.78659662296230 -0.03652383398340
 1 -3.22474462646265  1.89442602790279  3.35598176577658
 1 -1.33594845424542  2.06176480398040  3.86580630523052
 1 -2.12508530783078  3.01020965676568  2.42862501650165
 1 -6.58201209630963  2.62089104120412  1.50097821662166
 1 -7.28906161446145  1.20602693109311  1.60156257885789
 1 -8.20731922322232  2.51190336043604  0.35083408060806
 1  1.22574475577558  1.95209781778178  1.37830783838384
 1  0.49498353845385  2.14963305110511  3.20373072757276
 1  1.59456507480748  0.35444183438344 -0.26906913301330
 1  1.79285754435444 -4.86800232343234 -1.57123518571857
 1  0.41388946934693 -4.38807872127213 -1.11287405710571
 1 -7.99371469646965  0.39235186918692 -3.19227013901390
 1  1.52336527662766 -4.59241354565457  1.35482517011701
 1  2.95499654255426 -4.97849432843284  0.61394533293329
 1  4.08857330113011 -3.94019154765477 -2.24821387398740
 1  5.25183730523052 -3.33271215201520 -1.03164808630863
 1  4.67048414471447 -2.33510556615662 -2.54473479577958
 1  4.85873868096810 -0.32797690649065 -1.83318000620062
 1 -9.40070959315932  0.72758365556556 -0.48937962416242
 1 -10.21498966406641  0.70769514791479 -2.14886462816282
 1  3.97968439983998  2.90832340094009  3.44640282248225
 1  6.28710371597160  1.30132433893389 -2.37213471667167
 1  4.49576058625863  5.54798789078908 -2.17309436443644
 1  3.75695369946995  5.57404447434743 -0.50344342754275
 1  5.43092486398640  5.42738919351935 -0.77106885498550
 1  1.17454499299930 -8.05561680418042  1.40858053115312
 1  7.82840412221222  2.75240254655466 -2.83724248644864
 1  6.61416286058606  4.38551612291229 -2.17668055715572

