%nproc=4
%Mem=2GB
# td=(NStates=1) B3LYP/SVP 

TD

0 1
 8 -5.52854821662166  0.28339245424542 -3.39136196899690
 8  2.75318214431443  3.02009773317332  3.29562582698270
 8  3.20102083988399  0.77862287138714  3.22192415361536
 8  1.76781091699170 -7.05376128052805  1.58697910771077
 8  0.22061881128113 -6.85449635363536 -0.17144107530753
 8  2.07407086638664  4.05305827282728  0.02859112351235
 7 -2.34339494219422 -0.87262226882688  0.34655118221822
 7 -4.38659256315632  0.76888113671367 -1.37374930703070
 7  1.89765949304930 -0.68458043904390 -0.36735817391739
 7  2.62804407480748  1.88897734783478 -0.56484395939594
 6 -4.75892813911391  1.23205338473847 -0.07263680718072
 6 -4.46162076747675  0.28596501420142  1.06495855655566
 6 -3.03729718591859  0.03191807420742  1.28554389448945
 6 -2.01661670597060  0.58377052405241  2.13567436563656
 6 -0.70746463396340  0.02529397089709  1.73515227742774
 6 -0.99894426942694 -0.83931904100410  0.71237794609461
 6 -6.27536363376338  1.43594535043504 -0.19930834463446
 6  0.62373585688569  0.22238016111611  2.52480714951495
 6 -6.75870830253025  0.93988629382938 -1.43591444914491
 6 -0.21165690769077 -1.85099040014001  0.11669884558456
 6  1.01656456765677 -1.78043055565557 -0.36261505470547
 6 -5.43457151525153  0.59856955015502 -2.24982442324232
 6  1.87976384628463 -2.92016559255926 -0.85978129472947
 6 -2.20814755595560  1.46921865386539  3.25340398039804
 6 -7.11387337953795  1.71697723372337  0.96162677657766
 6  3.20371589988999 -2.50838286258626 -1.20505166226623
 6  1.09292606520652  1.60634377657766  2.41567678607861
 6  3.12128866986699 -1.05755519491949 -0.94167779877988
 6  1.49510504840484 -4.33915829542954 -0.80073854775478
 6 -7.94510123102310  0.78852341674167 -2.01234595659566
 6  1.68593028312831 -4.98725496789679  0.53190951745175
 6  4.41017873427343 -3.17678894469447 -1.82309430683068
 6  4.00144908710871  0.00882254405441 -1.36883707880788
 6  2.44481709710971  1.69959413371337  3.08800870597060
 6  3.77419194509451  1.42806206250625 -1.09363513421342
 6 -9.15479365236524  0.87276512031203 -1.42574133673367
 6  1.11887919631963 -6.38368709820982  0.53209400210021
 6  4.82021608650865  2.48773082808281 -1.40533425992599
 6  4.12102773727373  3.66459061926193 -1.17735730703070
 6  2.80864962096210  3.26808851025103 -0.54448299529953
 6  6.10552855725573  2.27467933933393 -2.07441897069707
 6  4.44460525392539  5.11569308650865 -1.21795446734673
 6  6.84439199059906  3.20792721412141 -2.65995066316632
 1 -4.07212516321632  2.08298334323432  0.06300584258426
 1 -5.15226365546555 -0.57439243034303  1.13800504880488
 1 -4.65043516271627  0.87507173627363  2.11325345984598
 1 -2.72234964536454 -1.43948080558056 -0.39746213751375
 1 -3.39346503980398  0.71798487468747 -1.76302349964996
 1  0.06193277757776 -0.07647767426743  3.48207353955396
 1  1.46785522952295 -0.41930181418142  2.11206952735273
 1 -0.72189268176818 -2.71745970927093 -0.05480566216622
 1 -3.38564071607161  1.56587317261726  3.31955812341234
 1 -1.48143300270027  1.31638026552655  4.11168089268927
 1 -2.03814661396140  2.50418905470547  2.81067322132213
 1 -6.58308220332033  2.15702465456546  1.86371449024902
 1 -7.31420412871287  0.65358168656866  1.21312373497350
 1 -8.14808329962996  2.46683885398540  0.57121611881188
 1  1.14942712401240  2.08088069606961  1.37641764936494
 1  0.54011805190519  2.49569765756576  2.89256961146115
 1  1.58490410871087  0.40476686688669 -0.38441066716672
 1  1.91117937653765 -4.84871039423942 -1.64045210741074
 1  0.31157923832383 -4.39816973037304 -0.98341111081108
 1 -8.07256258125813  0.71122375637564 -3.16357726972697
 1  1.32869580968097 -4.39679398369837  1.46586627422742
 1  2.90269131203120 -5.25189166816682  0.61368530693069
 1  4.07939238303830 -4.08485601410141 -1.97683673627363
 1  5.31933405490549 -3.12760164096410 -1.36187110861086
 1  4.61025812211221 -2.87292934853485 -2.82360268256826
 1  4.79606241334133 -0.29223333213321 -1.94308099629963
 1 -9.29640916311631  0.94253515071507 -0.30065075127513
 1 -10.16133429852985  0.66181055945595 -1.85321506320632
 1  3.57977440884088  2.91951452005201  3.84602278447845
 1  6.57074207980798  1.22048625512551 -1.80771827502750
 1  4.66733774397440  5.42244533653365 -2.25173222822282
 1  3.73037104120412  5.91315838573857 -0.88206128932893
 1  5.36576834833483  5.37972442704270 -0.51229297739774
 1  1.27758529702970 -7.86721796429643  1.72714238733873
 1  7.85844712651265  3.13011031733173 -3.11447020922092
 1  6.60394183848385  4.30248782008201 -2.82398528762876

