%nproc=4
%Mem=2GB
# td=(NStates=1) B3LYP/SVP 

TD

0 1
 8 -5.61662702450245  0.40979509450945 -3.38212104490449
 8  2.99227605370537  3.33468919231923  2.99278554295430
 8  3.18938967676768  0.98549355845585  3.38760072127213
 8  1.49328346424642 -7.11810771517152  1.52496290609061
 8  0.35968271767177 -6.90173107710771 -0.41332526372637
 8  2.24761822112211  4.08341130813081 -0.05356709230923
 7 -2.31122172487249 -0.93529853645365  0.50283681078108
 7 -4.45978988288829  0.76650089868987 -1.32844477657766
 7  1.92786251335134 -0.63484546554655 -0.38185962406241
 7  2.78951022142214  1.82601105120512 -0.48171564656466
 6 -5.00176242254225  1.18763894329433 -0.01040058355836
 6 -4.57235184058406  0.23321973967397  1.15799786048605
 6 -3.00312376857686  0.02422730513051  1.22482782288229
 6 -2.09360440474047  0.72718486548655  2.06295709390939
 6 -0.76923081058106  0.12193363486349  1.73966272847285
 6 -0.96460083508351 -0.92765787488749  0.82075878417842
 6 -6.43055915331533  1.21948370427043 -0.17768618241824
 6  0.46440992429243  0.39630755385539  2.46105077387739
 6 -6.81736416811681  0.75588789398940 -1.32012286998700
 6 -0.13048879087909 -1.90316561766177  0.09812698839884
 6  1.09266217741774 -1.70217272987299 -0.45560435363536
 6 -5.63162122022202  0.55700539373937 -2.21791123192319
 6  1.87284315421542 -2.90751432743274 -0.85515083168317
 6 -2.40079682088209  1.74727645964596  3.00973961396140
 6 -7.25509750195020  1.55102063806381  1.07310792469247
 6  3.11356688498850 -2.35381740604060 -1.23185434253425
 6  1.06211298389839  1.77463060526053  2.48722394079408
 6  3.13157969896990 -0.98879831923192 -1.00638426942694
 6  1.43025856375638 -4.32765714531453 -0.89782825672567
 6 -8.15473219411941  0.68209277367737 -1.98024274627463
 6  1.77583927402740 -5.05822206460646  0.39013534003400
 6  4.27681539793979 -3.07718898469847 -1.84170616801680
 6  4.13552249444944  0.06382804460446 -1.28478867396740
 6  2.48285090049005  1.88844301860186  2.98791869696970
 6  3.93548807470747  1.35160441674167 -1.01193696439644
 6 -9.37513568656866  0.53710155395540 -1.41799056165617
 6  1.12262957135714 -6.48665739523952  0.43893468616862
 6  4.93696776167617  2.41171322632263 -1.28327205370537
 6  4.34419005350535  3.61793595379538 -1.02409198049805
 6  2.97980673667367  3.24018571997200 -0.40027857485749
 6  6.13669167356736  2.12908477987799 -2.03003453225323
 6  4.82015280868087  5.02108362556256 -1.14047671957196
 6  7.02113966536654  3.05067148854886 -2.57348201630163
 1 -4.55145309600960  2.18871391629163  0.22933247524753
 1 -5.13153158225823 -0.62111710281028  1.05657690599060
 1 -4.77384750395040  1.07909213831383  2.11803393789379
 1 -2.77388479887989 -1.77996485398540 -0.03608599989999
 1 -3.63161885518552  0.69798287448745 -1.68350554785479
 1  0.30824740904090  0.20370034353435  3.32532786498650
 1  1.26362480648065 -0.43638352235224  2.13424174457446
 1 -0.72922341484148 -2.73630159345935 -0.19771995359536
 1 -3.51330348234824  1.83387997329733  3.06945311291129
 1 -2.08442330173017  1.50114874237424  4.04298402300230
 1 -1.93240603990399  2.68903753955396  2.67987014101410
 1 -6.66215011011101  2.32575152725273  1.69060717951795
 1 -7.54560726902690  0.60695702410241  1.66243866646665
 1 -8.18827731903190  2.21507367746775  0.88332732993299
 1  1.04257643894389  2.52081468946895  1.60569057665767
 1  0.43923796389639  2.46506459425943  3.16491684618462
 1  1.82236785508551  0.40357674787479 -0.39909213531353
 1  1.78068632723272 -4.89996551975198 -1.61976003820382
 1  0.35331341174117 -4.35199511291129 -1.05039780948095
 1 -8.22108743374337  0.48846148014801 -3.15819673167317
 1  1.37465040514051 -4.49014331863186  1.35290497809781
 1  2.71393243614361 -5.27924440344034  0.46735067346735
 1  4.17224166796680 -4.07376490499050 -2.20210926352635
 1  5.09315143664366 -3.16873575437544 -1.08341326282628
 1  4.66378347464746 -2.63031508710871 -2.81704202650265
 1  5.09961276837684 -0.23130723952395 -1.56441312951295
 1 -9.62029155135514  0.85324622182218 -0.38219890609061
 1 -10.06039420452045  0.45197957635764 -2.30336007770777
 1  3.88639507090709  3.27958052665267  3.29734791699170
 1  6.56466147174717  1.01816602310231 -2.13752125532553
 1  5.12392340254025  5.31070416241624 -2.24475153015302
 1  4.05605360946095  5.78058512841284 -0.74869795299530
 1  6.03889566106611  5.14623107770777 -0.63086483458346
 1  0.89741728022802 -7.93480472297230  1.42024169726973
 1  7.88333961576158  2.63933123942394 -3.06453521572157
 1  6.91954339863986  4.15378294959496 -2.30193308240824

