%nproc=4
%Mem=2GB
# td=(NStates=1) B3LYP/SVP 

TD

0 1
 8 -5.37574293609361  0.45973008800880 -3.30972380518052
 8  2.81445827192719  3.10385610901090  3.30673693809381
 8  3.20365110291029  0.86177118621862  3.17745970717072
 8  1.92352648854885 -7.29376528092809  1.40459086888689
 8  0.45700244964496 -7.06277718171817 -0.24425835703570
 8  1.92958641794179  4.00762372937294 -0.14928666426643
 7 -2.46463706640664 -0.86768177477748  0.55842236933693
 7 -4.35847975187519  0.84023827242724 -1.27910984308431
 7  1.84886461356136 -0.70927290829083 -0.25960739883988
 7  2.72018328872887  1.80028847894789 -0.47306478147815
 6 -4.95404765106511  1.35443562296230 -0.00719026252625
 6 -4.51725633103310  0.32458887658766  1.16134819551955
 6 -2.94482793899390  0.09967484988499  1.32278761886189
 6 -2.01748679297930  0.62864501150115  2.07160795899590
 6 -0.71875576307631  0.09335077657766  1.79530829302930
 6 -1.03405778077808 -0.79123423252325  0.72091880018002
 6 -6.39707580498050  1.36142789868987 -0.17503591739174
 6  0.55567905120512  0.26512443554355  2.47896256505651
 6 -6.76495892759276  1.06677898309831 -1.40113097079708
 6 -0.28144388638864 -1.90245554665467  0.13869104480448
 6  1.03193610481048 -1.81851436403640 -0.25734452765277
 6 -5.45069312741274  0.84228392159216 -2.19183862466247
 6  1.90106597649765 -2.88646222222222 -0.72422773937394
 6 -2.32335907710771  1.63139487148715  3.10811945194519
 6 -7.21840383258326  1.89603513951395  0.95699631353135
 6  3.04246977527753 -2.33699572387239 -1.27914907200720
 6  1.01611838443844  1.76418956115612  2.59299451785179
 6  3.12211875287529 -1.01563100250025 -0.86438006900690
 6  1.48590412831283 -4.29882426202620 -0.88844731863186
 6 -7.98477519841984  0.81064562896290 -2.15362008400840
 6  2.00414210431043 -5.18081432383238  0.36786311281128
 6  4.23288100450045 -3.18508977477748 -1.74827682508251
 6  4.06318526072607 -0.00340867906791 -1.15098529362936
 6  2.39015163056306  1.79811398569857  3.09360926602660
 6  3.84794932083208  1.35026428272827 -1.00501627232723
 6 -9.17500567356736  0.59432727652765 -1.59861862446245
 6  1.33302061046105 -6.53819254875488  0.43671446414641
 6  4.74956902180218  2.48217027202720 -1.42653638013801
 6  4.13534916941694  3.59832399259926 -1.22156172747275
 6  2.82259101510151  3.17254895629563 -0.57878642564256
 6  6.00432843724372  2.14630650205021 -2.04409593839384
 6  4.63034382778278  5.08335985318532 -1.36573924582458
 6  6.78433598499850  3.02762918431843 -2.79453412151215
 1 -4.49257720842084  2.33480852575258  0.39517905990599
 1 -5.08424685378538 -0.61942693379338  0.93068431673167
 1 -4.97718783798380  0.63856808590859  2.14418655315532
 1 -2.87256466686669 -1.26459331683168 -0.15374776607661
 1 -3.45955164846485  1.39342241844184 -1.66518371567157
 1  0.65116170047005 -0.31876190269027  3.47861319351935
 1  1.18521696569657 -0.45672555655566  1.91659998039804
 1 -0.75284577707771 -3.06182414571457 -0.15124530613061
 1 -3.36718887088709  1.51216780208021  3.50099626722672
 1 -1.82011687108711  1.43637226472647  4.22279200380038
 1 -1.94853765306531  2.65279391519152  2.79055120912091
 1 -6.79857375247525  2.90211916401640  1.46785490429043
 1 -7.52482519081908  0.90398672707271  1.77201962456246
 1 -8.24810330163016  1.91020319041904  0.69045804300430
 1  1.11703388468847  2.00177278527853  1.51815182278228
 1  0.29386342644264  2.33799188698870  2.97199755425543
 1  1.62571819011901  0.23076946714671 -0.20715294139414
 1  1.80065832443244 -4.76987251045105 -1.80043810601060
 1  0.61451953235324 -4.18481839523952 -1.09031180088009
 1 -7.94386971197120  0.82013464746475 -3.18916982898290
 1  1.71437437753775 -4.47602190649065  1.36101578917892
 1  3.01484252715272 -5.40821730073007  0.49858379677968
 1  4.01270571437144 -4.16129365786579 -2.08187724032403
 1  5.12101422292229 -3.12355123592359 -1.07508242974297
 1  4.59576667296730 -2.76215827142714 -2.70573089538954
 1  5.29263207030703 -0.38448255705571 -1.29587627582758
 1 -9.43121264346435  0.56954785198520 -0.51446213241324
 1 -10.13006117121712  0.38921329972997 -2.25956569826983
 1  3.76985341674167  2.82157472607261  3.60679886208621
 1  6.50814582018202  1.14981918841884 -1.94145164836484
 1  4.57009802000200  5.47794088608861 -2.38662571757176
 1  3.81998000210021  5.63531060096010 -0.75522860606061
 1  5.48506027752775  5.59101555615562 -0.68213996209621
 1  1.33152069056906 -8.11432267476748  1.35983565666567
 1  7.72796407820782  2.95339264556456 -3.14489325152515
 1  6.50269171347135  4.00994856615662 -3.02359524862486

