%nproc=4
%Mem=2GB
# td=(NStates=1) B3LYP/SVP 

TD

0 1
 8 -5.43663902570257  0.16934104910491 -3.32139497229723
 8  2.83704053015302  3.10995671907191  3.23134939933993
 8  3.08668940674067  0.87261227032703  3.42955491669167
 8  1.66339047494749 -7.19583548794879  1.44222463226323
 8  0.27029377877788 -6.94527543154315 -0.33277720892089
 8  1.96813027232723  3.87795076207621  0.04828309270927
 7 -2.36064666736674 -0.86538154475448  0.46710323742374
 7 -4.38316222012201  0.81134538313831 -1.34007593969397
 7  1.89767949504950 -0.69094107510751 -0.39695113321332
 7  2.69762103250325  1.75941439153915 -0.58591606660666
 6 -4.77493974027403  1.40649082848285 -0.04198374187419
 6 -4.35608021342134  0.42492891059106  1.00731279197920
 6 -2.95265872207221  0.13971885428543  1.21373671377138
 6 -1.90835587988799  0.65840798779878  2.13212401060106
 6 -0.67240112761276 -0.02161071957196  1.70556931913191
 6 -0.92909728472847 -0.87484259335934  0.63568027632763
 6 -6.32415851325133  1.31308306420642 -0.12004041784178
 6  0.57869135243524  0.21882980608061  2.53706837563756
 6 -6.67724015571557  0.78670097529753 -1.35721657935794
 6 -0.12195793779378 -1.85022032313231  0.04877205290529
 6  1.08439135033503 -1.78172068466847 -0.29488828202820
 6 -5.45696375447545  0.59027872107211 -2.18195763656366
 6  1.99517538743874 -2.93179675567557 -0.76267158375838
 6 -2.29161590279028  1.62228396039604  3.21885052505251
 6 -7.17816980918092  1.89880541654165  0.86843745764576
 6  3.25876140444044 -2.39841186548655 -1.12269342644264
 6  1.02060883348335  1.70900404260426  2.48990420882088
 6  3.13186972797280 -1.05672511191119 -0.81458508950895
 6  1.44964050195020 -4.31669604920492 -0.84812328622862
 6 -8.02076879777978  0.76693125752575 -2.06858158015802
 6  1.66067775787579 -5.09744598699870  0.35941226772677
 6  4.41067878427843 -3.07688895469547 -1.71178317571757
 6  4.09480842304230 -0.06814515271527 -1.21504169926993
 6  2.38954156955696  1.81574574887489  3.17053695879588
 6  3.86122064796480  1.40371962826283 -1.02568833953395
 6 -9.20701887488749  0.91460930473047 -1.45633439603960
 6  1.20845815421542 -6.50853958345835  0.36380717341734
 6  4.73230729562956  2.55410746574657 -1.46949067556756
 6  4.05986162066207  3.65398955915592 -1.09776934823482
 6  2.74778353435344  3.16441814321432 -0.53705225222522
 6  5.96870487488749  2.35676754815482 -2.14934646344634
 6  4.38444923832383  5.02955447264727 -1.34764743664366
 6  6.80474802620262  3.19115553695370 -2.81276594469447
 1 -4.53619156985699  2.28861390629063  0.16844638663866
 1 -5.01174960406041 -0.40534552565256  0.81344259255926
 1 -4.54531465066507  0.82230645974597  2.00347248174818
 1 -2.96209361976198 -1.04543140064006 -0.30444283558356
 1 -3.48753444674467  0.88503157935794 -1.46845404270427
 1  0.34024060836084  0.02591256475648  3.61787711991199
 1  1.43829227322732 -0.41644152815282  2.06111443184318
 1 -0.48900939343934 -2.85978394169417  0.02236205460546
 1 -3.39443159515952  1.54511109640964  3.55057122472247
 1 -1.59869472887289  1.68430705820582  4.15795552015202
 1 -2.38658145744574  2.65198383418342  2.90536269026903
 1 -6.44584847994799  2.63327227932793  1.40689880868087
 1 -7.32421512981298  1.05186151455146  1.66843926652665
 1 -8.13186167746775  2.40642281238124  0.44929392659266
 1  1.25768795009501  2.01631423942394  1.48784879247925
 1  0.35163920402040  2.43998208600860  3.14910526502650
 1  1.63843946224622  0.15920231043104 -0.00071229732973
 1  1.81320957955796 -4.78333385658566 -1.74411247344734
 1  0.37257533793379 -4.36204611801180 -1.09917268696870
 1 -7.96106143114311  0.40823345734573 -3.03885479747975
 1  1.33783672377238 -4.51793609790979  1.21704139173917
 1  2.75818686158616 -5.17264374337434  0.58294223262326
 1  4.43546799059906 -4.21810933943394 -1.72846189878988
 1  5.31514363586359 -3.09460834163416 -0.87142206370637
 1  4.56950404670467 -2.64197625322532 -2.69807012931293
 1  5.00624343144314 -0.55359946874687 -1.28717540574057
 1 -9.13328285048505  1.07187808500850 -0.29992067826783
 1 -10.28216638173817  0.84495887428743 -1.89326906860686
 1  3.84010044144414  3.09439200780078  3.37289547174718
 1  6.37803280888089  1.27180138663866 -2.18591609480948
 1  4.06866787698770  5.20560365236524 -2.49253630863086
 1  3.72075007910791  5.41523859375938 -0.50633371657166
 1  5.43684545604560  5.17508396299630 -1.15632738083808
 1  1.34797233573357 -8.06361760426043  1.51248092119212
 1  7.75907718951895  2.87826513281328 -3.13013177537754
 1  6.57680912521252  4.04088165946595 -2.98171106020602

