%nproc=4
%Mem=2GB
# td=(NStates=1) B3LYP/SVP 

TD

0 1
 8 -5.25349071087109  0.23592770777078 -3.22867570037004
 8  2.77007383348335  3.15957168056806  3.16714297869787
 8  3.19699043684368  0.89676468556856  3.36140810201020
 8  1.62760689658966 -7.35940184458446  1.52757316711671
 8  0.66121287068707 -7.20954185818582 -0.34604853605361
 8  1.94181764106411  3.99575254225423 -0.05370710631063
 7 -2.45073567626763 -0.91854686128613  0.53963049014902
 7 -4.44199810371037  0.86866111471147 -1.26606853895390
 7  1.82038176527653 -0.67394937593759 -0.48334977307731
 7  2.71566283668367  1.83530198029803 -0.53049052405241
 6 -4.86300854715472  1.28161834123412 -0.03952349584959
 6 -4.41608621402140  0.39367578527853  1.15343740444044
 6 -3.02549600580058  0.09603448584858  1.24799013911391
 6 -2.01866691099110  0.70177232423242  2.04214501270127
 6 -0.74083797129713  0.00897233873387  1.78623738593859
 6 -0.94547892289229 -0.94742985208521  0.75850255855586
 6 -6.41156725412541  1.34825658155816 -0.16332474627463
 6  0.50461394469447  0.26469439253925  2.47612228102810
 6 -6.71373380508051  0.98777108230823 -1.35844670237024
 6 -0.21053679567957 -2.04251955305531  0.24222139783978
 6  1.04643755495550 -1.85494800740074 -0.28242703590359
 6 -5.43245130323032  0.71623131633163 -2.10789022982298
 6  1.95583145304530 -3.01419499549955 -0.78944426102610
 6 -2.23008975017502  1.76089782178218  3.11577021702170
 6 -7.31076306850685  1.99976551255126  0.87399801370137
 6  3.09988551685169 -2.47569959425943 -1.21207236433643
 6  1.06515328792879  1.67006014821482  2.46998221662166
 6  3.06346288728873 -0.95055449484948 -0.98162179317932
 6  1.54109964786479 -4.50138451805181 -0.84269274317432
 6 -7.99744646554656  0.94947951235124 -2.11295601760176
 6  1.86002769286929 -5.16631287368737  0.41611793829383
 6  4.31779949634964 -3.09309057485749 -1.88695069246925
 6  4.03303224542454 -0.06053439163916 -1.25957615271527
 6  2.51925454085409  1.81167534183418  3.03582348744874
 6  3.82804733063306  1.32931218751875 -1.04224999569957
 6 -9.21887006000600  1.00822866666667 -1.55908467106711
 6  1.33785109350935 -6.67697642714271  0.45626641934193
 6  4.82160622552255  2.50329238423842 -1.40197392389239
 6  4.04697033153315  3.64416857705771 -1.19004857615762
 6  2.70964972097210  3.13445514691469 -0.52941148814881
 6  6.04374237863786  2.36615848724872 -2.08752028082808
 6  4.34614540794079  5.09606112331233 -1.31395406730673
 6  6.79539709110911  3.35701212261226 -2.61139580768077
 1 -4.44054200490049  2.41245629052905  0.16197573957396
 1 -5.02804123322332 -0.54585957705771  1.08092934123412
 1 -4.85543566276628  0.86892112121212  2.01101323582358
 1 -2.77144455485549 -1.35274213171317 -0.35067745904591
 1 -3.30336602990299  0.70268334453445 -1.53061025832583
 1  0.35314189848985 -0.02135216171617  3.53536886908691
 1  1.27601604560456 -0.40358024202420  2.15164348474848
 1 -0.62035252775278 -3.04587255055506  0.14418423682368
 1 -3.06637878987899  1.71061764706471  3.90423659125913
 1 -1.33566842624262  1.76956558405841  3.80260998559856
 1 -1.95670847014701  2.80682931873187  2.84868702270227
 1 -6.77140103520352  2.77427637973797  1.48814693349335
 1 -7.50802351065107  1.15148147654765  1.65875829842984
 1 -8.12453094439444  2.25983815391539  0.38580757795780
 1  1.38548072937294  2.00195280328033  1.49911991959196
 1  0.32980702080208  2.46151423922392  2.85054540904090
 1  1.41875749404941  0.16104249444945 -0.40027225332533
 1  2.19768802740274 -4.97759328252825 -1.69372743494349
 1  0.43414149454945 -4.80146005940594 -0.91721449114911
 1 -8.00466579157916  0.72929556355636 -3.06136704870487
 1  1.37311025112511 -4.79306361066107  1.30230991859186
 1  2.89083012591259 -5.13503998299830  0.64592853125312
 1  4.30365480928093 -4.23436096459646 -1.72392144474447
 1  5.20875299679968 -2.50284916571657 -1.39090401190119
 1  4.37893498979898 -2.79738179377938 -2.85740606290629
 1  4.88075088218822 -0.33478758755876 -1.57258394659466
 1 -9.18072759495950  0.89623052025203 -0.37581826802680
 1 -10.22010017511751  1.30485486388639 -2.17602734443444
 1  3.69839627102710  3.12378494709471  3.63374155635564
 1  6.39418442404240  1.37640184668467 -2.03319082228223
 1  4.64467547774778  5.46250934293429 -2.33153020802080
 1  3.67121512561256  5.77056412631263 -0.65908899209921
 1  5.39861163266327  5.27504395899590 -0.66697844594459
 1  1.17589512801280 -8.25491673417342  1.45106477957796
 1  7.70494177597760  3.05455276157616 -2.93045180738074
 1  6.44194563886389  4.32505007630763 -2.48872176127613

