%nproc=4
%Mem=2GB
# td=(NStates=1) B3LYP/SVP 

TD

0 1
 8 -5.54035939773977  0.24248836383638 -3.32509534233423
 8  2.88995582168217  3.12055777917792  3.16222248664867
 8  3.25846658445845  0.84253926302630  3.35487744894489
 8  1.57039117501750 -7.23431933633363  1.51035144494449
 8  0.72240899029903 -6.94682558655866 -0.55937986918692
 8  1.90850430973097  4.08829179617962 -0.26562829842984
 7 -2.38680928362836 -0.88985399199920  0.54639116621662
 7 -4.43080698459846  0.69717396599660 -1.30989292139214
 7  1.87291701880188 -0.61307328832883 -0.33168460656066
 7  2.71376264666467  1.88339678977898 -0.48017549254926
 6 -4.87471971827183  1.19144932433243 -0.01937148064806
 6 -4.52171677707771  0.19372579027903  1.18281034173417
 6 -3.06832028822882  0.06268115051505  1.30481582168217
 6 -2.03466851115112  0.60625277227723  2.10216101430143
 6 -0.82359624712471  0.09289073057306  1.67458622082208
 6 -1.02733710871087 -0.83395850495049  0.68257496579658
 6 -6.34432052945295  1.42065382128213 -0.21333974777478
 6  0.50493397669767  0.31985990909091  2.42234690349035
 6 -6.79110154185418  0.99858216341634 -1.37333819151915
 6 -0.25832157415742 -1.88134343544354  0.01688886458646
 6  1.13849676087609 -1.69531204380438 -0.31334012721272
 6 -5.53334139223922  0.51936162936294 -2.16468590939094
 6  1.96882275217522 -2.91047462346235 -0.75323063966397
 6 -2.26669341054105  1.69648138013801  3.20838947894790
 6 -7.17114910711071  1.97608314431443  0.86145675957596
 6  3.13194872317232 -2.30932295659566 -1.16152730983098
 6  1.15960273287329  1.74852799499950  2.49119433783378
 6  3.08290483148315 -0.92248168756876 -0.93890752175218
 6  1.51272681058106 -4.35106948654865 -0.94039251315132
 6 -8.09580630153015  0.75856042044204 -2.03981870387039
 6  1.56604829492949 -5.14007024942494  0.49928625512551
 6  4.31770948734873 -3.00812207800780 -1.72811480888089
 6  4.06986592879288  0.00476213801380 -1.17621781688169
 6  2.46648926432643  1.74742891719172  3.06053595869587
 6  3.80761528742874  1.36785604190419 -1.00495626632663
 6 -9.34248242124212  0.68052589638964 -1.37576633923392
 6  1.25498280668067 -6.48242697219722  0.44762555525553
 6  4.85735980088009  2.49364141914191 -1.36045977247725
 6  4.18862449694969  3.58948310851085 -1.04769434073407
 6  2.79274803080308  3.36244794619462 -0.48699724672467
 6  6.12639064346435  2.16753862526253 -1.87104863366337
 6  4.71520231363136  4.95404692189219 -1.35149782168217
 6  6.96344389578958  2.96111253265327 -2.68084275237524
 1 -4.31830978167817  2.15164020892089  0.23660320232023
 1 -4.89702813191319 -0.73806879797980  0.97386863516352
 1 -4.72920303950395  0.54159838893889  2.23712584708471
 1 -2.72345975637564 -1.35220207770777 -0.57198959025903
 1 -3.39365505880588  0.45297837403740 -1.58161535883588
 1  0.37068365266527  0.08770874437444  3.53627896009601
 1  1.24836328032803 -0.54247413141314  2.32166048644865
 1 -0.59258975147515 -2.77120508380838 -0.25842602420242
 1 -3.46831898389839  1.90145673097310  3.21766793439344
 1 -1.81229608900890  1.28742737023702  4.07864758935894
 1 -1.75958875817582  2.65271390719072  2.93494564856486
 1 -6.54339823492349  2.26083503560356  1.67822594139414
 1 -7.52603531183118  1.00581691009101  1.32802522512251
 1 -7.78720721202120  2.67486965706571  0.72136113331333
 1  1.31397357865787  2.18944155215522  1.48570857845785
 1  0.47252129222922  2.47136522432243  3.13343369786979
 1  1.65524114241424  0.51269765996600 -0.24674690079008
 1  2.17182544114411 -5.00229575277528 -1.74143220542054
 1  0.36899497989799 -4.45600551395140 -1.39062183188319
 1 -7.87125245024502  0.40719335333533 -3.07414832683268
 1  0.98887182728273 -4.57825212951295  1.22817250485048
 1  2.55187623052305 -4.84034051305130  0.73751769016902
 1  4.02742718651865 -4.06529405790579 -1.84444349694969
 1  5.02874499599960 -3.09319820062006 -0.89854477597760
 1  4.61623872017202 -2.55877793339334 -2.71014133643364
 1  4.88561136823682 -0.43526763556356 -1.84102079027903
 1 -9.51620114231423  1.08776967416742 -0.37989867606761
 1 -10.29037720282028  0.21875625402540 -2.03246298799880
 1  3.89302573397340  3.05249781838184  3.64602278447845
 1  6.42790779637964  1.20249445594559 -2.11563906710671
 1  4.89703071327133  5.43638673067307 -2.44532158715872
 1  4.01008901300130  5.67852492239224 -0.82862594579458
 1  5.61924369586959  5.32152860746075 -1.07734948304830
 1  0.95533307180718 -8.05982722522252  1.49422909600960
 1  7.81301258305831  2.70348765506551 -3.42771153335334
 1  6.72050349464947  3.96830440174017 -2.79048193729373

