%nproc=4
%Mem=2GB
# td=(NStates=1) B3LYP/SVP 

TD

0 1
 8 -5.24826018781878  0.35223933893389 -3.42191502430243
 8  2.78822564866487  3.10406613001300  3.05925218961896
 8  3.12381311911191  0.96121113021302  3.33244520572057
 8  1.76899103500350 -7.34266017041704  1.47695810561056
 8  0.35835258465847 -6.87228813281328 -0.35158909010901
 8  2.09275273457346  4.07670063706371  0.05114337873787
 7 -2.31805240794079 -0.97500250685069  0.66151267836784
 7 -4.37182108600860  0.70618486708671 -1.23058499059906
 7  1.91274100120012 -0.70046202720272 -0.44911634973497
 7  2.62294356475648  1.84917336743674 -0.52330980598060
 6 -4.86831907820782  1.10752093149315 -0.02980252375238
 6 -4.48766337173717  0.10666708440844  1.24334639533953
 6 -3.04203765996600 -0.09111422902290  1.36593193329333
 6 -2.02415746004600  0.57096924392439  2.25736653485349
 6 -0.75325921342134  0.02908434993499  1.86578534073407
 6 -0.98771314631463 -1.02671778087809  0.92557926622662
 6 -6.30778687608761  1.29744150005001 -0.15404381818182
 6  0.51033451675168  0.26190411351135  2.51216588538854
 6 -6.62459489118912  1.13438574377438 -1.52872373007301
 6 -0.19379512151215 -1.95091039213921  0.23237041274127
 6  1.12559547074707 -1.82320483308331 -0.20456925012501
 6 -5.39050710881088  0.66484617781778 -2.18559800060006
 6  1.98631450135014 -2.99628320432043 -0.74047936453645
 6 -2.30449719091909  1.72378411041104  3.25461410141014
 6 -7.18161015321532  1.87988352435244  0.99065967986799
 6  3.11155668396840 -2.39970199449945 -1.22424358145815
 6  1.01889866246625  1.70461360356036  2.41434665306531
 6  3.09909645064506 -0.87080652005201 -1.00595422642264
 6  1.47487302520252 -4.36404078367837 -0.77757623152315
 6 -7.91863858475848  1.13522808720872 -2.22387710971097
 6  1.80526221632163 -5.16747298969897  0.42857918441844
 6  4.31540925732573 -3.04023528932893 -1.81756375377538
 6  4.10144908710871  0.06009767156716 -1.27369756485649
 6  2.39174178957896  1.89018319261926  2.99574948004800
 6  3.81721624752475  1.40976023232323 -1.05383115381538
 6 -9.23781195419542  0.85182302610261 -1.68618738133813
 6  1.16545385378538 -6.57248597809781  0.40340113281328
 6  4.68461252615262  2.47643969896990 -1.42455618211821
 6  4.11166680118012  3.66720088028803 -1.18513808510851
 6  2.78689744574457  3.20710241164116 -0.48631717871787
 6  6.07054505890589  2.19426129752975 -2.13634516331633
 6  4.41312210561056  5.02146366356636 -1.34058673057306
 6  6.73786133753375  3.15812223362336 -2.87499216731673
 1 -4.54471242194219  2.04286933183318  0.40849039103910
 1 -5.06644507360736 -0.81766675777578  0.89992124042404
 1 -4.58915903510351  0.60932516161616  2.12702483698370
 1 -2.77091450185018 -1.71380823832383  0.07164477317732
 1 -3.25658135143514  0.89877295349535 -1.52250944824482
 1  0.68450503480348 -0.27968799529953  3.52093742594259
 1  1.15675411941194 -0.25374525852585  1.99433775417542
 1 -0.73198369086909 -2.90980894419442  0.03533335173517
 1 -3.45029718171817  1.52905949124912  3.52389855745575
 1 -1.69752461186119  1.68270689818982  4.09146887148715
 1 -2.16780958025803  2.81662029782978  2.95261741574157
 1 -6.67708160326033  2.62018097019702  1.56923504230423
 1 -7.76956966526653  1.01593792219222  1.64749717231723
 1 -7.98599709100910  2.61036320642064  0.59552855005501
 1  1.03068524982498  2.01434404240424  1.35459546714672
 1  0.42392643274327  2.40597868566857  2.99054940944094
 1  1.82652827112711  0.38527491769177 -0.14831705780578
 1  1.79927818641864 -4.91058658185819 -1.67091515371537
 1  0.37364544494449 -4.13569348274827 -1.02014478417842
 1 -7.75625095009501  1.33468610261026 -3.41922283428343
 1  1.53605654575458 -4.46692099639964  1.34466415401540
 1  2.78635967886789 -5.45088156715672  0.81223516191619
 1  4.05569001280128 -4.11536906540654 -2.09053810641064
 1  5.31744386588659 -2.99077795859586 -1.30796571807181
 1  4.65740283658366 -2.63530558615862 -2.75908623092309
 1  5.00139294639464 -0.37766187498750 -1.77836452465246
 1 -9.45165468766877  0.56378727592759 -0.56959764596460
 1 -10.06546471157116  1.03050742914291 -2.30795053675368
 1  3.67442387378738  3.23916648524853  3.58370655285529
 1  6.57324232983298  1.25523973047305 -2.19608711191119
 1  4.15703671387139  5.25311840384038 -2.38219527452745
 1  3.77348535263526  5.87310438033803 -0.64051713491349
 1  5.34903667516752  5.23562001660166 -1.06208795689569
 1  1.25924346284628 -8.22628387088709  1.77461713481348
 1  7.69594087588759  2.65119242554255 -3.21379014121412
 1  6.40658210251025  4.27661523282328 -2.94278716781678

