%nproc=4
%Mem=2GB
# td=(NStates=1) B3LYP/SVP 

TD

0 1
 8 -5.42998836063606 -0.17397328232823 -3.29870270307031
 8  3.02813964006401  2.99680540394039  3.61113737813781
 8  3.21918265606561  0.70484549364936  3.22737469866987
 8  1.63553768966897 -7.31287719211921  1.38813922372237
 8  0.49578632803280 -7.01278218221822 -0.53232716391639
 8  2.15669912921292  4.08167113411341  0.02439070347035
 7 -2.37118772147215 -0.73328833543354  0.59024555165517
 7 -4.46722062596260  0.61836608520852 -1.26017794989499
 7  1.88832855995600 -0.67540952195220 -0.31443288138814
 7  2.68722999339934  1.91447989808981 -0.46171364636464
 6 -4.85879812611261  1.35034521392139 -0.04197374087409
 6 -4.44544915031503  0.52205862356236  1.25428748944894
 6 -2.96315977217722  0.22220710311031  1.39275461556156
 6 -2.07386243054305  0.86089823682368  2.16504730293029
 6 -0.84845873337334  0.20707214871487  1.76758552075208
 6 -0.94991936693669 -0.77349245834583  0.85410211851185
 6 -6.37982407980798  1.45614737063706 -0.29956837063706
 6  0.49348283158316  0.38163608670867  2.66319098789879
 6 -6.75983841554155  0.84500680588059 -1.49422027972797
 6 -0.17280302230223 -1.82019732083208  0.22474965066507
 6  1.02552546374637 -1.77897040964096 -0.18467726092609
 6 -5.46884494259426  0.35962565576558 -2.14647408820882
 6  1.78927479737974 -2.89760333633363 -0.90653597019702
 6 -2.24533127432743  2.08560029202920  3.08982762276228
 6 -7.24766675887589  1.97781331733173  0.67477809170917
 6  3.00639616791679 -2.40223224752475 -1.29956111321132
 6  1.16648342094209  1.83479662186219  2.68772399079908
 6  3.07868440944094 -1.05423486288629 -0.92624625562556
 6  1.36759229712971 -4.31459583918392 -0.95410388428843
 6 -8.03949066996700  0.52234679907991 -2.06020074207421
 6  1.60720241034103 -5.04249049144915  0.29130545704570
 6  4.13080079647965 -3.17347861366137 -1.89580157755776
 6  4.00854979717972  0.01190285208521 -1.25162535763576
 6  2.56723933933393  1.78177235153515  3.15414531963196
 6  3.82016654255426  1.36257551385139 -1.06904267496750
 6 -9.17210538353836  0.42604044784478 -1.57430619321932
 6  1.25876318471847 -6.55018374787479  0.26476726942694
 6  4.77427149204921  2.48564061906191 -1.55277900440044
 6  4.19547518201820  3.62739689988999 -1.13367293859386
 6  2.92730148614862  3.20935263666367 -0.43662220922092
 6  6.16005400980098  2.19938180958096 -2.05176670547055
 6  4.58306910031003  5.11987350455046 -1.27928059996000
 6  6.77852540394039  3.14813123452345 -2.88884355245525
 1 -4.44657260796080  2.36600164506451 -0.13429388738874
 1 -5.02865129422942 -0.32171716281628  1.63641488978898
 1 -4.55341546074608  1.24726895599560  2.09666180068007
 1 -3.02633004340434 -1.16558341584158  0.01217882658266
 1 -3.44816050935094  0.91077415361536 -1.56664386168617
 1  0.38819540384038  0.08528850235024  3.79492482468247
 1  1.25535397939794 -0.52651253525353  2.34846316671667
 1 -0.69482997549755 -2.81144910821082  0.24995481388139
 1 -3.36728888088809  2.34622120742074  3.10836700430043
 1 -1.99413427282728  1.60890951845184  4.16580630523052
 1 -1.67738053735374  2.93449208500850  2.98280043404340
 1 -6.65373926902690  2.62119107120712  1.35150326912691
 1 -7.77983069136914  1.02688901730173  1.20932335493549
 1 -8.08124661596160  2.38388055815582  0.08053705090509
 1  1.18953113441344  2.26368897689769  1.59561956955696
 1  0.54197823792379  2.53512159996000  3.11332168666867
 1  1.59572519081908  0.26753314351435 -0.14460668676868
 1  2.10866912551255 -4.65454097729773 -1.72718078027803
 1  0.28170625102510 -4.45083499689969 -1.13930670037004
 1 -7.92277760276028  0.25348798279828 -3.30256116811681
 1  1.28983192329233 -4.84203850815081  1.42971265886589
 1  2.79806084898490 -4.96748322732273  0.57320125852585
 1  3.91104554835483 -4.18159568806881 -2.12540159275928
 1  5.18560068156816 -3.07535641644164 -1.32047696919692
 1  4.58556565286529 -2.74121617721772 -2.76949727202720
 1  4.96685949304930 -0.45362947174717 -1.66806349454946
 1 -9.43187270947095  0.63718461566157 -0.60322100830083
 1 -9.95045321042104  0.04027840624062 -2.32305204690469
 1  3.91000743214321  2.96144871347135  3.83642182438244
 1  6.76339134473447  1.38543274977498 -1.51563906710671
 1  3.92988399859986  5.61003409540954 -2.31997905290529
 1  4.18690669476948  5.65125219511951 -0.16329941314131
 1  5.79921169266927  5.22842929752975 -1.43608535663566
 1  1.23673121162116 -8.26165740824082  1.17606727982798
 1  8.03608489028903  2.98623592989299 -3.00932969516952
 1  6.46899834413441  4.13750132143214 -3.12195508460846

