%nproc=4
%Mem=2GB
# td=(NStates=1) B3LYP/SVP 

TD

0 1
 8 -5.45258061986199  0.27902201720172 -3.38544137693769
 8  2.84994182028203  2.96125184858486  3.37270353475347
 8  3.24300503830383  0.71583659275928  3.28518047924792
 8  1.82602673857386 -7.12102800720072  1.64858526832683
 8  0.64169091849185 -6.90654155815582 -0.31395532673267
 8  2.05058851815182  3.91869483648365 -0.02459419501950
 7 -2.38056865956596 -0.97108211481148  0.53531005810581
 7 -4.48561246514651  0.65787003560356 -1.25799773187319
 7  1.84774450155016 -0.62539452045205 -0.43384482258226
 7  2.72475374577458  1.89136758685869 -0.66237371237124
 6 -4.92055430173017  1.29085926532653 -0.00707025052505
 6 -4.52217682308231  0.32010842854285  1.11076313701370
 6 -3.08810226642664 -0.01072619021902  1.32578791889189
 6 -2.11395643994399  0.69068121512151  2.13429422762276
 6 -0.79541342884288 -0.01546010451045  1.83060182238224
 6 -1.12628700370037 -1.01037614671467  0.81957866616662
 6 -6.33584968236824  1.45079683558356 -0.25933434723472
 6  0.43790727402740  0.13833175627563  2.65449011781178
 6 -6.80512294399440  0.94968727392739 -1.42556341404140
 6 -0.21391713371337 -1.91332663376338  0.11302847854785
 6  1.11869478067807 -1.84366687928793 -0.26324511771177
 6 -5.52494055215522  0.54690438363836 -2.18467790859086
 6  1.94565043494349 -2.92155573157316 -0.84075939253925
 6 -2.28857559875988  1.75577730973097  3.10188882888289
 6 -7.24096608880888  1.90696623262326  0.86800741464146
 6  3.21575710401040 -2.46677870217022 -1.20271142824282
 6  0.99871664426443  1.60142328452845  2.71335655405541
 6  3.05355189618962 -0.93325276467647 -1.03374700570057
 6  1.53207874577458 -4.36430080968097 -0.85781425532553
 6 -8.05293201410141  0.96162072647265 -2.00807552955296
 6  1.83356504660466 -4.99514575697570  0.54985131163116
 6  4.29959767616762 -3.08294956075608 -1.95624762216222
 6  4.06108505070507 -0.02305064326433 -1.34716491159116
 6  2.47783039843984  1.67229140344034  3.16049595469547
 6  3.86125065096510  1.47394665096510 -1.17895366606661
 6 -9.28458663166317  1.07962580638064 -1.65367413001300
 6  1.28926623502350 -6.47120585008501  0.55412620532053
 6  4.71625569046905  2.52112416741674 -1.54270799729973
 6  4.16677231173117  3.68444260446045 -1.12920249154915
 6  2.85215397139714  3.25709741114111 -0.50329887688769
 6  6.10686869126913  2.26753862526253 -2.07483901270127
 6  4.73490428382838  5.09626114331433 -1.25647831973197
 6  6.70463801520152  3.19399582098210 -2.85061973007301
 1 -4.45159311001100  2.25759080398040  0.15924546654665
 1 -5.02862129122912 -0.63969896099610  1.02963421172117
 1 -4.97806792599260  0.63061729082908  2.07320945544555
 1 -2.74319172957296 -1.70817767526753 -0.20128251955196
 1 -3.60836652995300  0.51674475067507 -1.75801299859986
 1  0.30284686898690 -0.26812683918392  3.72517784998500
 1  1.33472191619162 -0.47322720672067  2.27097541794179
 1 -0.56030652315232 -2.90554851815182 -0.17661784338434
 1 -3.48015016701670  1.70097668296830  3.43132930053005
 1 -1.85066992639264  1.59575820332033  3.95487521212121
 1 -2.12084488378838  2.87469610541054  2.77308946294629
 1 -6.96473036813681  2.74426337843784  1.60188830763076
 1 -7.30861356965697  0.97894422282228  1.56920934353435
 1 -8.20756924822482  2.43857602770277  0.44346334353435
 1  1.17772995429543  2.16486909490949  1.63756376397640
 1  0.35969000910091  2.04278236603660  3.34287464196420
 1  1.95876149444945  0.35362175237524 -0.33688591469147
 1  1.93239149774978 -5.10517604080408 -1.53168123032303
 1  0.42355043544354 -4.55685559895990 -0.98733150285029
 1 -7.99237456245625  0.56127876187619 -3.17223813581358
 1  1.23917685778578 -4.39039334363436  1.31809149674967
 1  2.97305834873487 -4.82671915091509  0.84637857625763
 1  4.11470591439144 -4.21627915641564 -1.86390544314431
 1  5.16426854835484 -2.95003388418842 -1.38171309280928
 1  4.46812390869087 -2.72080413601360 -2.99801012331233
 1  4.99526233333333 -0.45611972077208 -1.82796948514852
 1 -9.51143066526653  1.39168006520652 -0.68182886908691
 1 -10.14841300640064  0.79211358975898 -2.47099684138414
 1  3.93262969436944  3.03569613821382  3.16355453765377
 1  6.46423142874287  1.28693289978998 -2.02695019821982
 1  4.12434344454446  5.57296038803880 -2.17950500550055
 1  4.57854585868587  5.87270434033403 -0.32617570077008
 1  5.92120389188919  5.16505295989599 -1.31457320542054
 1  1.45401293979398 -8.21297253975398  1.66670634373437
 1  7.92873415521552  2.92913021932193 -3.02385114731473
 1  6.42723416771677  4.22463003430343 -3.25754864396440

