%nproc=4
%Mem=2GB
# td=(NStates=1) B3LYP/SVP 

TD

0 1
 8 -5.45745110691069 -0.03656954195420 -3.29673250605060
 8  2.89732655875587  3.09448517191719  3.18051431583158
 8  3.23082382018202  0.91373638273827  3.28140010121012
 8  1.62170630653065 -7.23484938933893  1.47843825362536
 8  0.55667241664166 -6.97687859185919 -0.55650958215822
 8  1.90482394169417  4.09009197619762 -0.00113184878488
 7 -2.37041764446445 -0.80913592019202  0.53263979107911
 7 -4.49020292419242  0.51007525612561 -1.40508244034403
 7  1.91722144924492 -0.66938891989199 -0.26565800390039
 7  2.65460673107311  1.82345079517952 -0.44954242924292
 6 -4.69814206050605  1.24382456185619 -0.15701524502450
 6 -4.48444304970497  0.51428784648465  1.13628568926893
 6 -2.94695815201520  0.15202008440844  1.25266060616062
 6 -2.07379242354235  0.78158030503050  2.10257105530553
 6 -0.81341522902290  0.05386682818282  1.77306606880688
 6 -1.03979835483548 -0.81265637473747  0.76916362466247
 6 -6.14234033143314  1.53884564046405 -0.32053046684668
 6  0.57154063736374  0.31646957005701  2.35008967776778
 6 -6.62715514721472  0.87785009020902 -1.37394825252525
 6 -0.31116685868587 -1.87153245434543  0.11732890859086
 6  1.07045995719572 -1.82783529612961 -0.24888368156816
 6 -5.43893195129513  0.34876456965697 -2.15340478127813
 6  1.91824769466947 -3.00155373137314 -0.74312962956296
 6 -2.24245098629863  1.78671040304030  3.22713135313531
 6 -6.96595858805881  2.15549108510851  0.78725933983398
 6  3.17440296859686 -2.42848487278728 -1.19062021912191
 6  1.06188296089609  1.81014415661566  2.53255847424742
 6  3.13501004200420 -1.04169360876088 -0.88162179317932
 6  1.44913045094509 -4.35888026762676 -0.83955242914291
 6 -8.02586930783078  0.76434099849985 -1.97062178417842
 6  1.82463415351535 -5.20633687608761  0.37332365886589
 6  4.13753146954695 -3.09989125492549 -1.99686168356836
 6  3.99693863606361 -0.02314065226523 -1.27732792789279
 6  2.54383699909991  1.86437061136114  2.90663056815682
 6  3.73181770767077  1.32738199449945 -1.00764653535354
 6 -9.13464163716372  0.75167301110111 -1.34231299389939
 6  1.24967227562756 -6.60660939043904  0.36967776047605
 6  4.62416648154815  2.50297235223522 -1.46252997949795
 6  4.07190282478248  3.68597275747575 -1.01664123542354
 6  2.72109086508651  3.22369407080708 -0.44682322932293
 6  5.98717672207221  2.23458532993299 -1.98928045684568
 6  4.42217301070107  5.05284680188019 -1.20056272817282
 6  6.87040459185919  3.09198561996200 -2.46397106520652
 1 -4.00362831353135  2.16147119201920 -0.03869432743274
 1 -5.04973340244024 -0.46884187528753  1.17357860616062
 1 -4.76699681888189  1.11886611571157  1.86457859235924
 1 -2.70950836123612 -1.43512036953695 -0.09517190849085
 1 -3.50302599589959  0.43688676487649 -1.78707590489049
 1  0.65365194949495 -0.03262328882888  3.51929726192619
 1  1.49668811281128 -0.28596848084809  1.81202952335234
 1 -0.73061355385539 -2.89226719001900 -0.17654783638364
 1 -3.38201035303530  1.82127871317132  3.36473264086409
 1 -1.82469732913291  1.36788541604160  4.18703842844285
 1 -1.81314411371137  2.72246088188819  3.07926008000800
 1 -6.40598449354936  2.78604755685569  1.26577469626963
 1 -7.39416212451245  1.51559788818882  1.65215763836384
 1 -7.80219871117112  2.74822699279928  0.35893489068907
 1  0.93570575187519  2.17524013201320  1.55430543814381
 1  0.47895193529353  2.50378846664666  3.41637199169917
 1  1.70178579687969  0.22945933613361  0.01673944784478
 1  1.71497975657566 -4.79772529572957 -1.86289435163516
 1  0.31137921832183 -4.28556847024702 -0.83398616831683
 1 -8.02210753575357  0.44466710071007 -3.11858277027703
 1  1.20436337643764 -4.76607091139114  1.34926461406141
 1  2.93040408330833 -5.35894237323732  0.57547148554855
 1  4.03185762956296 -4.14656218471847 -2.42111116371637
 1  5.09601172267227 -3.22675155595560 -1.50379530103010
 1  4.16862395869587 -2.59783183878388 -2.99021934423442
 1  4.78989179627963 -0.48069217801780 -1.89536622482248
 1 -9.42827234943494  0.97596849404940 -0.21057174337434
 1 -10.15764392949295  0.61385576397640 -1.99543928562856
 1  3.80310674207421  2.93835640424042  3.45753393559356
 1  6.50014502010201  1.29715392189219 -2.01471897509751
 1  4.41106211641164  5.45456854885489 -2.30386744174417
 1  3.69061706580658  5.63949101900190 -0.79570265346535
 1  5.46506827832783  5.38985544014401 -0.75998774687469
 1  1.05335287378738 -8.14410565306531  1.63426309940994
 1  7.82673395519552  2.87846515281528 -2.63628239043904
 1  6.84758620292029  4.23119069036904 -2.61375426452645

