%nproc=4
%Mem=2GB
# td=(NStates=1) B3LYP/SVP 

TD

0 1
 8 -5.34131949374938  0.07530164516452 -3.39848268106811
 8  3.02262908900890  3.02691841524152  3.20462672707271
 8  3.18304904270427  0.79849485858586  3.36292825402540
 8  1.59477361326133 -7.31116702110211  1.30238064786479
 8  0.16758350775078 -6.82845374937494 -0.39888381958196
 8  1.99198265756576  4.02727569456946  0.01509977437744
 7 -2.32834343704370 -0.90587559415942  0.60386691379138
 7 -4.50476438033803  0.37207145574557 -1.28688062016202
 7  1.84609433653365 -0.62052403340334 -0.31912335043504
 7  2.62303357375738  1.90901935203520 -0.55763323832383
 6 -4.80667291359136  1.13693387278728 -0.09812935643564
 6 -4.43030763616362  0.52027844554455  1.20161222192219
 6 -2.88896235243524  0.07820270267027  1.36237157725773
 6 -1.97796284058406  0.75782792979298  2.11372217041704
 6 -0.69731361886189  0.10310175167517  1.83050181238124
 6 -0.94849922492249 -0.96891200030003  0.88568527682768
 6 -6.30850694809481  1.41979373527353 -0.23944235803580
 6  0.53709719301930  0.35477340044004  2.57240190899090
 6 -6.79493192489249  0.80525283048305 -1.40881173887389
 6 -0.22330807280728 -1.89466476757676  0.18227540324032
 6  1.12482539373937 -1.74216672927293 -0.16314510771077
 6 -5.48550660876088  0.39419911311131 -2.20727016781678
 6  1.86696256615662 -2.85574915091509 -0.78696401300130
 6 -2.19288602980298  1.79795152715272  3.21896053605361
 6 -7.09889188138814  2.00902643864386  0.79577019091909
 6  3.10916644494449 -2.34505652995300 -1.21247240434043
 6  1.06989376197620  1.74109725192519  2.49660487888789
 6  3.07745428642864 -0.87582702210221 -0.90532416341634
 6  1.52823836173617 -4.32293667326733 -0.80229870377038
 6 -8.03566028692869  0.72312687708771 -2.12552727472747
 6  1.89970166026603 -5.25470171257126  0.35283160966097
 6  4.33035075147515 -3.04529579537954 -1.85978797619762
 6  4.11245018721872  0.02548421022102 -1.23302349744974
 6  2.54723733913391  1.71809598389839  2.97893779887989
 6  3.82031655755576  1.45386464276428 -1.04569033973397
 6 -9.28349652265227  0.96621446524652 -1.58968773137314
 6  1.12824013241324 -6.50648937843784  0.41825261796180
 6  4.72946701160116  2.47647970297030 -1.41092481898190
 6  4.02614824932493  3.62844700490049 -1.21622119341934
 6  2.82014077007701  3.26886858825883 -0.50261880888089
 6  6.02489049344935  2.18138000940094 -1.91207273607361
 6  4.52153294669467  5.06666818401840 -1.23189586148615
 6  6.66668421982198  3.16467288868887 -2.71298596669667
 1 -4.36114406510651  2.34518956385639 -0.25887634563456
 1 -5.18094652375238 -0.43821881298130  1.32747399569957
 1 -4.64863498269827  0.95606983608361  2.18493062756276
 1 -2.75098250865087 -1.28229508700870 -0.31730412171217
 1 -3.59001469476948  0.58300137633763 -1.69894709200920
 1  0.37145372967297  0.13254322782278  3.60952628482848
 1  1.36971541554155 -0.27953783778378  2.21309963036304
 1 -0.47140763326333 -2.88205616891689  0.25628544694470
 1 -3.18760091209121  1.78991557685768  3.39403557115712
 1 -1.54986984638464  1.69263789128913  4.09855958055806
 1 -1.80181298059806  2.80017865366537  2.71266342034203
 1 -6.28199209430943  2.64333328542854  1.24006212501250
 1 -7.74700740904090  1.31464779317932  1.36220864346435
 1 -7.87117560886089  2.70297246734673  0.42551154835484
 1  1.25208739003900  1.94122673067307  1.38339834743474
 1  0.35025906600660  2.40585867366737  3.03858421292129
 1  1.57150276857686  0.45372176237624 -0.31414364046405
 1  1.86548480708071 -4.65861138433843 -1.66607466966697
 1  0.44110219061906 -4.40374028742874 -0.93111588128813
 1 -7.96523184818482  0.14459709370937 -3.12168308030803
 1  1.75876881698170 -4.82702700700070  1.38100778837884
 1  2.94635567846785 -5.35444192319232  0.56298023642364
 1  4.55772021582158 -4.18001553005301 -1.62941199379938
 1  5.32973509500950 -2.64960384118412 -1.42034695619562
 1  4.55649274557456 -2.53579563516352 -2.96749707200720
 1  4.82099490659066 -0.30541465026503 -2.03413010121012
 1 -9.36296581878188  1.18694959215922 -0.51429211541154
 1 -10.18815698079808  0.73395777417742 -2.25638538023802
 1  3.96341277267727  3.01764433303330  3.50875905810581
 1  6.65836084168417  1.39499370587059 -1.56324382758276
 1  3.90348135833583  5.35902899489949 -2.33785084008401
 1  3.84431243534353  5.54792186208621 -0.38645172837284
 1  5.67772954445445  4.95606206080608 -1.32128387648765
 1  1.50081762026203 -8.17398864136414  1.36792646574657
 1  7.69632091389139  2.86587389368937 -3.21113987618762
 1  6.24897634193419  4.14700227152715 -3.19708259735974

