%nproc=4
%Mem=2GB
# td=(NStates=1) B3LYP/SVP 

TD

0 1
 8 -5.34213957575758  0.20064417941794 -3.36306913971397
 8  2.74572139823982  3.08977470087009  3.26634289868987
 8  3.18017875567557  0.95457046614661  3.23731569276928
 8  1.81931606750675 -7.37509341374137  1.38899930973097
 8  0.45405215461546 -6.95209611361136 -0.39466339753975
 8  1.89942340164016  3.99896286328633 -0.22249398499850
 7 -2.43988459115912 -1.00587559415942  0.55754228132813
 7 -4.40085398929893  0.52852710131013 -1.26053798589859
 7  1.85914564166417 -0.66731871287129 -0.35474691279128
 7  2.65254652505251  1.87797624772477 -0.63453092809281
 6 -4.79500174647465  1.11098127752775  0.06370682718272
 6 -4.49131373677368  0.17783420112011  1.27170923162316
 6 -3.06733018921892 -0.08328344594459  1.34095943604360
 6 -2.05079012331233  0.64406655365537  2.05620641884188
 6 -0.70114400190019  0.10577201870187  1.77677643984398
 6 -1.04685906090609 -0.91535664476448  0.73332004030403
 6 -6.37232332973297  1.35260701660166 -0.09979839363936
 6  0.51588507180718  0.22624054715472  2.49764443324332
 6 -6.64833726542654  1.02943524872487 -1.40950180788079
 6 -0.20428617061706 -1.89559486058606  0.24191136683668
 6  1.15161807300730 -1.80407291989199 -0.26805559875988
 6 -5.40364842294229  0.60075976917692 -2.14280372117212
 6  1.95386125602560 -2.95691926792679 -0.72088740534053
 6 -2.26123286448645  1.63893562556256  3.23259189918992
 6 -7.16488848104810  1.86514205020502  1.01374198809881
 6  3.08291381968197 -2.33941596589659 -1.05782693979398
 6  0.99909668226823  1.76532967516752  2.44466968536854
 6  3.05992253325333 -0.99548898829883 -0.93875750675068
 6  1.52266780468047 -4.38920329992999 -0.83073154705471
 6 -7.86822354325433  1.02007657205721 -2.13565828782878
 6  1.77124881498150 -5.12213845624562  0.52443877037704
 6  4.30237795419542 -2.92804407020702 -1.79498149554955
 6  3.98451739393939  0.00076173797380 -1.23497369246925
 6  2.37538015341534  1.84869904420442  3.06328623372337
 6  3.78419294519452  1.30332958925893 -1.08665443614361
 6 -9.17065523852385  1.31311915571557 -1.59094785738574
 6  1.26434374277428 -6.57774650415042  0.41773256595660
 6  4.74873893879388  2.47625968096810 -1.50617434393439
 6  4.09346498099810  3.68670283048305 -1.28954852615262
 6  2.73742249824982  3.25326702810281 -0.70704925192519
 6  6.04208221262126  2.14378625002500 -2.07820934973497
 6  4.50070086348635  5.08747026422642 -1.39480215211521
 6  6.95254280568057  3.18213463486349 -2.44346901500150
 1 -4.31210916161616  2.15403044794479  0.07106664866487
 1 -5.14997342644264 -0.81246623772377  0.92777402570257
 1 -4.74520463966397  0.60312454155415  2.32921505600560
 1 -2.58258566896690 -1.62164902240224 -0.28907129842984
 1 -3.37962365566557  0.63021609780978 -1.47899509680968
 1  0.44638122242224 -0.20099012551255  3.54091942414241
 1  1.36084452845285 -0.53589347334733  2.12348066846685
 1 -0.83378387088709 -2.87865582888289 -0.22895307690769
 1 -3.33299545154515  2.01165775107511  3.30053622122212
 1 -1.71747660706071  1.33696232373237  4.31520124472447
 1 -1.83295609490949  2.49246788258826  2.98899105310531
 1 -6.72545644074407  2.37626657875788  1.81957007580758
 1 -7.66147885618562  0.85862219061906  1.60436285888589
 1 -7.81368986028603  2.83321549164917  0.55588458565857
 1  0.95553773507351  2.17066967496750  1.33797380498050
 1  0.09694373447345  2.30219830763076  3.03711406590659
 1  1.67347296559656  0.25999238943894 -0.07822004810481
 1  2.06303456205621 -4.76306182938294 -1.83918198039804
 1  0.33448152855286 -4.38276819021902 -0.83360613031303
 1 -7.99817514251425  1.02762539653965 -3.23007391939194
 1  1.22003494359436 -4.49454375867587  1.36483617121712
 1  2.93424446734673 -5.22860933993399  0.79446338473847
 1  4.29150359415942 -4.01694922342234 -1.72346139873987
 1  5.06468859035904 -2.51503038383838 -1.12816773827383
 1  4.38095519181918 -2.48269032463246 -2.72661298359836
 1  4.95140794789479 -0.44592870167017 -1.60097678587859
 1 -9.27979750195020  1.71333223042304 -0.47257794399440
 1 -9.85505367046705  1.16025040344034 -2.43599334103410
 1  3.64269070047005  3.07877044564457  3.67527570977098
 1  6.40348535413541  1.09433363986399 -2.29530703390339
 1  4.33513452365237  5.32336542854285 -2.47605466046605
 1  3.99483748784878  5.70296736663666 -0.42681576477648
 1  5.67503927542754  5.26884333893389 -1.12188393649365
 1  1.40157769626963 -8.34835607810781  1.40333000610061
 1  7.93327460926093  2.79229653595359 -2.73642240444044
 1  6.80289173347335  4.30757832913291 -2.44241713081308

