%nproc=4
%Mem=2GB
# td=(NStates=1) B3LYP/SVP 

TD

0 1
 8 -5.31653701550155  0.19431354635464 -3.21469430223022
 8  2.66882370847085  3.12821854525453  3.41532779717972
 8  3.16282702050205  0.99408441754175  2.89929189038904
 8  1.26588072397240 -7.06009191359136  1.64163457325733
 8  0.45551230063006 -7.09361026502650 -0.46748067926793
 8  2.02301576087609  4.08830179717972  0.00031829622962
 7 -2.45512611531153 -1.00783579017902  0.55206173327333
 7 -4.30197410131013  0.60025427402740 -1.19291122322232
 7  1.90366009310931 -0.70131211221122 -0.34902634073407
 7  2.74956622702270  1.88865731583158 -0.51524899989999
 6 -4.84344659095910  1.14392457185719  0.06485694219422
 6 -4.43921852725273  0.15677209490949  1.17329939063906
 6 -2.98521197739774 -0.07621273887389  1.32498783888389
 6 -2.05247029132913  0.52250439743974  2.13384418261826
 6 -0.74480836833683  0.02784422592259  1.75747450965097
 6 -0.98256263126313 -0.89842495159516  0.71044775307531
 6 -6.29677577497750  1.31488324422442 -0.13826224002400
 6  0.51467495079508  0.32473039613961  2.47629229802980
 6 -6.59562199389939  0.90242254745475 -1.38579943764376
 6 -0.14066980898090 -1.91538683978398  0.01379855555556
 6  1.19583249444945 -1.82041455405541 -0.28140693389339
 6 -5.30776883498350  0.52067176037604 -2.09898933973397
 6  1.97159302920292 -2.88282185818582 -0.86547186378638
 6 -2.42142888408841  1.68264999699970  3.12368100810081
 6 -7.16390838303830  1.76621215721572  1.08151876577658
 6  3.14702023032303 -2.37921994629463 -1.19479063616362
 6  0.91338811141114  1.80631377357736  2.46880209860986
 6  3.09747628862886 -0.92638207760776 -0.92715634663466
 6  1.50756629452945 -4.37611199079908 -0.92046051995200
 6 -7.80174689558956  0.97072163656366 -2.08289301130113
 6  1.50872256235624 -5.11052729512951  0.44035036153615
 6  4.37733544994499 -2.97752901870187 -1.84016601400140
 6  4.07134607680768  0.05348701050105 -1.22115231033103
 6  2.34751736713671  1.92106628092809  2.98993889898990
 6  3.78148267416742  1.34641389768977 -1.01888765946595
 6 -9.12183035603560  0.89781762556256 -1.52874163676368
 6  1.04620192859286 -6.44220294979498  0.43389418211821
 6  4.76052011691169  2.48956101110111 -1.44676840334033
 6  4.17124275877588  3.63808796899690 -1.21200077137714
 6  2.85197395339534  3.21053275467547 -0.48394694169417
 6  6.05658366276628  2.24744661606161 -2.16494802360236
 6  4.57624841824182  5.07319883708371 -1.39298197009701
 6  7.05293284468447  3.17443386478648 -2.55703037113711
 1 -4.28274622532253  2.06081112601260  0.19895943794379
 1 -4.93952238133813 -0.77807279837984  1.12317356565657
 1 -4.69549966916692  0.70418464756476  2.14775691019102
 1 -2.86750416081608 -1.24857171467147 -0.29912230353035
 1 -3.33793948724872  0.65683876007601 -1.56102329962996
 1  0.56808339263926 -0.04921494799480  3.47525285748575
 1  1.63503194719472 -0.30455033903390  2.16004432483248
 1 -0.85051554405441 -2.68525648894889 -0.40968114971497
 1 -3.39634178617862  1.42713929922992  3.47499366696670
 1 -1.78261312071207  1.50008863636364  4.10089981458146
 1 -2.25187798709871  2.68551718751875  2.83549570357036
 1 -6.68864275937594  2.48730768286829  1.76537465626563
 1 -7.40296300460046  1.04495082348235  1.60944336693669
 1 -8.02863135443544  2.48134030413041  0.72213121032103
 1  0.99862204350435  2.21725433343334  1.39118912651265
 1  0.27993203330333  2.57109519731973  3.15670602510251
 1  1.59359497779778  0.27658404860486 -0.14578680478048
 1  2.02733099169917 -4.89991551475148 -1.67835589778978
 1  0.36606468686869 -4.64382429582958 -1.34498726842684
 1 -7.71184650965097  0.67021965596560 -3.18041895389539
 1  1.15308824892489 -4.50229453375338  1.35016470407041
 1  2.66026706960696 -5.26642312131213  1.12039597799780
 1  4.33554799859986 -3.96337386588659 -2.11641069366937
 1  5.20436255775578 -2.81496037683768 -1.12815773727373
 1  4.40131722802280 -2.55679773537354 -2.91601192349235
 1  4.92267507460746 -0.36355046384638 -1.73852054025403
 1 -9.35708523072307  0.76427732493249 -0.44555524172417
 1 -9.84157232233223  1.00244462286229 -2.25259500120012
 1  3.68245467686769  3.01007357595760  3.37738592079208
 1  6.40624563016302  1.35679988648865 -2.45456295949595
 1  4.93808481868187  5.33484657665767 -2.48060511551155
 1  3.72345034913491  5.72675974587459 -1.22767585078508
 1  5.48679045054505  5.42930938553855 -1.02379412751275
 1  1.07974551305131 -8.01154239673967  1.45232490559056
 1  7.86230751255126  2.71421872817282 -2.99485824802480
 1  7.08680012431243  4.29271684298430 -2.65999888898890

