%nproc=4
%Mem=2GB
# td=(NStates=1) B3LYP/SVP 

TD

0 1
 8 -5.52217757955796  0.07216133113311 -3.39783261606161
 8  2.86366319241924  3.25904162756276  3.23784004840484
 8  3.09806054385439  1.00061507060706  3.76369833103310
 8  1.56517065296530 -7.20729663406341  1.37550796059606
 8  0.66988373777378 -7.09726063006301 -0.57742167336734
 8  2.02273573287329  4.03424639163916 -0.07021875747575
 7 -2.30875147784778 -0.86511151775178  0.55505203230323
 7 -4.42343624752475  0.57518176677668 -1.27923985608561
 7  1.94777450455046 -0.67869985098510 -0.40181161926193
 7  2.72088335873587  1.86588503860386 -0.41752922792279
 6 -4.83373561986199  1.25058523792379  0.04156461296130
 6 -4.46773137853785  0.27995441314131  1.21952401310131
 6 -3.01303475967597  0.10149503190319  1.31964730483048
 6 -2.03811885618562  0.81855400240024  2.05490628882888
 6 -0.78043193069307  0.24774621612161  1.73456221842184
 6 -0.92552692769277 -0.84159926902690  0.87017372567257
 6 -6.40471656905691  1.31761351725173 -0.14175258905891
 6  0.49657314061406  0.42554047714771  2.58309297809781
 6 -6.65850828252825  0.88373067826783 -1.42438329602960
 6 -0.11872761476148 -1.83647894899490  0.25936311201120
 6  1.12912582378238 -1.82396490909091 -0.27248604180418
 6 -5.53296135423542  0.44990468366837 -2.22041148194819
 6  1.89381525142514 -2.92360593659366 -0.91585690229023
 6 -2.12203894509451  1.84397612961296  3.04690333033303
 6 -7.20074206640664  2.00654619061906  0.90738135203520
 6  3.14745027332733 -2.43095511981198 -1.33172432953295
 6  1.09181595419542  1.93219636183618  2.56972219061906
 6  2.99259580058006 -1.02926236563656 -1.11480511151115
 6  1.41195673357336 -4.38905328492849 -0.84658313221322
 6 -7.97719444034403  0.75109967436744 -2.01303602560256
 6  1.68579026912691 -5.14181042344234  0.45774210071007
 6  4.32887060346035 -3.14544581038104 -2.02963496089609
 6  3.92781172337234 -0.04334267246725 -1.41923211831183
 6  2.47118973437344  1.96878105240524  3.20108001310131
 6  3.79547407330733  1.33984324062406 -1.10385615631563
 6 -9.18803697669767  0.80582842664266 -1.57721648424842
 6  1.16958426682668 -6.59090782028203  0.35190598329833
 6  4.74883894879488  2.36794884988499 -1.51744547104710
 6  4.16351198569857  3.54542870307031 -1.02020159145915
 6  2.87225598159816  3.16436813821382 -0.43452199919992
 6  6.05473347774778  2.07532940434043 -2.07695922472247
 6  4.50491128452845  5.04581609880988 -1.07667033893389
 6  6.84395194659466  3.04156057745775 -2.67078174627463
 1 -4.57269522022202  2.29884492939294 -0.23623408140814
 1 -5.03859228832883 -0.72051704280428  1.00275152345235
 1 -4.90172029122912  0.68460268936894  2.26817895239524
 1 -2.75353276367637 -1.43663052055206  0.13375098379838
 1 -3.56775246854686  0.71363443964396 -1.58888608590859
 1  0.19805638993899  0.16980695419542  3.56165149734973
 1  1.50101854585459 -0.10528041204120  2.24172249264927
 1 -0.57936842934293 -2.78948691199120  0.11735155355536
 1 -3.28860101210121  1.96580316561656  3.05382154975498
 1 -1.69913477287729  1.62096072357236  4.01758148274827
 1 -1.76955975527553  2.80323895969597  2.60370252425243
 1 -6.61230512561256  2.74750370247025  1.36095421422142
 1 -7.29002171047105  1.15466179457946  1.73317574017402
 1 -8.05591408270827  2.34683685378538  0.50299929712971
 1  1.12601478277828  2.21165377337734  1.47023703130313
 1  0.27604164426443  2.68857694549455  2.79564991949195
 1  1.76095171347135  0.49299568976898 -0.35165739183918
 1  2.05098335693569 -4.72662818601860 -1.76463452565257
 1  0.36452453285328 -4.46291620502050 -1.20653342304230
 1 -7.93519884488449  0.49485211921192 -3.17810872287229
 1  1.27226016611661 -4.68601290559056  1.28554824242424
 1  2.73372441534153 -5.08210468946895  0.84980891929193
 1  4.04829927372737 -4.10797832633263 -2.43164221682168
 1  5.22916503800380 -2.99994887568757 -1.56775169666967
 1  4.55616271257126 -2.58364041964196 -2.94491481378138
 1  4.76393920102010 -0.26088019681968 -2.07777446564657
 1 -9.41808133033303  0.92144304150415 -0.46423710991099
 1 -10.08353651875188  0.49484386278628 -2.10313005470547
 1  3.79666609800980  3.16533910251025  3.71683986618662
 1  6.34918992459246  0.91359556605661 -1.96786428962896
 1  4.14840585078508  5.34415750775077 -2.21544859985999
 1  4.06382438653865  5.55921299119912 -0.19924300750075
 1  5.76343811531153  5.14974142874287 -1.07891964006401
 1  1.34822236073607 -8.14870611311131  1.53876354945495
 1  7.89078035983598  2.77111441774177 -3.02857161936194
 1  6.63720516481648  4.06330390169017 -2.81581447054705

