%nproc=4
%Mem=2GB
# td=(NStates=1) B3LYP/SVP 

TD

0 1
 8 -5.36034139593959 -0.01107699269927 -3.27856068886889
 8  2.80076690279028  3.07191291469147  3.17266353075308
 8  3.32959369716972  0.84334934403440  3.12122408360836
 8  1.72543667956796 -7.16140204460446  1.41156156595660
 8  0.33132988238824 -6.85344624862486 -0.33098702990299
 8  1.83778723802380  4.01810477747775 -0.16173790939094
 7 -2.37336793949395 -0.85807081368137  0.62599912701270
 7 -4.43142704660466  0.73680792939294 -1.28651058315832
 7  1.88076780388039 -0.71969395039504 -0.33280471857186
 7  2.65420669106911  1.84292274237424 -0.60749822482248
 6 -4.84803705000500  1.37881806120612 -0.08337788128813
 6 -4.41337594299430  0.50001641934193  1.15242730343034
 6 -2.99010246644664  0.09025390779078  1.27073241334133
 6 -1.99886493079308  0.68612075907591  2.12688348654866
 6 -0.76933082058206  0.06653809530953  1.80268903110311
 6 -1.04973934893489 -0.99961507060706  0.83997070537054
 6 -6.27575367276728  1.42357411331133 -0.18694710851085
 6  0.60241372467247  0.29026694979498  2.43896856565657
 6 -6.76523895559556  0.92015432063206 -1.39874073177318
 6 -0.27415315731573 -1.95679098019802  0.18848602430243
 6  1.12405531673167 -1.92857537013701 -0.30052884608461
 6 -5.43248130623062  0.56700639383938 -2.22132157295730
 6  1.94820068996900 -2.97388096409641 -0.83153847044704
 6 -2.26258299949995  1.70558229022902  3.21955059505951
 6 -7.20166215841584  1.99321485748575  0.87270788468847
 6  3.12774830313031 -2.40727275157516 -1.21084224132413
 6  1.03679045164516  1.74676781898190  2.51465668406841
 6  3.06232277327733 -0.92214165356536 -0.92859649064906
 6  1.51728726662666 -4.38485286488649 -0.94587306120612
 6 -8.03998071897190  0.77358192259226 -2.07431215321532
 6  1.70620231033103 -5.07124336673667  0.44484081058106
 6  4.27934565096510 -3.10721198699870 -1.84785678307831
 6  4.07643658585859  0.07090875267527 -1.26611680678068
 6  2.53780639603960  1.77797197149715  2.93690359545955
 6  3.76515104100410  1.36884614091409 -1.14749051975198
 6 -9.28631680468047  0.74215205900590 -1.56325508810881
 6  1.21021833023302 -6.49030776027603  0.44479527222722
 6  4.78308237313731  2.49763181818182 -1.44646837333733
 6  4.14942057655766  3.62937709790979 -1.06366593789379
 6  2.72119087508751  3.15644734613461 -0.58504705170517
 6  6.15995399979998  2.22588445984598 -1.93682521132113
 6  4.54293508690869  5.05557707490749 -1.07574024592459
 6  6.87526507790779  3.14330075147515 -2.49605427352735
 1 -4.33776172687269  2.40236528142814  0.05673521552155
 1 -5.01628005710571 -0.55029002010201  1.14076532483248
 1 -4.85379549874988  1.02134636373637  1.97052918741874
 1 -2.85055246564656 -1.38513537103710 -0.04165655695570
 1 -3.46953264656466  0.41216429262926 -1.57570476777678
 1  0.45292187648765  0.02771274477448  3.46297162936294
 1  1.46925536953695 -0.19675955995600  1.91561988238824
 1 -0.68582907540754 -3.08034599789979 -0.08758894049405
 1 -3.37534968696870  1.44796138143814  3.56585275287529
 1 -1.56632149154916  1.32062068956896  4.09299902450245
 1 -1.98481128042804  2.64925356115612  2.90354250825082
 1 -6.57670156525653  2.70917987008701  1.52743086188619
 1 -7.52990569886989  1.29337566596660  1.59545196779678
 1 -8.03142163346335  2.54757692779278  0.63966296349635
 1  0.86248843014302  2.44791739973997  1.57292730033003
 1  0.61475551565157  2.13858194599460  3.46842719721972
 1  1.78684430273027  0.38965535573557 -0.17544977107711
 1  1.90711897049705 -4.96982250545055 -1.72333039523952
 1  0.35452353275328 -4.32428234163416 -1.24302707240724
 1 -8.16660198519852  0.73271590559056 -3.13474438643864
 1  1.33982692279228 -4.46397070137014  1.19877956555656
 1  2.84810585348535 -5.29488596759676  0.92372631103110
 1  4.25471991579158 -4.09164669316932 -2.01625067766777
 1  5.33052517401740 -3.10942982378238 -1.25883080458046
 1  4.44616171247125 -2.36202825842584 -2.67074739703970
 1  5.05433824092409 -0.48272238103810 -1.50718740694069
 1 -9.27298682088209  0.57923882108211 -0.42676336253625
 1 -10.19858802390239  0.50347472587259 -2.04612435413541
 1  3.75166159755976  3.19242181078108  3.51113929612961
 1  6.69150415601560  1.31011521802180 -1.95286278947895
 1  4.57944895509551  5.58400149214921 -2.07836489148915
 1  3.86856486058606  5.74761183108311 -0.47405048824882
 1  5.62388415991599  5.30526698129813 -0.67431918001800
 1  1.39383692219222 -8.19644088658866  1.31404107720772
 1  7.74617589938994  2.88710601690169 -2.91869063126313
 1  6.59373081738174  4.25549312061206 -2.66262915201520

