%nproc=4
%Mem=2GB
# td=(NStates=1) B3LYP/SVP 

TD

0 1
 8 -5.51948731053105  0.04106822182218 -3.31518435123512
 8  2.88835566166617  2.95586130953095  3.40317658205821
 8  3.06155689348935  0.67194220332033  3.38987094829483
 8  1.57126126202620 -7.18047395179518  1.53974438423842
 8  0.56775352475248 -6.94799570357036 -0.41355528672867
 8  2.06270973027303  4.12220518751875 -0.12460419601960
 7 -2.32403300600060 -0.79822482908291  0.47750427752775
 7 -4.52910681458146  0.66830107870787 -1.37809974207421
 7  1.90401012811281 -0.62186416741674 -0.37025846394639
 7  2.78844011441144  1.88802725282528 -0.46106358135814
 6 -4.77566981328133  1.21609178857886 -0.06651619511951
 6 -4.52959756515652  0.22571898959896  1.09624168486849
 6 -2.98203165936594  0.11643652605261  1.23867920802080
 6 -1.98657370167017  0.75306745374537  2.06561735993599
 6 -0.77936182368237  0.10005144664466  1.71019978217822
 6 -1.01425580058006 -0.90443555265527  0.76463317161716
 6 -6.33601969936994  1.48663041894189 -0.19758817261726
 6  0.48489197249725  0.36860478357836  2.47307197599760
 6 -6.78152058375838  0.88453075827583 -1.36235709340934
 6 -0.22739848184818 -1.87719302040204  0.09226640234023
 6  1.17842075327533 -1.79959247184718 -0.27371616481648
 6 -5.65407346544654  0.41648134133413 -2.16387582838284
 6  1.95853172307231 -2.88741231723172 -0.81460677727773
 6 -2.30120686188619  1.73891562356236  3.00937957795780
 6 -7.12434442664266  1.93281881788179  1.01931254515452
 6  3.15233076137614 -2.40363238753875 -1.24078523562356
 6  1.02794956755676  1.71897503970397  2.36049126752675
 6  3.10641718271827 -0.94296373577358 -0.87343097409741
 6  1.48818435633563 -4.28765314491449 -0.85380385428543
 6 -8.09106582748275  0.88417298169817 -1.98284300630063
 6  1.74468615871587 -5.07922416481648  0.52616894339434
 6  4.30948866526653 -3.06519778557856 -1.85818781618162
 6  4.08217715991599  0.06494815661566 -1.28051824692469
 6  2.39093170857086  1.65595977027703  3.04161406650665
 6  3.84289881578158  1.39672892919292 -1.06047181788179
 6 -9.28984715771577  0.72003984778478 -1.42914167676768
 6  1.25974328272827 -6.47909663916392  0.39970076277628
 6  4.78066213111311  2.49739179417942 -1.53118684518452
 6  4.20692632713271  3.64611877207721 -1.25092466376638
 6  2.92146090209021  3.25845754715472 -0.48779732673267
 6  6.06383438783878  2.21672354375438 -2.04042557135714
 6  4.65717651105110  5.08264978217822 -1.23211588348835
 6  6.90986853825382  3.07167358875888 -2.61303597169717
 1 -4.41174912561256  2.12425747064706  0.20780032203220
 1 -5.07324575367537 -0.82435742684268  1.03771501980198
 1 -4.99570969016902  0.59823405250525  1.94869700420042
 1 -2.86146355675568 -1.25529238673867 -0.30631302260226
 1 -3.60850654395440  0.46601967816782 -1.65190238753875
 1  0.24508109240924  0.11007098059806  3.53079841204120
 1  1.30923936793679 -0.26354623862386  2.20068838923892
 1 -0.80532102460246 -2.78749671297130  0.02402222062206
 1 -3.41337348934893  1.80185677097710  3.18884505210521
 1 -1.57741260066007  1.62508113561356  4.00852057665767
 1 -2.07855065436544  2.69323795959596  2.64852700670067
 1 -6.75334923002300  2.85120407250725  1.46929504830483
 1 -6.99828253655366  1.22921925032503  1.92054447704770
 1 -8.23132162346235  2.33203537363736  0.93957295449545
 1  1.47822000330033  2.00018262626263  1.30611061866187
 1  0.54797883798380  2.72759084688469  2.84261461596160
 1  1.74074969326933  0.32497888808881 -0.29173139923992
 1  1.96237449604961 -4.69272479567957 -1.62193025522552
 1  0.33184126452645 -4.31102101550155 -1.03316608630863
 1 -8.12738806380638  0.87281991599160 -3.09211012301230
 1  1.27692063216322 -4.72286659095910  1.59101878947895
 1  3.01632267516752 -5.25621210021002  0.60497443584358
 1  3.93881832563256 -4.03332086058606 -2.07091614421442
 1  5.17507962946295 -3.55812469326933 -0.97825274677468
 1  4.66478357465747 -2.40004205980598 -2.54980530283028
 1  5.00851365846585 -0.41173528232823 -1.65920260846085
 1 -9.34250377257726  0.72330322752275 -0.08996968316832
 1 -10.23230139523952  0.69400377877788 -1.92801254295430
 1  3.78889532093209  2.89000156875688  3.79666784898490
 1  6.55886089168917  1.45427963446345 -1.54805230843084
 1  5.01992300250025  5.29963305530553 -2.30054710971097
 1  3.54504250835084  5.72964003390339 -1.01774485768577
 1  5.52172394389439  5.30580703530353 -0.71276302440244
 1  1.14141167966797 -7.91750299279928  1.34428410151015
 1  8.02930421222122  2.76700400670067 -2.89953871607161
 1  6.65689713401340  4.22417998929893 -2.90134302340234

