%nproc=4
%Mem=2GB
# td=(NStates=1) B3LYP/SVP 

TD

0 1
 8 -5.41233659545955 -0.12209809480948 -3.25027786058606
 8  2.87007383348335  3.18228395179518  3.39655591999200
 8  3.19628036583658  0.93016802590259  3.37361932313231
 8  1.76842097799780 -7.35478138253825  1.34564497429743
 8 -0.01753500410041 -6.64138504250425 -0.11159509070907
 8  2.03833729302930  4.05155812281228 -0.10671240684068
 7 -2.40108071077108 -0.72974798139814  0.56982350945094
 7 -4.40418432233223  0.71433568216822 -1.27771970407041
 7  1.88196792389239 -0.67527950895090 -0.57095853395340
 7  2.73145441584158  1.84027247734773 -0.51163863886389
 6 -4.93841608790879  1.19080926032603  0.00892134863486
 6 -4.47685229062906  0.32582900060006  1.25493755445545
 6 -3.00110356655666  0.16810169256926  1.40353569366937
 6 -1.95781082538254  0.73374552155216  2.06742754095410
 6 -0.62017590509051  0.17801924342434  1.74725348754875
 6 -0.99303367836784 -0.75964107320732  0.63738044634463
 6 -6.39832592999300  1.26589834573457 -0.16222463626363
 6  0.63741722502250  0.38451637473747  2.39851452025203
 6 -6.77751018271827  0.74703700890089 -1.39329018671867
 6 -0.26889263126313 -1.80018531963196 -0.03805662996300
 6  1.01968487968797 -1.81168368096810 -0.44262305550555
 6 -5.45978403650365  0.42713240644064 -2.12411185198520
 6  1.88690456035604 -2.93910748674868 -0.94116943354335
 6 -2.23586032723272  1.69664139613961  3.19394803480348
 6 -7.23365535773577  1.90055559155916  0.86116673057306
 6  3.11638716701670 -2.47156918121812 -1.29787094419442
 6  1.08898567116712  1.83657679987999  2.49986520492049
 6  3.05897243824382 -0.95791523092309 -1.08352198319832
 6  1.41526706460646 -4.36694107370737 -0.93253172707271
 6 -8.10846756765677  0.54748931333133 -2.08330305230523
 6  1.80211190129013 -5.10297654005401  0.38326465296530
 6  4.29442715911591 -3.12117338313831 -1.89788178557856
 6  4.02197113931393 -0.05342368056806 -1.35552574767477
 6  2.51742435783578  1.91895606990699  3.11317122222222
 6  3.80996552245225  1.31222047834783 -1.08937470817082
 6 -9.28214638763876  0.68473631743174 -1.52641140374037
 6  1.06486379477948 -6.38703743324333  0.49117991069107
 6  4.83914797969797  2.47396945194519 -1.37590131663166
 6  4.24983061756176  3.57078123832383 -0.90615018631863
 6  2.82718147414741  3.17715941734173 -0.51906045304530
 6  6.17408541294129  2.24185605700570 -1.98852038083808
 6  4.67934872827283  5.01848336553655 -1.11242391429143
 6  6.98513606500650  3.21237765916592 -2.47546221432143
 1 -4.54235218591859  2.25333037793779  0.13931347334733
 1 -5.01784021312131 -0.75675066616662  1.18221947024702
 1 -4.95120523972397  0.69676390549055  2.10598273277328
 1 -2.69804721512151 -1.13699055655566 -0.48183057435744
 1 -3.55793148644865  0.54496757295730 -1.51940913821382
 1  0.42966955125513 -0.08505853235324  3.22440777297730
 1  1.32354079807981 -0.31072095609561  1.84917323772377
 1 -0.84438493099310 -2.68292625592559 -0.37477765936594
 1 -3.21368352035204  1.40979756505651  3.82674884248425
 1 -1.36728158755876  1.82528115561556  3.89908963356336
 1 -2.55344814411441  2.91862049784978  2.74117627162716
 1 -6.47972186728673  2.62503145524552  1.27593571237124
 1 -7.50956366466647  1.38255458385839  1.81493391599160
 1 -7.95622411371137  2.40219238933893  0.38777777497750
 1  1.21449363066307  2.45366797479748  1.51141114871487
 1  0.25099914001400  2.33230131793179  3.02943329782978
 1  1.69544516281628  0.25868225842584 -0.41793401950195
 1  2.04471272987299 -4.77416293949395 -1.86603466566657
 1  0.29810789118912 -4.62130204360436 -1.25067783748375
 1 -7.73782910791079  0.14551718571857 -3.08095900790079
 1  1.44483742384238 -4.67660196449645  1.34995468306831
 1  2.89655069796980 -5.19426590559056  0.58804274267427
 1  3.94963940774077 -4.15371289978998 -2.19485853845385
 1  4.95359748124813 -3.17257613841384 -1.13658858035804
 1  4.68303539983998 -2.57662971857186 -2.83140346264626
 1  5.06995980308031 -0.48037214601460 -1.79390607880788
 1 -9.21822134433443  0.84816571377138 -0.49991067726773
 1 -10.08745691079108  0.57706208460846 -2.18216795849585
 1  3.93464989638964  2.95522809140914  3.63222140434043
 1  6.68533353895389  1.17635184168417 -1.96666416961696
 1  5.18247925812581  5.22820591259126 -2.28457551255126
 1  3.90361836593659  5.49228629852985 -0.69419250245025
 1  5.58677044854485  5.39611606620662 -0.23168491659166
 1  1.18267580608061 -8.16845808830883  0.99685935903590
 1  8.03188447024703  3.00611791809181 -2.92464122632263
 1  6.81853329762976  4.16537410871087 -2.69258214731473

