%nproc=4
%Mem=2GB
# td=(NStates=1) B3LYP/SVP 

TD

0 1
 8 -5.43390875267527 -0.12146803180318 -3.29676250905091
 8  2.86432325842584  3.09029475287529  3.21197746214621
 8  3.21399213701370  0.89686469556956  3.24258621982198
 8  1.51578571447145 -7.28843474787479  1.33888429822982
 8  0.21483823322332 -6.85432633663366 -0.40371430263026
 8  2.15371883118312  4.00217318431843  0.12719098349835
 7 -2.42500310301030 -0.88244325092509  0.58110463756376
 7 -4.49024292819282  0.65269951855186 -1.30562249434943
 7  1.90064979207921 -0.60003198419842 -0.35265670377038
 7  2.76303757415742  1.87324577467747 -0.49949742474247
 6 -4.91374362066207  1.26021620102010 -0.08511805530553
 6 -4.47657226262626  0.49073549124912  1.24507656835684
 6 -3.02510596679668  0.27634251665167  1.25248058815882
 6 -2.03573861816182  0.72401454845485  2.12364316251625
 6 -0.77863175067507  0.18048949044904  1.77382614481448
 6 -0.98162253725373 -0.77795290439044  0.76635334363436
 6 -6.40458655605561  1.24006576247625 -0.22311072487249
 6  0.52361584488449  0.31919984308431  2.43968863766377
 6 -6.77998042974297  0.67568987418742 -1.44227508520852
 6 -0.22749849184918 -1.72094739583958  0.09796697239724
 6  1.13343625482548 -1.72728524112411 -0.32638143134313
 6 -5.61841990009001  0.29317901110111 -2.13448288908891
 6  1.91878774867487 -2.85530910691069 -0.73404872147215
 6 -2.20820756195620  1.82443417541754  3.23635227522752
 6 -7.21559355155516  1.89603513951395  0.86917753165317
 6  3.15010053835384 -2.39078110241024 -1.18913007010701
 6  1.09914668726873  1.85246838903890  2.45065028342834
 6  3.09464600560056 -0.94658409780978 -0.98510214121412
 6  1.40566610451045 -4.22405678527853 -0.88644711861186
 6 -8.09393611451145  0.52470703510351 -2.09730445244524
 6  1.81047273737374 -5.10437668006801  0.36674300080008
 6  4.26736445284528 -3.00502176797680 -1.86141813921392
 6  4.10332927512751 -0.01288962716272 -1.32259245434543
 6  2.50737335273527  1.86316049034904  3.09859976507651
 6  3.87497202310231  1.38366762306231 -1.05306107680768
 6 -9.32112028502850  0.63846168996900 -1.48806756935694
 6  1.05675298369837 -6.55593432293229  0.36822761546155
 6  4.86435049995000  2.41956401140114 -1.45336906340634
 6  4.29446508100810  3.66258041824182 -0.94234380568057
 6  2.98059681568157  3.25608731013101 -0.42539108610861
 6  6.06561456585659  2.19309118051805 -2.11866339513951
 6  4.81530232363236  5.01264278147815 -1.03326599849985
 6  6.91746929832983  3.09859628102810 -2.76212088018802
 1 -4.53852180288029  2.34997004190419 -0.00582104010401
 1 -4.95976440554055 -0.60853584468447  1.12016326462646
 1 -4.62344246344635  1.05210944004401  2.14155629012901
 1 -2.94428183858386 -1.29830668816882 -0.21282367366737
 1 -3.58313400670067  0.77825090129013 -1.65012220952095
 1  0.59076566086609  0.04399437293729  3.54582991519152
 1  1.37437588158816 -0.27277716171617  2.01619994039404
 1 -0.61874236673667 -2.70014797809781 -0.05194537613761
 1 -3.15461761376138  1.66302288758876  3.91181734933493
 1 -1.28490334973497  1.65478410591059  4.05423514811481
 1 -2.22748554785479  2.88257689348935  2.70562271627163
 1 -6.48717261236124  2.66494544664466  1.34090220902090
 1 -7.62828553685369  1.19593592199220  1.50850327292729
 1 -8.09727821912191  2.57528969906991  0.29075807300730
 1  1.31407358865887  2.20335294329433  1.45290529812981
 1  0.23314735483548  2.40669875767577  3.04166452095210
 1  1.60591620992099  0.34472086228623 -0.42702492859286
 1  1.96605486408641 -4.64736025922592 -1.92383044524452
 1  0.27635571597160 -4.34323423682368 -1.10504327402740
 1 -7.99023434843484  0.21914454845485 -3.12488340034003
 1  1.34291723182318 -4.71219552385238  1.33793348094809
 1  2.89075011791179 -5.31065754475448  0.22480641904190
 1  4.16568101190119 -4.21786931543154 -1.84923397599760
 1  5.25181730323032 -3.02775165596560 -1.48633355485549
 1  4.35123221952195 -2.57409946554655 -2.81062138443844
 1  4.96419922702270 -0.47082119091909 -1.80371705990599
 1 -9.46492601480148  0.61183208040804 -0.39287997419742
 1 -10.26373453855386  0.36945132353235 -2.06895663736374
 1  3.84874130553055  3.26133870247025  3.60712889508951
 1  6.23660866646665  1.12503671017102 -2.04940244344434
 1  4.62492350255026  5.33221631363136 -2.06712376737674
 1  4.23515151925193  5.67689475937594 -0.30286336953695
 1  5.73889566106611  5.11313776837684 -0.68882063016302
 1  1.08900643914391 -8.10556179867987  1.57248692179218
 1  7.92371365316532  2.62035934223422 -3.21987074927493
 1  6.85388683298330  4.25037260856086 -2.93323621272127

