%nproc=4
%Mem=2GB
# td=(NStates=1) B3LYP/SVP 

TD

0 1
 8 -5.32972833463346  0.09060317531753 -3.36588942174217
 8  2.95601242734273  3.01559728312831  3.04397066146615
 8  3.13318405620562  0.83403841294129  3.49690165136514
 8  1.47760189608961 -7.19650555495550  1.57734814461446
 8  0.66086283568357 -7.00907181118112 -0.53808773997400
 8  2.09563302260226  3.95640860786079  0.04750301470147
 7 -2.33555415811581 -0.76949195579558  0.54739126622662
 7 -4.55222912681268  0.69344359295930 -1.23849578167817
 7  1.81030075717572 -0.59118109910991 -0.37946938503850
 7  2.84629589999000  1.83974242434243 -0.41450892589259
 6 -4.90122236853685  1.25453563296330 -0.03766330983098
 6 -4.54332893829383  0.44674109180918  1.16419848054805
 6 -3.03770722692269  0.12787767016702  1.42820816091609
 6 -1.96932197649765  0.76598874587459  2.15883668186819
 6 -0.70104399189919  0.19185062656266  1.78108687088709
 6 -1.03808818381838 -0.81807691679168  0.76881358965897
 6 -6.36366246364636  1.27280903680368 -0.23093150695070
 6  0.55203868716872  0.31113903700370  2.53626829562956
 6 -6.67889032073207  0.85849815501550 -1.40644150185019
 6 -0.28948469046905 -1.82654795589559  0.12089926562656
 6  1.05898881008101 -1.79506201880188 -0.28294708790879
 6 -5.44982304040404  0.49821951515151 -2.20290973177318
 6  1.89570544044404 -2.92513608960896 -0.79143446004600
 6 -2.24734147534753  1.73601533353335  3.18638727872787
 6 -7.31110310251025  1.85906144214421  0.86749736363636
 6  3.13763929222922 -2.43534555885589 -1.13382453955396
 6  1.08176494909491  1.70838398059806  2.35127034543454
 6  3.05979252025203 -1.02855229462946 -0.98093172417242
 6  1.37143268116812 -4.27663204280428 -0.84100257415742
 6 -8.00362708360836  0.70206477087709 -2.03568829082908
 6  1.68777046714671 -5.06551279367937  0.39357568406841
 6  4.18466618301830 -3.24003526932693 -1.89554155155516
 6  4.04119306150615 -0.05770410861086 -1.26812700780078
 6  2.45986860226023  1.80083425772577  2.96088599369937
 6  3.88481300720072  1.37512676897690 -1.06095186588659
 6 -9.17148532153215  0.71641948574857 -1.41148991159116
 6  1.19368667706771 -6.52595132463246  0.36175696839684
 6  4.84980904580458  2.52295435043504 -1.50422414891489
 6  4.14778041254125  3.62392655285529 -1.21645121642164
 6  2.94756351235124  3.25699740114011 -0.46804535153515
 6  6.06514451885189  2.33999587098710 -2.20171169997000
 6  4.52544333773377  5.07370888808881 -1.27308998089809
 6  6.98662621402140  3.29243566496650 -2.51234590269027
 1 -4.38263621432143  2.17569261416142 -0.06988744674467
 1 -4.73398182728273 -0.61499649074907  0.92050329862986
 1 -4.92922304150415  0.55330956005601  2.20138227272727
 1 -3.02504991539154 -1.37628448594859 -0.15752814411441
 1 -3.56795248854886  0.83756683288329 -1.61102830013001
 1  0.00272685698570  0.14086405990599  3.64102943514351
 1  1.25282372637264 -0.33484336833683  2.26793511391139
 1 -0.86510700320032 -2.85796375967597 -0.27338752035204
 1 -3.30791294329433  1.77825441074107  3.58932510011001
 1 -1.73131799119912  1.44035266276628  3.95231495609561
 1 -1.75372817211721  2.76329496529653  2.84622677667767
 1 -6.74269816491649  2.50666961906191  1.53218133693369
 1 -7.76851956025603  0.99758608700870  1.35921834443444
 1 -8.35610410171017  2.20503267336734  0.32235123232323
 1  1.10614279557956  2.35402801080108  1.42749275687569
 1  0.46084012411241  2.48537662546255  2.95420577507751
 1  1.48545416371637  0.40370676087609 -0.29139136523652
 1  1.69600785938594 -4.87405292849285 -1.76944500670067
 1  0.26979505990599 -4.36307622102210 -0.92005477517752
 1 -7.86927225222522  0.45428806280628 -3.04617552955296
 1  1.50318325842584 -4.44119842414242  1.24000368796880
 1  2.82628367126713 -4.92093857285729  0.46604054245424
 1  3.68646309010901 -4.38504603310331 -2.06063511611161
 1  5.08069019051905 -3.32689156995700 -1.15413033453345
 1  4.39600669696970 -2.77230928652865 -2.83358368066807
 1  5.02684549164916 -0.41593570237024 -1.86831351955195
 1 -9.37060658285829  0.70882177937794 -0.35886657285729
 1 -9.98526669176918  0.49832421082108 -2.05073481518152
 1  3.92255868726873  2.83576614521452  3.55131331353135
 1  6.40291529712971  1.18981318781878 -2.12548005120512
 1  4.64944595479548  5.47266035803580 -2.38217527252725
 1  3.84491249534954  5.62694976487649 -0.58546162936294
 1  5.39622139363936  5.41687814241424 -0.57194894299430
 1  1.10036757525753 -8.13099434193419  1.50257993109311
 1  7.88760004180418  2.86885419171917 -2.91356011821182
 1  7.08853029732973  4.41528910021002 -2.26458934803480

