%nproc=4
%Mem=2GB
# td=(NStates=1) B3LYP/SVP 

TD

0 1
 8 -5.17660302210221  0.25058917391739 -3.43662649544954
 8  2.85643246934693  3.07115283868387  3.36156242064206
 8  3.31509224702470  0.88907391649165  3.15386734793479
 8  1.47100123602360 -7.26075197959796  1.60444085388539
 8  0.61867861726173 -7.20812171617162 -0.40938486968697
 8  1.74709816911691  4.01528449544955 -0.11799353495350
 7 -2.34825542824282 -0.93098810541054  0.57099362646265
 7 -4.31391529542954  0.76848109670967 -1.29526145824582
 7  1.77896762386239 -0.72796477747775 -0.35860729882988
 7  2.58491976237624  1.83041149124912 -0.50539801480148
 6 -4.68336058235824  1.31322150155015 -0.07677722122212
 6 -4.41242584798480  0.40407682538254  1.14262632333233
 6 -2.90289374557456 -0.02340745834583  1.29450479057906
 6 -2.00655569986999  0.62200434743474  2.14337513571357
 6 -0.75191907940794  0.03938538003800  1.78889765196520
 6 -1.01333570857086 -0.98337344644464  0.81120782908291
 6 -6.24015011241124  1.46461821772177 -0.24427284108411
 6  0.59013249654966  0.26913483658366  2.43510817961796
 6 -6.61950438213821  1.04328663386339 -1.45454631233123
 6 -0.21729747174717 -2.04472977407741  0.26686386208621
 6  1.07447035823582 -1.89937244984498 -0.25676446964696
 6 -5.34358241634163  0.56168586178618 -2.24403384418442
 6  1.90386625652565 -2.99037261326133 -0.84765008160816
 6 -2.22247898909891  1.73179491149115  3.14499313931393
 6 -7.06283827602760  1.96947248324833  0.91734234813481
 6  3.07080260856086 -2.41093311761176 -1.19382053915392
 6  1.19641641424142  1.61940508270827  2.50351556995700
 6  3.07294383538354 -0.99276871627163 -0.95990962196220
 6  1.41198673657366 -4.38041242084208 -0.86632510641064
 6 -7.90381710261026  0.94809937433743 -2.04557927992799
 6  1.68489017911791 -5.10855709810981  0.50525685218522
 6  4.32776049244924 -3.03295456125613 -1.69670166756676
 6  4.00804974717472  0.02691435323532 -1.29041923702370
 6  2.52682529792979  1.79213338763876  3.04637454255426
 6  3.69564409030903  1.37823708000800 -1.09664543524352
 6 -9.11244941794179  0.87469531333133 -1.48566732933293
 6  1.26689399779978 -6.61646037553755  0.49614040674067
 6  4.61092515741574  2.56501855685569 -1.52816654315432
 6  3.90316595109511  3.64849901010101 -1.10769034033403
 6  2.65832458845885  3.24647634903490 -0.53208175517552
 6  5.96171417581758  2.43274514591459 -2.08153968276828
 6  4.46502729612961  5.04771628882888 -1.13042571447145
 6  6.63640119151915  3.34165058645865 -2.74253892199220
 1 -4.28486643734373  2.28702374727473  0.03608315031503
 1 -5.01518994809481 -0.42849784088409  0.90609185748575
 1 -4.87381750095010  0.96240046914691  1.98448058255826
 1 -2.73609101950195 -1.23315017251725 -0.31725411671167
 1 -3.30469616291629  0.79826290249025 -1.69974717201720
 1  0.45564214851485 -0.31484151065107  3.33388872107211
 1  1.33517196119612 -0.37299718371837  1.86811513191319
 1 -0.73328382088209 -2.93586154945495  0.09832965136514
 1 -3.11044319631963  1.83759034433443  3.56321248884888
 1 -1.54813967336734  1.59811843934393  4.02604232883288
 1 -1.69677247654765  2.51086972277228  2.63888604260426
 1 -6.60914480958096  2.54512346444644  1.27750586938694
 1 -7.32067477577758  1.20148647704770  1.76788921152115
 1 -8.18315680698070  2.32135430553055  0.52349134633463
 1  1.00763294459446  2.12983559155916  1.34340434803480
 1  0.57477151725173  2.02312039983998  3.25466582108211
 1  1.44171979027903  0.24562095229523 -0.26362858895890
 1  2.07637589618962 -4.99969549274928 -1.62576063826383
 1  0.37392547294729 -4.50450036343634 -1.39072184188419
 1 -7.82729805480548  0.89093172717272 -3.14029494149415
 1  1.09547248734873 -4.50922522682268  1.32025171277128
 1  2.81243228612861 -5.15883236223622  0.92543648204820
 1  4.40402484628463 -4.25036256475648 -1.98370742334233
 1  5.14692681418142 -3.00546942774277 -1.13734865636564
 1  4.36707380368037 -2.63252530813081 -2.74461478377838
 1  4.92026483358336 -0.32468657745775 -1.70082677087709
 1 -9.27420694289429  1.03724462166217 -0.53104379057906
 1 -10.00637880298030  0.93410778917892 -2.01383112481248
 1  3.86338276967697  3.00441300990099  3.37690587278728
 1  6.26067107270727  1.34825903240324 -1.95316281948195
 1  4.36644765496550  5.24560765276528 -2.10589764476448
 1  3.96631463556356  5.72374944484448 -0.52069515271527
 1  5.51997376887689  4.96180263486349 -0.95444719281928
 1  1.27625516401640 -8.33495473797380  1.67819749284928
 1  7.53544482628263  3.08720602690269 -3.19077783998400
 1  6.19977142144215  4.27810538183818 -3.02565545464546

