%nproc=4
%Mem=2GB
# td=(NStates=1) B3LYP/SVP 

TD

0 1
 8 -5.44014937673767  0.20441455645565 -3.31682451525153
 8  2.91151797789779  3.02755847924792  3.19825609000900
 8  2.96930766856686  0.85119012811281  3.43925588678868
 8  1.68919305520552 -7.29437534193419  1.37282769256926
 8  0.30168691809181 -6.85175607960796 -0.45547947914791
 8  2.19960341964196  4.05829879687969 -0.11888362396240
 7 -2.37348795149515 -0.74853986058606  0.49666619371937
 7 -4.52284618851885  0.60903515211521 -1.27598953105311
 7  1.88162788988899 -0.57165914691469 -0.28852029012901
 7  2.77685895629563  1.84197264736474 -0.67060453545355
 6 -4.94736698299830  1.14539471887189 -0.03092263576358
 6 -4.52094670007001  0.28612503020302  1.15201726242624
 6 -3.03335679187919  0.08952383478348  1.30718605870587
 6 -2.09289433373337  0.69521166816682  2.13042384058406
 6 -0.79965385288529  0.16307774927493  1.83192195439544
 6 -1.04688906390639 -0.81100620972097  0.89903661196120
 6 -6.45311140854085  1.22706446234623 -0.16365477927793
 6  0.52330581388139  0.36491441454145  2.52263693249325
 6 -6.85418785048505  0.86132843804380 -1.41137199489949
 6 -0.20851659365937 -1.76711201230123  0.11176835253525
 6  1.14759767096710 -1.74919743234323 -0.12750154335434
 6 -5.55937399549955  0.52512220542054 -2.17696713751375
 6  1.89191506140614 -2.86732030803080 -0.86258157475748
 6 -2.26890363156316  1.79886161816182  3.17406604660466
 6 -7.31633362556256  1.60577611361136  1.07632824672467
 6  3.16529205750575 -2.39773179747975 -1.13303446054605
 6  1.01740851345134  1.82288543074307  2.55179039743974
 6  3.11836837783778 -0.90828026742674 -0.90364399539954
 6  1.36527206510651 -4.23492787238724 -0.97389586348635
 6 -8.08758547944795  0.67118168256826 -2.12495721772177
 6  1.75602729282928 -4.99893613601360  0.35086141264126
 6  4.25074279067907 -3.06724799059906 -1.76415841324132
 6  4.22655159735974  0.02969463126313 -1.21836203130313
 6  2.40277289268927  1.85016919121912  3.07345725082508
 6  3.89570409630963  1.34048330463046 -1.13955972667267
 6 -9.33277145014502  0.70300814461446 -1.52955171777178
 6  1.11354866326633 -6.48584731423142  0.42718351105111
 6  4.88710277517752  2.44572662766277 -1.40294402090209
 6  4.34163979847985  3.65684984518452 -1.18322789408941
 6  3.02690144614461  3.25024672607261 -0.54295284228423
 6  6.19320732513251  2.17603947534753 -2.14122565136514
 6  4.83182397579758  5.02671418861886 -1.28860153205321
 6  7.03203075447545  3.07720414181418 -2.70759542764276
 1 -4.37407535823582  2.25557060196020  0.19601914391439
 1 -4.88162659175918 -0.65796078717872  1.13466471477148
 1 -4.96445656485649  0.82368659775978  2.09249138363836
 1 -2.75593300370037 -1.53386024352435 -0.30779317061706
 1 -3.52970866416642  0.26872994919492 -1.70604780208021
 1  0.39062564686469  0.02191216471647  3.56071140334033
 1  1.41548999299930 -0.12472235623562  2.14212253265327
 1 -0.85533602610261 -2.74325228852885 -0.05645582718272
 1 -3.34632678467847  1.74608119341934  3.55434160176018
 1 -1.66423128252825  1.26821544904490  3.97202692729273
 1 -2.12763556285629  2.85928456425643  2.82454460846085
 1 -6.65375927102710  2.29425837793779  1.67379549834984
 1 -7.31668437673767  0.76824315271527  1.74665708830883
 1 -8.03884237553755  2.09887205730573  0.56449544674468
 1  1.11561374267427  2.15354796279628  1.57883789138914
 1  0.37853189328933  2.47704579237924  3.05092544704471
 1  1.69247486578658  0.40733712391239 -0.06191841794179
 1  1.84827308590859 -4.84775029822982 -1.75714377657766
 1  0.29449753015302 -4.40272018541854 -0.98675144484448
 1 -7.89570489548955  0.48215084908491 -3.17464837683768
 1  1.33016595669567 -4.55520982528253  1.15113480108011
 1  3.00812185508551 -5.22492897189719  0.42109604800480
 1  4.28504294809481 -4.19273680218022 -1.56709576217622
 1  5.20050217171717 -2.83155203600360 -1.20277519901990
 1  4.35390248654866 -2.78841089668967 -2.95279560186019
 1  5.07097990509051 -0.43573768256826 -1.58239492769277
 1 -9.41790131233123  1.03260415761576 -0.45580626682668
 1 -10.31634980008001  0.53179755815582 -1.97440718241824
 1  3.80268670007001  2.84419698829883  3.65836401860186
 1  6.59598460406041  1.23951815831583 -1.91904940814081
 1  4.67042805300530  5.39260235223522 -2.30107716271627
 1  3.91600960506051  5.60368743864386 -0.95282836603660
 1  5.80336210771077  5.29879633423342 -0.74911665976598
 1  1.24683222172217 -8.19180042254225  1.33353302640264
 1  7.79033031483148  2.67091439773977 -3.27958672087209
 1  6.75083652795280  3.96783435473547 -2.89964285338534

