%nproc=4
%Mem=2GB
# td=(NStates=1) B3LYP/SVP 

TD

0 1
 8 -5.55116047784778  0.34562867786779 -3.41917475027503
 8  2.88014484058406  3.04456017941794  3.30269653405341
 8  3.20699143694369  0.80344535363536  3.10177213841384
 8  1.30468460436044 -7.14571047544754  1.59470988078808
 8  0.63877062646265 -7.04910581458146 -0.64673860506051
 8  1.76056951625163  4.03963693069307 -0.25647738333833
 7 -2.34143474617462 -0.84562956955696  0.60061658875888
 7 -4.45942984688469  0.57165141374137 -1.37644957705771
 7  1.93472319941994 -0.74892687368737 -0.33780521862186
 7  2.62153342374237  1.87039548964896 -0.55472294729473
 6 -4.81322356865687  1.15154533393339 -0.02526206970697
 6 -4.41447605300530  0.17116353405341  1.27607966866687
 6 -2.96244970117012  0.04745962836284  1.29866520662066
 6 -2.01385642994299  0.69366151315132  2.07804860306031
 6 -0.79656354385439 -0.00194875337534  1.86264502670267
 6 -0.98173254825483 -0.90788589768977  0.76822353065307
 6 -6.33654975237524  1.37858961486149 -0.20032844664466
 6  0.57433091639164  0.35268319141914  2.56027069586959
 6 -6.80054248594859  0.92314461966197 -1.42171302900290
 6 -0.18491423342334 -1.93030833193319  0.13157033273327
 6  1.19306221742174 -1.79633214581458 -0.32264105730573
 6 -5.55583364146415  0.61285097829783 -2.21516095689569
 6  2.04746061596160 -2.94555813181318 -0.77553286988699
 6 -2.11304804600460  1.71750348234823  3.11300994099410
 6 -7.24478647084709  1.91360689668967  1.01342195609561
 6  3.23047857615762 -2.43668569286929 -1.09383054015402
 6  1.01537831043104  1.75148829102910  2.54481970037004
 6  3.16052259325933 -0.97898733813381 -0.87753138413841
 6  1.59561509940994 -4.38572295189519 -0.76469494339434
 6 -8.03049977087709  1.03879844424442 -2.06760148214821
 6  1.69871156125613 -5.25437167956796  0.47877420392039
 6  4.53542125852585 -3.02972423822382 -1.58521051845185
 6  4.02466140834083  0.00031169296930 -1.23158335343534
 6  2.48025064046405  1.75282945724572  2.99394930003000
 6  3.76897142304230  1.38843810011001 -1.08092386308631
 6 -9.22950112311231  0.98574641844184 -1.49782854545455
 6  1.21155846424642 -6.59794852435244  0.35434622732273
 6  4.81099516441644  2.51767382238224 -1.41444517101710
 6  4.12889852435244  3.60746490669067 -1.09271884318432
 6  2.72764152015201  3.29326102750275 -0.53970251725173
 6  6.11446945134514  2.35791766316632 -2.00698222702270
 6  4.54024481788179  5.06512803000300 -1.40665333723372
 6  6.88228577997800  3.25208162956296 -2.73269793789379
 1 -4.51928987968797  2.09647469236924  0.25293483548355
 1 -4.88715714481448 -0.80447543864386  1.12846409470947
 1 -4.53845396459646  0.58008223732373  2.30809294379438
 1 -2.86970438083808 -1.38690554805481 -0.08420081138114
 1 -3.59147484078408  0.51271434763476 -1.75698289558956
 1  0.42229881418142 -0.01682170867087  3.63963929612961
 1  1.35823426742674 -0.60445032903290  2.49081740214021
 1 -0.65191568406841 -2.77136509980998 -0.04167434903490
 1 -3.15420757275728  1.42649923522352  3.89513568116812
 1 -1.23451831123112  1.60133876137614  3.90449017361736
 1 -2.09722252155216  2.79472810861086  2.77186934093409
 1 -6.71186508160816  2.74465341744174  1.38928704750475
 1 -7.27163987228723  0.94679100750075  1.65095751835184
 1 -8.31765025632563  2.22193436353635  0.63110210741074
 1  1.05399758105811  2.20418302630263  1.49636964456446
 1  0.36983102320232  2.56598468626863  3.02779313381338
 1  1.69868548684868  0.11658804900490  0.04810258415842
 1  2.41697995659566 -4.99273479667967 -1.53788185038504
 1  0.67664574497450 -4.50582049544954 -1.29029179887989
 1 -7.82827815281528  1.19218185218522 -3.09880079207921
 1  1.11991493159316 -4.97442174647465  1.40865055265527
 1  2.70803184608461 -5.28813529252925  0.83690762916292
 1  4.47329177297730 -4.03571109960996 -1.72571162376238
 1  5.27810993249325 -3.04293317411741 -0.69816473797380
 1  5.09196629292929 -2.48888094369437 -2.45372569486949
 1  5.00205301240124 -0.27589169796980 -1.60531721992199
 1 -9.35276479867987  0.83404430163016 -0.27731841804180
 1 -10.04827299239924  0.99514389278928 -2.28841858355836
 1  3.78403483488349  3.08420098869887  3.52121030323032
 1  6.28841384698470  1.29286349284929 -1.83145064826483
 1  4.47357836803680  5.15886897889789 -2.45484253925393
 1  3.57160516461646  5.85560263016302 -1.17356043924392
 1  5.35722749424943  5.40643709830983 -0.92014376247625
 1  0.82247978647865 -8.01809305180518  1.69871954505451
 1  7.82112339413941  2.85639294559456 -3.07009577177718
 1  6.52348379267927  4.30118769006901 -3.11192408150815

