%nproc=4
%Mem=2GB
# td=(NStates=1) B3LYP/SVP 

TD

0 1
 8 -5.37959332113211  0.35295941094109 -3.38581141394139
 8  2.82380920702070  3.09379510291029  3.29133539793979
 8  3.18652939073907  0.84857986708671  3.60695265646565
 8  1.43353748964896 -6.97421332573257  1.75327573737374
 8  0.65879262866287 -7.04989589358936 -0.43758768996900
 8  2.04775823512351  4.10422338933893 -0.10164189978998
 7 -2.37140774347435 -0.88180318691869  0.49984651175118
 7 -4.42379628352835  0.56434068266827 -1.29240117221722
 7  1.86613634073407 -0.66834881588159 -0.34497593569357
 7  2.64750602100210  1.86715516561656 -0.67550502550255
 6 -4.81150339663966  1.14098427782778 -0.03528307180718
 6 -4.49722432783278  0.34713113081308  1.31771383208321
 6 -3.01111456765677  0.01185606800680  1.38797413751375
 6 -1.87446249054906  0.47797994499450  2.23259405760576
 6 -0.68900278777878 -0.08785734423442  1.86494525672567
 6 -1.02218659365937 -0.90093520262026  0.81758846714671
 6 -6.27881397879788  1.34488624452445 -0.14588300210021
 6  0.51885536883688  0.23084100720072  2.61305597439744
 6 -6.68586101780178  0.86254856005601 -1.39355021272127
 6 -0.19326506850685 -1.88632393349335  0.08438561426143
 6  1.11604451565157 -1.80636314891489 -0.35480427362736
 6 -5.48071612971297  0.57816750995099 -2.19122856365637
 6  1.86034190409041 -2.89629320532053 -0.93943926052605
 6 -2.22151889308931  1.61019275127513  3.27104574457446
 6 -7.31045303750375  1.97619315531553  0.79482009590959
 6  3.08840436873687 -2.33068509280928 -1.24440559765977
 6  1.08448522112211  1.63629677187719  2.60713593199320
 6  3.03549009000900 -1.00969040844084 -0.96916054705471
 6  1.39248478637864 -4.35843022262226 -0.96466494039404
 6 -7.98729545044505  0.85626019041904 -2.16751147314731
 6  1.67625931603160 -5.05480172257226  0.42780910741074
 6  4.32865058145815 -2.94560582638264 -1.90421241864186
 6  4.01786072827283 -0.00590892909291 -1.32242243734373
 6  2.55715833123312  1.73979815411541  3.19960986608661
 6  3.76204072997300  1.38812806910691 -1.17634340504050
 6 -9.20237841084109  0.84971281508151 -1.64269303190319
 6  1.25340264866487 -6.48887761726173  0.47656844954495
 6  4.77993205810581  2.47981003600360 -1.50570429692969
 6  4.14942057655766  3.66892105230523 -1.16060563186319
 6  2.78301705770577  3.26509821122112 -0.65810435743574
 6  6.06484448884888  2.20474234563456 -2.17055858465847
 6  4.60695148854886  5.06047756495650 -1.25198787068707
 6  6.82835038643864  3.12392881428143 -2.84180884898490
 1 -4.37527547824782  2.07532257715772 -0.02614307230723
 1 -4.88252668176818 -0.94389938103810  1.19245049334934
 1 -4.89770989018902  0.68265249434944  1.98669080358036
 1 -2.84666207660766 -1.32136899439944 -0.09808219951995
 1 -3.55146083938394  0.69065214141414 -1.61432863016302
 1  0.54329091339134  0.01008098159816  3.74048938113811
 1  1.41425986998700 -0.42979286328633  2.14076239663966
 1 -0.79194968746875 -2.92815077837784 -0.16075625722572
 1 -3.21293344534453  1.70735732103210  3.40391655925592
 1 -1.76408126752675  1.17949657715772  4.42529225382538
 1 -1.65251805110511  2.51641027682768  2.90146230023002
 1 -6.78169206430643  2.58820777287729  1.53789190799080
 1 -7.80127283558356  1.30726705510551  1.42088451105111
 1 -8.04236272757276  2.65544771487149  0.17241623882388
 1  1.20394257555756  1.90400300830083  1.37667767536754
 1  0.29777381748175  2.05895398319832  3.39031938643864
 1  1.81904752305231  0.36053244344434 -0.30985321142114
 1  2.07150540914091 -4.63617914111411 -1.67288535073507
 1  0.44589266966697 -4.46796671007101 -1.10242301200120
 1 -7.83121844684468  0.71563419741974 -3.12903381538154
 1  1.01120406050605 -4.42838714301430  1.17291697929793
 1  2.76837788068807 -5.09449592859286  0.87839177757776
 1  3.90808525232523 -3.82580010851085 -2.04429348194819
 1  5.10358247974798 -3.10954983578358 -1.04003892539254
 1  4.64854195049505 -2.34497655325533 -2.67697802010201
 1  4.92716552365237 -0.47328143694369 -1.77853454165417
 1 -9.34903442564256  0.90903180038004 -0.69657034323432
 1 -9.94685285038504  0.81728610701070 -2.38303804550455
 1  3.69373580498050  3.09111167976798  3.61682986518652
 1  6.28103310891089  1.15162936943694 -2.06796429962996
 1  4.43134414461446  5.41848494049405 -2.45966302130213
 1  3.77545554965497  5.58316538643864 -0.60794387758776
 1  5.67541931343134  5.25982243684368 -0.76714846294629
 1  1.08286582508251 -7.89591083358336  1.63343301640164
 1  7.94794607640764  2.84011131743174 -3.03226198839884
 1  6.50409185348535  4.31879945124513 -3.03248613771377

