%nproc=4
%Mem=2GB
# td=(NStates=1) B3LYP/SVP 

TD

0 1
 8 -5.35641100290029  0.14979909490949 -3.32345517831783
 8  2.76917374347435  3.08697442084208  3.63966023042304
 8  3.11341207900790  0.87987299639964  3.37217917911791
 8  1.75017915381538 -7.31050695509551  1.46371678147815
 8  0.27084383378338 -6.91879278327833 -0.27802173337334
 8  2.10201366066607  3.95075804280428 -0.01395313091309
 7 -2.34439504220422 -0.75541054765477  0.57823435053505
 7 -4.38093199709971  0.66954120272027 -1.28643057515752
 7  1.94680440754075 -0.68813079407941 -0.40499193729373
 7  2.80314158455846  1.87703615371537 -0.53536101110111
 6 -4.82430467676768  1.24814499389939 -0.00228977247725
 6 -4.44547915331533  0.33776019371937  1.22954501520152
 6 -2.92840629682968  0.18305318771877  1.26514185428543
 6 -1.93791883618362  0.73898604560456  2.14415521372137
 6 -0.72732662016202  0.05146658815882  1.73230199239924
 6 -1.00225460046005 -0.86795190429043  0.73922063036304
 6 -6.42173827122712  1.39770152605261 -0.18280669446945
 6  0.54868835213521  0.40376829992999  2.54873954275428
 6 -6.67718014971497  0.78300060526053 -1.43150400810081
 6 -0.23429917191719 -1.88333363446345  0.14739191489149
 6  1.14702761396140 -1.78473098569857 -0.25954474767477
 6 -5.46862492059206  0.48356805000500 -2.13601304210421
 6  1.93480935083508 -2.88873244924492 -0.83731904850485
 6 -2.21441818301830  1.70920265226523  3.16388502850285
 6 -7.28810080228023  1.83346888288829  0.91011162506251
 6  3.12227775607561 -2.40190221452145 -1.33996515361536
 6  1.01616838943894  1.77621076327633  2.59884510291029
 6  3.04770131113111 -1.00309974937494 -1.04957858885889
 6  1.43778931683168 -4.26531091069107 -0.78958743264326
 6 -8.02570929182918  0.71732629702970 -2.21667638963896
 6  1.82527421752175 -5.11797804020402  0.44211053755376
 6  4.13975169156916 -3.20838210401040 -1.99928192559256
 6  3.96159510171017  0.03565522732273 -1.41357155225523
 6  2.33329594499450  1.78787296159616  3.27680758585859
 6  3.88297282318232  1.42233148944894 -1.12962873357336
 6 -9.20712888588859  0.76657450125012 -1.58944770737074
 6  1.14684199259926 -6.59803853335334  0.45588638133813
 6  4.72101616651665  2.45758781378138 -1.60096382288229
 6  4.14310994549455  3.61716587678768 -1.20414998629863
 6  2.93738249424942  3.23317501890189 -0.47460600760076
 6  6.00060806520652  2.22845471687169 -2.31635316411641
 6  4.64341513491349  5.10347186438644 -1.25548822072207
 6  6.91546909830983  3.25010143154315 -2.66106077417742
 1 -4.44919286998700  2.18307335223522  0.06198574057406
 1 -4.81449987908791 -0.83818880998100  1.01910315861586
 1 -4.90994111331133  0.69919414851485  2.11171330583058
 1 -2.75078248864886 -1.30887774527453 -0.19873226452645
 1 -3.43761945524553  0.68436151235123 -1.49272646994699
 1  0.25201178547855 -0.01485151165117  3.50185551775177
 1  1.29510795479548 -0.26099598359836  2.17485580598060
 1 -0.74947544004401 -2.90786875017502 -0.02869305090509
 1 -3.27014916691669  2.00167675297530  3.23173934153415
 1 -1.89364422382238  1.56122474997500  4.17436716131613
 1 -1.64213701300130  2.70964960076008  2.91428358235824
 1 -6.72049594469447  2.47959691179118  1.46359447824782
 1 -7.94692740104010  1.00232656105611  1.19586200880088
 1 -8.10959945124512  2.52009417951795  0.55499449664966
 1  1.12364454575458  2.39148175617562  1.61065107270727
 1  0.41194523462346  2.54353244104410  3.24512486698670
 1  1.88143376167617  0.36829321952195 -0.25479770587059
 1  1.84498275687569 -4.81139666286629 -1.79822788498850
 1  0.35150323072307 -4.41479139253925 -0.80378314801480
 1 -7.98649397439744  0.58283091709171 -3.32442335433543
 1  1.26641958205821 -4.78404270857086  1.32971265886589
 1  2.87993903680368 -5.36969344834483  0.69947388578858
 1  3.92854729852985 -4.14711223972397 -2.27702675527553
 1  5.07068919041904 -3.30513939473947 -1.35973089458946
 1  4.44627172347235 -2.43868592419242 -2.82545286758676
 1  4.94013682078208 -0.57897200600060 -1.65727241544154
 1 -9.48607813001300  0.99437033423342 -0.42823350955096
 1 -10.08220638573857  0.79024340274027 -2.37315705740574
 1  3.60483691509151  2.89984255285529  4.09164734693469
 1  6.12284729032903  1.21211541804180 -2.56517402060206
 1  4.74986599679968  5.48901199319932 -2.33149020402040
 1  3.87532553665367  5.71291836173617 -0.84558764196420
 1  5.66471824332433  5.25876233083308 -0.63500524862486
 1  1.10792833133313 -8.12914415691569  1.59027870097010
 1  7.80629191099110  2.92886019231923 -3.32912167436744
 1  6.64970641494149  4.23172074337434 -2.57438032713271

