%nproc=4
%Mem=2GB
# td=(NStates=1) B3LYP/SVP 

TD

0 1
 8 -5.48783414521452  0.14593870887089 -3.34174700750075
 8  2.82271909800980  3.25752147554755  3.34274053845385
 8  3.17500823862386  0.99494450355035  3.37771973317332
 8  1.17793192909291 -7.24770067446745  1.43831424122412
 8  0.43896064546455 -6.98460936493649 -0.63783771497150
 8  2.15283874317432  4.03093606060606 -0.05022675827583
 7 -2.40639124182418 -0.82197720432043  0.45967249434944
 7 -4.49097300120012  0.65270951955196 -1.31654358645865
 7  1.92671239833983 -0.63659564056406 -0.29645108320832
 7  2.84235550595060  1.84037248734873 -0.45678315331533
 6 -4.87013926022602  1.28965914531453 -0.04805434893489
 6 -4.40484508990899  0.40523694139414  1.21184324502450
 6 -2.98574203040304  0.19566444884488  1.33533887398740
 6 -1.99938498279828  0.67544969196920  2.03743454165417
 6 -0.75913980148015  0.06589803130313  1.79866862906291
 6 -1.05412978797880 -0.77320242934293  0.59055576387639
 6 -6.46448254565457  1.25211696759676 -0.10164857865787
 6  0.51320480378038  0.28436635973597  2.53482815161516
 6 -6.77973040474047  0.71491379657966 -1.29993085078508
 6 -0.25757149914992 -1.88605390649065 -0.05331815611561
 6  1.05147805900590 -1.74406691929193 -0.27345613881388
 6 -5.51507956605661  0.42072176537654 -2.09169861066107
 6  1.95661153105311 -2.86835041104110 -0.76321163776378
 6 -2.20345708690869  1.63472520452045  3.23366200620062
 6 -7.28526051825183  1.75724126012601  1.11937255115512
 6  3.22910843914391 -2.32468449274928 -1.26448760586059
 6  1.01994876747675  1.71955509770977  2.48823404180418
 6  3.14216075707571 -0.89422886228623 -0.88655228622862
 6  1.52443798169817 -4.28345272487249 -0.78607708160816
 6 -8.07823454435444  0.63071763616362 -2.01428615061506
 6  1.55411710181018 -5.15667190959096  0.46228255475548
 6  4.35459317571757 -3.14052531833183 -1.71118311571157
 6  4.11738068026803 -0.01749008720872 -1.11741193629363
 6  2.48698131353135  1.95786996129613  3.11026093119312
 6  3.88728325422542  1.39253851015102 -1.00254602530253
 6 -9.29846801980198  0.61653949774977 -1.57285604820482
 6  1.11263857225723 -6.49681841134113  0.28089888258826
 6  4.94522858775878  2.45572762776278 -1.46594032053205
 6  4.24204983948395  3.61770593079308 -1.26008557985799
 6  2.92552130813081  3.32434413581358 -0.52448099509951
 6  6.28460646504650  2.32286415781578 -2.11147267606761
 6  4.65263605700570  5.06524804200420 -1.44794746664666
 6  7.03978152955295  3.13657007840784 -2.74913958205821
 1 -4.44045199589959  2.25537058195820 -0.08070852885288
 1 -4.85307373647365 -0.73936892799280  0.79504075237524
 1 -5.02348246744674  0.73848807790779  2.19155128962896
 1 -2.88366577697770 -1.19423628112811 -0.35189758105811
 1 -3.64905059835984  0.99891296749675 -1.82490968826883
 1  0.58627521182118 -0.23384341084108  3.55623095529553
 1  1.37496594059406 -0.05921580558056  2.06652497289729
 1 -0.62748324082408 -2.73359132243224 -0.27614779637964
 1 -3.23021517351735  1.66879346464646  3.62125829342934
 1 -1.60085494489449  1.37480610811081  4.12174189878988
 1 -1.85547834713471  2.65930456625663  3.11130328432843
 1 -6.77538143324333  2.45897484958496  1.60793891269127
 1 -7.60299300760076  0.91854818321832  1.76697912051205
 1 -8.34134262556256  1.84234640474047  0.60328932613261
 1  0.92794497579758  1.92095470347035  1.44410441804180
 1  0.39410345044504  2.37599568736874  2.96710706520652
 1  1.65379099739974  0.35217160736074 -0.27199942604260
 1  1.98582684128413 -4.73975949914992 -1.56362442464246
 1  0.57260534093409 -4.31008092149215 -1.28471124082408
 1 -7.70628595359536  0.46948958295830 -3.19210012201220
 1  0.91063400350035 -4.83311761606161  1.32605229282928
 1  2.56814785768577 -5.29100557955796  1.01705564396440
 1  3.96882132593259 -4.18457598609861 -1.71873092569257
 1  5.44572669416942 -3.13499238003800 -1.19658457995800
 1  4.72883998029803 -3.01280333593359 -2.68988931123112
 1  5.05875868296830 -0.40286439523952 -1.68162485068507
 1 -9.46691621382138  0.52987388458846 -0.33181386758676
 1 -10.02611077617762  0.47485186358636 -2.14839458115812
 1  3.72052848424842  3.16513908250825  3.83213139533953
 1  6.51076608220822  1.27389159565957 -2.09428693189319
 1  4.74830584078408  5.33660675267527 -2.52984003900390
 1  3.94905290939094  5.64883195309531 -0.90612369556956
 1  5.68346011751175  5.27108356295630 -0.98303005110511
 1  0.55999353785378 -8.01959320182018  1.37546721982198
 1  7.91879316111611  2.75474278057806 -3.28816757895790
 1  6.91821326562656  4.09885745704570 -2.66785967506751

