%nproc=4
%Mem=2GB
# td=(NStates=1) B3LYP/SVP 

TD

0 1
 8 -5.39713507530753 -0.00862674767477 -3.32370520332033
 8  2.84205103120312  3.07505322872287  3.21454771917192
 8  3.33830456825683  0.91777678677868  3.01564352555256
 8  1.40845498139814 -7.17795369976998  1.41185159495950
 8  0.38286503590359 -6.90211111511151 -0.54996892809281
 8  2.04695815511551  4.09072203920392 -0.10814254985499
 7 -2.40482108480848 -0.88841384798480  0.61653818091809
 7 -4.54549845374537  0.45638988758876 -1.31382331443144
 7  1.98597832493249 -0.59158113911391 -0.27917935603560
 7  2.75880715111511  1.98159660976098 -0.59760723572357
 6 -4.84785703200320  1.17569774917492  0.01000145664566
 6 -4.44004861026103  0.29881629932993  1.25386744744474
 6 -3.06738019421942  0.04919980238024  1.33774911501150
 6 -2.09987503180318  0.67574972197220  2.16843764196420
 6 -0.81449533703370  0.16898834033403  1.79138790099010
 6 -1.09338371337134 -0.84326943604360  0.85924263256326
 6 -6.36635273267327  1.28913066896690 -0.17278569236924
 6  0.57364084738474  0.30161808490849  2.35423009180918
 6 -6.78940137183718  0.73508581378138 -1.37370822852285
 6 -0.22635837783778 -1.84069937103710  0.08309548524853
 6  1.13483639483948 -1.62467498009801 -0.18671746494649
 6 -5.55248330643064  0.25856554975498 -2.14101354215422
 6  1.88204407430743 -2.79900347634763 -0.80252556915692
 6 -2.34897163836384  1.77846957895790  3.22620126012601
 6 -7.06368836103610  1.98335387138714  0.87258787268727
 6  3.07247277557756 -2.36726875117512 -1.20568172527253
 6  1.05148192079208  1.70743388558856  2.41733695209521
 6  3.13927046804680 -0.93896333573357 -0.90632426342634
 6  1.36662220012001 -4.24492887248725 -0.86495496939694
 6 -8.10500722162216  0.65070963536354 -2.01195591759176
 6  1.61055274537454 -5.01140738313831  0.43500982748275
 6  4.26045376177618 -3.22961422722272 -1.68247024442444
 6  4.04725366756676  0.00762242404240 -1.38166836193619
 6  2.51515413081308  1.80775494979498  2.90890079517952
 6  3.88097262316232  1.44017327362736 -1.06870264096410
 6 -9.30962913591359  0.70892873667367 -1.50718948154815
 6  1.06222353075308 -6.48914764426443  0.31943273597360
 6  4.95531959685969  2.50385244024402 -1.42988671517152
 6  4.29650528502850  3.64187834803480 -1.03103267456746
 6  2.92540129612961  3.36149785118512 -0.52342088908891
 6  6.32798080248025  2.21488335973597 -1.94100562936294
 6  4.64544533793379  5.10525204240424 -1.08058072997300
 6  7.04997254865487  3.10807722912291 -2.65335000310031
 1 -4.37643559425943  2.18704374927493  0.20610015201520
 1 -4.76687511661166 -0.69683467456746  1.21414266256626
 1 -4.75091521072107  0.86277050615061  2.15552768726873
 1 -2.92215962636264 -1.63781063856386 -0.19203159445945
 1 -3.45388108140814  0.26824990119012 -1.69970716801680
 1  0.51489807410741 -0.05389541604160  3.47603293549355
 1  1.49846829082908 -0.16483636763676  1.74974329472947
 1 -0.81030152265226 -2.89953791709171 -0.19987016861686
 1 -3.40726287828783  2.05311189648965  3.37295346294629
 1 -2.25098995839584  1.57048567606761  4.21818154275428
 1 -1.93826662596260  2.51850048584859  2.74852700670067
 1 -6.59186308140814  2.49653860596060  1.47232535133513
 1 -7.48679138743874  1.17614394279428  1.52186460906091
 1 -8.05115360666067  2.43424559465947  0.55198419561956
 1  1.00680286158616  2.24753736173617  1.45467547514751
 1  0.51439547964796  2.26327441524152  3.19985033953395
 1  1.71240685898590  0.31605799599960 -0.00308253435344
 1  1.91406966556656 -4.97902342554255 -1.54001206340634
 1  0.35045312571257 -4.38418833223322 -1.19310207990799
 1 -7.97737306230623  0.70051268526853 -3.23117402940294
 1  1.02662560266027 -4.54142844714471  1.43821350895090
 1  2.66365740864086 -5.12672915191519  0.70410434883488
 1  3.73192763656366 -4.07836536503650 -1.92624167676768
 1  4.96944906640664 -3.40990987178718 -0.93383830533053
 1  4.91395849214922 -2.87557961356136 -2.58723904620462
 1  4.90830363746375 -0.22896700550055 -1.82178886708671
 1 -9.39899942214221  0.98993989118912 -0.51010169636964
 1 -10.26121428652865  0.76386076447645 -2.14498424012401
 1  3.80973740514051  3.01523409200920  3.35391357355736
 1  6.84480948654866  1.33322752925293 -1.59697720092009
 1  4.45231624182418  5.47636072807281 -2.03872092709271
 1  3.98882688678868  5.47145421532153 -0.22299538273827
 1  5.70889266076608  5.19917637223722 -0.69373112121212
 1  1.27271480998100 -8.13308455095510  1.25892556565657
 1  8.06339762156216  2.77146445274527 -2.93573233543354
 1  6.81006245054505  4.15638320962096 -2.94055694479448

