%nproc=4
%Mem=2GB
# td=(NStates=1) B3LYP/SVP 

TD

0 1
 8 -5.22339770157016  0.19012312731273 -3.39127195999600
 8  2.96995382148215  3.11289701310131  3.41404766916692
 8  3.21859259705971  0.86398140724072  3.23993595479548
 8  1.71240537643764 -7.15704160856086  1.49059946974697
 8  0.65695244464446 -7.12436334033403 -0.43863779497950
 8  2.04234769406941  4.04175714271427  0.02034029842984
 7 -2.43221382408241 -0.73135814241424  0.63402993009301
 7 -4.37792169606961  0.58192244084408 -1.23731566366637
 7  1.77347707480748 -0.66254823582358 -0.50843228132813
 7  2.54499576997700  1.87654610471047 -0.60520799579958
 6 -4.87368961526153  1.18029820922092 -0.02589213271327
 6 -4.50135474087409  0.48707512521252  1.31045310601060
 6 -3.00455391159116  0.25891077347735  1.37195253535354
 6 -2.03861890619062  0.85832797979798  2.10243104130413
 6 -0.74696858435844  0.15500694219422  1.76648541074107
 6 -1.03652802780278 -0.84089919901990  0.82652936123612
 6 -6.30155625302530  1.43475523142314 -0.29048746254625
 6  0.50892437573757  0.34148207130713  2.56770143894389
 6 -6.63400583228323  0.92398470367037 -1.44052491019102
 6 -0.26457219921992 -1.83087838893889  0.17903507920792
 6  1.00971388258826 -1.87614012661266 -0.24872366556656
 6 -5.40229828792879  0.52595228842884 -2.19406884768477
 6  1.82689855975598 -2.96500007600760 -0.92256757335734
 6 -2.28657539873987  1.88083981598160  3.24710335033503
 6 -7.20862285448545  1.84030956695670  0.84698531243124
 6  2.97599312761276 -2.43279530383038 -1.41759291639164
 6  1.19431620422042  1.76481962416242  2.58916413481348
 6  2.98480502150215 -1.00052949234923 -0.98120175117512
 6  1.39914545244524 -4.35157953755376 -0.86037451135113
 6 -7.92004872577258  0.62568713311331 -2.15193991599160
 6  1.69105079517952 -5.07412365476548  0.42783911041104
 6  4.13853156955696 -3.10784205000500 -2.07961995939594
 6  3.93449239143914  0.01110277207721 -1.28762895799580
 6  2.52674528992899  1.86241041534153  3.13369327442744
 6  3.67928245414541  1.33116237253725 -1.09186495719572
 6 -9.13197137013701  0.55362320612061 -1.58565732833283
 6  1.33987129552955 -6.50208893839384  0.36335712841284
 6  4.78753281818182  2.36612866786679 -1.35144887138714
 6  4.21628726322632  3.65048920912091 -1.00094966626663
 6  2.78723747974797  3.26314801620162 -0.49449799679968
 6  6.01003900830083  2.08944081548155 -2.12086361516152
 6  4.59723051645164  5.04999651685169 -1.17968063996400
 6  6.87603515491549  3.02424884628463 -2.66779144724472
 1 -4.36193414411441  2.13883892879288 -0.07781823982398
 1 -5.11156958605861 -0.39708469956996  1.74428567686769
 1 -4.69949006820682  1.06995122422242  2.17846998149815
 1 -3.12444985538554 -1.05820267776778 -0.00670306160616
 1 -3.41021671497150  0.61751482768277 -1.66169336663666
 1  0.32271885618562  0.22422239573957  3.61420675287529
 1  1.27700614461446 -0.47275715971597  2.20986930733073
 1 -0.76401689418942 -2.86047401070107 -0.01111129272927
 1 -3.33207535953595  1.88707529282928  3.54284045164516
 1 -1.93194805420542  1.67442607010701  4.14889461406141
 1 -1.79259205850585  2.75316395219522  3.08153030703070
 1 -6.64446834193419  2.46826577867787  1.36329444824482
 1 -7.05523823212321  0.66710303870387  1.44493691629163
 1 -8.30062855415542  2.13062523262326  0.50939993719372
 1  1.22546472777278  2.25061766976698  1.75979598719872
 1  0.44488852895290  2.28748683648365  3.31178153265327
 1  1.47531314961496  0.27843423362336  0.06547432133213
 1  1.92394065266527 -4.82111763496350 -1.68760682288229
 1  0.29460754115411 -4.56041595499550 -1.10577334703470
 1 -8.02886821182118  0.22155478947895 -3.33847475947595
 1  1.05207814791479 -4.48635293959396  1.29388907650765
 1  2.83853489638964 -4.74785126412641  0.87500143854385
 1  3.91234567836784 -4.22595012351235 -2.00421947454745
 1  5.07836995849585 -2.83196207700770 -1.53836875837584
 1  4.12183928022802 -2.69271132673267 -3.05862618491849
 1  4.89883269036904 -0.36050015881588 -1.65296198439844
 1 -9.37347686988699  0.67062795999600 -0.44445513171317
 1 -10.05642380748075  0.64226860526053 -2.18704844654465
 1  3.94306073747375  3.11123369196920  3.59680786298630
 1  6.33850885648565  1.00039424592459 -2.22718022122212
 1  4.33169417961796  5.32013510551055 -2.22451950695070
 1  4.20969897399740  5.56808387828783 -0.30154323752375
 1  5.84497626912691  5.13404985958596 -1.08359010711071
 1  1.18509604810481 -7.98904014651465  1.37340701380138
 1  7.87023830563056  2.70862816911691 -2.94336309850985
 1  6.70001144544454  4.32746031733173 -2.60271316041604

