%nproc=4
%Mem=2GB
# td=(NStates=1) B3LYP/SVP 

TD

0 1
 8 -5.41750711251125  0.23866798179818 -3.39820265306531
 8  2.98122494859486  3.04434015741574  2.98757502190219
 8  3.25747648544854  0.78310331943194  3.10357231843184
 8  1.63338747464746 -7.28246415081508  1.41259166896690
 8  0.70972772217222 -7.07770867486749 -0.55866979817982
 8  2.03394685398540  4.08105107210721  0.02418068246825
 7 -2.41236183888389 -0.85017002360236  0.56709323642364
 7 -4.44143804770477  0.55436968556856 -1.30287221932193
 7  1.94748447554755 -0.67793977497750 -0.28137957605761
 7  2.69741101150115  1.87534598469847 -0.37077455245525
 6 -4.91583382968297  1.21462164156416  0.04755521202120
 6 -4.47875248064806  0.36433285098510  1.20334239493949
 6 -3.09772322852285  0.10288517091709  1.32109744984498
 6 -2.03258830313031  0.70365251225123  2.12475327352735
 6 -0.84591847934793  0.01039248074807  1.91548031023102
 6 -1.05060943594359 -0.92624773387339  0.73786049434944
 6 -6.35563166056606  1.33876563246325 -0.21147956175618
 6  0.50172365566557  0.19432735583558  2.59161383018302
 6 -6.72674510621062  0.90972327752775 -1.48332919061906
 6 -0.18342408440844 -1.86558185928593  0.15620279597960
 6  1.09730264146415 -1.81689420202020 -0.20920971417142
 6 -5.41474953305331  0.53207290049005 -2.24536397719772
 6  1.88984485438544 -2.93497707370737 -0.70657597419742
 6 -2.29870661186119  1.79401113311331  3.15897453745375
 6 -7.04758675087509  2.10414595059506  0.80963157705771
 6  3.06610213851385 -2.35491751605160 -1.24033519061906
 6  1.10335710831083  1.77378052025203  2.44297951635164
 6  3.13571011201120 -0.96921636103610 -0.92494612561256
 6  1.39798533643364 -4.33167754735474 -0.75975444934493
 6 -8.00084680558056  0.73740830523052 -2.10024474647465
 6  1.60008169826983 -4.98454469686969  0.52269859635964
 6  4.26020373677368 -3.06896816261626 -1.88685068246825
 6  3.95977491969197  0.01002266406641 -1.22458265336534
 6  2.56001861726173  1.73218739303930  2.89417932303230
 6  3.75722024792479  1.40074933123312 -0.97279305000500
 6 -9.18950712371237  0.75830367416742 -1.45457422002200
 6  1.21640894929493 -6.52045077457746  0.42410320302030
 6  4.75098916381638  2.54127618261826 -1.39425315181518
 6  4.14386002050205  3.63520768096810 -1.13136270757076
 6  2.80499925592559  3.30740244164416 -0.49334788178818
 6  6.09366737113711  2.20379225062506 -1.95569709850985
 6  4.42835362876288  5.03853537073707 -1.35984865676568
 6  6.83543109450945  3.16257267866787 -2.57803247134713
 1 -4.31458940964096  2.12286733163316  0.36085562756276
 1 -5.05337376647665 -0.53061805290529  1.07033828212821
 1 -4.75451557075708  0.84505873497350  2.07754988948895
 1 -2.87066447684768 -1.51996885438544 -0.11412380368037
 1 -3.36665235853585  0.62653572977298 -1.48568576587659
 1  0.56573315761576  0.12122209570957  3.71962729492949
 1  1.36666511051105 -0.50573045704570  2.34927324772477
 1 -0.87615810831083 -2.90612857615762 -0.11811199279928
 1 -3.36227837983798  1.71825841114111  3.64699086668667
 1 -1.68975383478348  1.86623525102510  4.05604532913291
 1 -1.99970276957696  2.59810844664466  2.66400855485549
 1 -6.66436033113311  2.95941489358936  1.27164528332833
 1 -7.39157186548655  1.40098642704270  1.67429985258526
 1 -8.15847433873387  2.37254942504250  0.45477447464747
 1  1.28862104340434  2.06301890989099  1.35719572717272
 1  0.52862690279028  2.52122020982098  3.05466582108211
 1  1.65666128442844  0.34430082028203 -0.21404363046305
 1  2.19030728932893 -4.95042056525653 -1.46089415161516
 1  0.25364344474447 -4.34916482988299 -1.03884665436544
 1 -7.98207353235324  0.63186582058206 -3.02038295029503
 1  0.84956789688969 -4.49091339563956  1.24745443304330
 1  2.43636467936794 -5.08458493749375  0.92451639003900
 1  4.25898034183418 -4.22814034253425 -1.85180423302330
 1  5.10697281878188 -2.84047292809281 -1.13906882838284
 1  4.33940103640364 -2.64692674827483 -2.76045636793679
 1  4.82872567966797 -0.36447055585559 -1.75828251645164
 1 -9.25519504170417  0.75861675887589 -0.28965965216522
 1 -10.13426159125913  0.68693307170717 -1.88462820452045
 1  3.90902733413341  2.92673524212421  3.25555373757376
 1  6.60533553915391  1.11551575807581 -1.69046654985499
 1  4.32652366256626  5.25289838183818 -2.39142619761976
 1  3.86612461656166  5.84517158705871 -1.09053213641364
 1  5.55966773827383  5.34593104770477 -1.16363811191119
 1  1.39412695119512 -8.09399064156416  1.24649432253225
 1  7.77930921272127  3.07340464676468 -2.99653841604160
 1  6.55370681498150  4.11434900620062 -2.62441533063306

