%nproc=4
%Mem=2GB
# td=(NStates=1) B3LYP/SVP 

TD

0 1
 8 -5.41408677047705  0.05963007800780 -3.35508834163416
 8  3.00171699779978  3.07086280968097  3.30461672607261
 8  3.22340307810781  0.79466447554755  3.20278223942394
 8  1.52597673357336 -7.17651355575557  1.43884429422942
 8  0.41462821222122 -6.98525942994300 -0.45564949614962
 8  1.96996045534553  4.04624759175918  0.02233049744974
 7 -2.42408301100110 -0.93861886848685  0.60020654775478
 7 -4.45743964786479  0.50255450405041 -1.29345127722772
 7  1.92824255135514 -0.65396737773777 -0.26703814191419
 7  2.75148641904190  1.87616606670667 -0.40476795179518
 6 -4.80962320862086  1.18159833923392 -0.08238778227823
 6 -4.43779838523852  0.34617103480348  1.23517557825783
 6 -2.96486994319432  0.06655153755376  1.36386172627263
 6 -2.00548559285929  0.78098024502450  2.16454725292529
 6 -0.71732562006201  0.14544598609861  1.82155091729173
 6 -0.95649002400240 -0.84142925202520  0.74899160746075
 6 -6.26312240964096  1.36622837873787 -0.26654506830683
 6  0.59157264056406  0.34234215731573  2.57862253105311
 6 -6.66432886458646  0.89083138833883 -1.44170502820282
 6 -0.20318606060606 -1.80518581968197  0.12572974867487
 6  1.14393730493049 -1.78851136373637 -0.27483627682768
 6 -5.52498055615562  0.40823051625163 -2.23588302910291
 6  1.84912078197820 -2.92708628462846 -0.84418973557356
 6 -2.27950469166917  1.80064179617962  3.17856649664966
 6 -7.19137112931293  1.91832736873687  0.78969958385839
 6  3.10087561586159 -2.35141716601660 -1.23650480758076
 6  1.18070484308431  1.81993513571357  2.45434065246525
 6  3.08208474947495 -1.00829026842684 -0.89142277327733
 6  1.40805634353435 -4.34871925152515 -0.89186766066607
 6 -7.97619434033403  0.89774433883388 -2.02589731173117
 6  1.71469315941594 -5.08721496389639  0.39332565906591
 6  4.29655737213721 -3.14342560836084 -1.77726972437244
 6  4.02984192639264  0.02263392519252 -1.24391458655866
 6  2.54937755315532  1.87262143644364  3.01374127922792
 6  3.79281380728073  1.34637389368937 -0.99980575127513
 6 -9.24210238323832  0.72582042584258 -1.51712047464746
 6  1.07910521892189 -6.50676940644064  0.39531032373237
 6  4.72778684358436  2.53026508150815 -1.47682140864086
 6  4.14823045754575  3.68215237543754 -1.18865843714371
 6  2.72794155015502  3.31802350375038 -0.52554110111011
 6  6.00479848424842  2.19751162256226 -2.20424195299530
 6  4.45721651505151  5.14021553875388 -1.21357402930293
 6  7.01891944334433  3.08008442984298 -2.49472414051405
 1 -4.36915486618662  2.15567061196120  0.06916645864586
 1 -5.10226865596560 -0.62591758285829  1.24389563786379
 1 -5.13630374957496  0.69082331143114  1.93363549804981
 1 -2.71947935833583 -1.37376423392339 -0.27672006330633
 1 -3.55609130243024  0.35890896709671 -1.59649684698470
 1  0.28841542584258 -0.08777880438044  3.57063239543954
 1  1.46578502250225 -0.41671155515552  2.17326564696470
 1 -0.63012350485049 -2.69680764406441 -0.13166334793479
 1 -3.35260741274127  1.60421700700070  3.32723889148915
 1 -1.94911977137714  1.48817744524452  4.23003272787279
 1 -2.09113191249125  3.00417905370537  3.10523267726773
 1 -6.59676357145715  2.50282923502350  1.52046016481648
 1 -7.35653836213621  1.02999932833283  1.60316273887389
 1 -8.09357784908491  2.35355752585259  0.43575257245725
 1  1.28641082238224  2.06398900690069  1.38162817041704
 1  0.38076211631163  2.57580566836684  2.73481383588359
 1  1.72461808010801  0.33618000820082 -0.40596282238224
 1  2.01470972957296 -4.93587911111111 -1.59145720792079
 1  0.27375545594559 -4.47115702910291 -1.30864363406341
 1 -7.88347367236724  0.61247388138814 -3.03005391739174
 1  1.31810475057506 -4.52428673297330  1.24977466506651
 1  2.73393443634363 -5.08936541554155  0.78515245364536
 1  4.05738018181818 -4.32692022052205 -1.75084413701370
 1  5.34659678117812 -3.01148002880288 -1.20996591809181
 1  4.27720481678168 -2.85199725532553 -2.94057437973797
 1  4.87978078517852 -0.13661777057706 -1.67920460866087
 1 -9.58840836303630  0.74463536073607 -0.40151083728373
 1 -10.09944810991099  0.68248262666267 -2.11963170487049
 1  4.09687611901190  3.09142171077108  3.15051323352335
 1  6.10735574117412  1.11395560206021 -2.57319482268227
 1  4.59238024822482  5.51171426342634 -2.24457151215122
 1  3.42511051515151  5.68779584948495 -0.92448553175318
 1  5.39157092859286  5.63086954155416 -0.71424317241724
 1  1.31450898939894 -8.16679792229223  1.33963363646365
 1  7.93881516331633  2.54648195449545 -3.06318508070807
 1  7.06587803210321  4.27574514581458 -2.23600648974898

