%nproc=4
%Mem=2GB
# td=(NStates=1) B3LYP/SVP 

TD

0 1
 8 -5.29124448624862  0.15629974497450 -3.33694652745275
 8  2.98388521462146  3.10681640504050  3.14426069046905
 8  3.15296603440344  0.87456246534653  3.33277523872387
 8  1.23590772667267 -7.15714161856186  1.36646705650565
 8  0.17217396679668 -6.91841274527453 -0.50812474367437
 8  2.09388284758476  4.08893186018602 -0.02991472707271
 7 -2.36386698939894 -0.83787879447945  0.53266979407941
 7 -4.34293819771977  0.62953720232023 -1.32339427152715
 7  1.94349407650765 -0.66377835883588 -0.29652109020902
 7  2.83421469186919  1.92016046614661 -0.41721919691969
 6 -4.82333457975798  1.16937711711171 -0.03163270677068
 6 -4.42023662906291  0.43093951165117  1.29191125182518
 6 -3.01670512671267  0.01823670607061  1.39987532763276
 6 -2.06508155245525  0.67636978397840  2.09884068226823
 6 -0.69496338383838  0.06691813331333  1.81389015121512
 6 -0.98618299329933 -0.84657976707671  0.79159586788679
 6 -6.33906000340034  1.21716347224722 -0.16270468426843
 6  0.52145562886289  0.33781170427043  2.48405307410741
 6 -6.67220965266527  0.68891119631963 -1.40285114281428
 6 -0.16512225422542 -1.92071737283728  0.18324550025002
 6  1.14076698789879 -1.81760427302730 -0.27065585878588
 6 -5.42860091819182  0.45458515171517 -2.17183662446245
 6  1.92221809170917 -2.81639521552155 -0.80153547014701
 6 -2.17668440964096  1.74979671167117  3.22735137513751
 6 -7.27835982818282  1.67590312631263  0.92721333523352
 6  3.16713224152415 -2.37907993229323 -1.15238639573957
 6  1.09234600720072  1.78092123432343  2.51593681208121
 6  3.12588912991299 -0.90309974937494 -0.88042167316732
 6  1.38424396229623 -4.21028540814081 -0.88249672357236
 6 -7.95907262816282  0.57451201560156 -2.13267798979898
 6  1.55841753185319 -5.03378962136214  0.43892021852185
 6  4.29841755815581 -3.11410267606761 -1.78131012841284
 6  4.13340228242824  0.03636529832983 -1.20315051015102
 6  2.55975859125913  1.80002417671767  2.97382728782878
 6  3.86164068996900  1.41963121942194 -0.98030380108011
 6 -9.25439361236124  0.61920976477648 -1.52244100670067
 6  0.93250055845585 -6.42868159765977  0.27749854255426
 6  4.80338440334033  2.52456451145114 -1.43028675517552
 6  4.13306894139414  3.65611977217722 -1.17383695499550
 6  2.89398815481548  3.31339304070407 -0.46568511551155
 6  6.15364336873687  2.26141801320132 -1.94829635843584
 6  4.56695748914891  5.10132164936494 -1.41124379627963
 6  6.82753030443044  3.10338676007601 -2.80221488958896
 1 -4.46846479717972  2.27553259815982  0.25778532053205
 1 -5.16778520762076 -0.54737972907291  1.22623387168717
 1 -4.78956907610761  1.00599482858286  2.25331746624663
 1 -2.72520993139314 -1.20419727722772 -0.26681907320732
 1 -3.39578527182718  0.62199527572757 -1.66630382768277
 1  0.35611219551955 -0.07632765926593  3.52911824402440
 1  1.26386483048305 -0.41680156415642  2.17926624702470
 1 -0.73926441894189 -2.73166112941294 -0.19463964556456
 1 -3.36324847684768  1.84688127342734  3.56597276487649
 1 -1.49526438583858  1.51442006950695  3.95224494909491
 1 -1.89923272257226  2.70940957675768  2.78290044404440
 1 -6.74485838093809  2.38217716981698  1.68414653345335
 1 -7.55433814211421  0.82197852625263  1.41678410101010
 1 -8.23395188648865  2.10509267936794  0.50116911411141
 1  1.00521270257026  2.40898350635063  1.44051405900590
 1  0.56567060716072  2.54817290509051  3.25420577507751
 1  1.66680229852985  0.21709810001000 -0.27802002810281
 1  1.98523678227823 -4.58101362456246 -1.74380244244425
 1  0.48943702410241 -4.46685659905991 -1.36270904060406
 1 -7.96314163916392  0.33936657065707 -3.20010092209221
 1  1.08842178227823 -4.63740804510451  1.39974966256626
 1  2.58689973287329 -5.15699217821782  0.66309024742474
 1  4.21929637343734 -4.23583111161116 -1.88543759635964
 1  5.25330745224522 -2.92001088188819 -1.35080000150015
 1  4.49811690799080 -2.47949000460046 -2.66587690999100
 1  5.22765557265727 -0.14681879067907 -1.60610729892989
 1 -9.41836135833583  0.67078797599760 -0.42804349054905
 1 -10.04279244434444  0.35753013141314 -2.09688943064306
 1  3.83619005040504  3.01818438703870  3.51104928712871
 1  6.72234724032403  1.38045225172517 -1.85585308850885
 1  4.37527853805381  5.43297638963896 -2.48354540954095
 1  3.89593759785979  5.82066913681368 -0.98136121932193
 1  5.59494126562656  5.36981343594359 -1.13123487158716
 1  0.62013955245524 -7.92797403990399  1.33528320142014
 1  7.71674295609561  2.75634294059406 -3.06977573977398
 1  6.49294073837384  4.13485105640564 -3.24062695179518

