%nproc=4
%Mem=2GB
# td=(NStates=1) B3LYP/SVP 

TD

0 1
 8 -5.41797715951595  0.17989210421042 -3.45758859165917
 8  2.79966679277928  3.03861958535854  3.35328159255926
 8  3.31871260906091  0.89717472657266  2.94248620982098
 8  1.66425056095610 -7.36980288468847  1.49970037983798
 8  0.34672142154215 -6.99146005000500 -0.32664659585959
 8  1.91830528982898  4.12741570857086  0.00496876127613
 7 -2.35451605430543 -0.96522152875288  0.62215874297430
 7 -4.39581348524853  0.69188343694369 -1.35563749584958
 7  1.79761948904891 -0.64103608460846 -0.46688812691269
 7  2.63707497789779  1.95181363146315 -0.55563303830383
 6 -4.67960020632063  1.20126030543054  0.01808226472647
 6 -4.45698030343034  0.19711612931293  1.09224128482848
 6 -2.95238869506951 -0.08728384598460  1.36709204930493
 6 -2.06025106940694  0.57219936693669  2.17421822002200
 6 -0.66449033653365  0.01921336283628  1.83910267246725
 6 -1.03961833683368 -0.99580468956896  0.88807551585159
 6 -6.19419551695170  1.38289004490449 -0.18059647344734
 6  0.50812429572957  0.25921384448445  2.62057672647265
 6 -6.63809624132413  1.01306361156116 -1.43804466216622
 6 -0.17646338833883 -2.08516381748175  0.34106128182818
 6  1.13311622282228 -1.91679419201920 -0.06734552775278
 6 -5.37168522662266  0.50084977817782 -2.26958639943994
 6  1.95058092799280 -2.99583315931593 -0.65599091569157
 6 -2.33575031623162  1.68445017701770  3.13531217121712
 6 -7.02646463866387  2.00232576857686  0.94062467636764
 6  3.13417894619462 -2.41513353765377 -1.20390154725473
 6  1.01744851745175  1.70069321152115  2.64824004240424
 6  3.05107164816482 -0.91426086548655 -1.06755038603860
 6  1.50502604050405 -4.37757213681368 -0.82422089598960
 6 -7.90140686158616  0.99127369176918 -2.16106082808281
 6  1.91054274437444 -5.19418566096610  0.46484281078108
 6  4.30182789918992 -3.01567283308331 -1.78076007340734
 6  3.96513545574557  0.07807946974697 -1.36656685178518
 6  2.43778639403940  1.78207238153815  3.03065297039704
 6  3.75369989588959  1.40233949024903 -1.08452422312231
 6 -9.22025019801980  1.23953179697970 -1.72802156475648
 6  1.20321763016302 -6.59616834633463  0.53921471417142
 6  4.71117518241824  2.49984203920392 -1.45807953445345
 6  4.05769140364036  3.70306446664666 -1.17303687498750
 6  2.76728548454845  3.29139084048405 -0.45203375037504
 6  5.99768777317732  2.34704657605761 -2.15011654045405
 6  4.41892268566857  5.13940545774577 -1.23795646754675
 6  6.69106665806581  3.22481890329033 -2.88668333643364
 1 -4.15407335803580  2.15510055495550  0.20465000700070
 1 -4.87896632573257 -0.94762975407541  1.11297254555456
 1 -4.79106922612261  0.72891712081208  2.15232736723672
 1 -2.89538694909491 -1.33879073657366 -0.24478686998700
 1 -3.40400609390939  0.36191926812681 -1.45317251455146
 1  0.35126171047105 -0.04598462496250  3.68193352555256
 1  1.35702414641464 -0.34692457645765  2.34977329772977
 1 -0.51661215371537 -3.11802976627663  0.18985880428043
 1 -3.39958211021102  1.89144572987299  3.33384955255526
 1 -1.96696155555556  1.09973860136014  4.11204092869287
 1 -1.67857065636564  2.37405604140414  2.74232638663866
 1 -6.47296119121912  2.69228818091809  1.52077019581958
 1 -7.59560226852685  1.27876420482048  1.55820824342434
 1 -7.91770026132613  2.66564873497350  0.42008100530053
 1  1.00645282658266  2.16529913791379  1.79510951855186
 1  0.49241328142814  2.50085817361736  3.22030238473847
 1  1.36008162646265  0.21693808400840 -0.10947317341734
 1  1.88152641124112 -4.76371189438944 -1.61507957015702
 1  0.36917499789979 -4.40688060146015 -0.82318508820882
 1 -7.95716104110411  0.57893052705271 -3.30738165016502
 1  1.43937687778778 -4.64656896119612  1.19809949754976
 1  2.95697674057406 -5.58495497449745  0.53987792619262
 1  4.15694013781378 -4.09183671217122 -1.99791884448445
 1  5.20174229572957 -2.90684956575658 -1.21921684318432
 1  4.53647074337434 -2.51528358395840 -2.67295761806181
 1  4.97900070717072 -0.19489359815982 -1.62006869506951
 1 -9.50532005420542  1.18235913311331 -0.68421910811081
 1 -10.02620078517852  1.19537391579158 -2.43364310601060
 1  3.61098753015302  3.09772234083408  3.76815499769977
 1  6.21886689228923  1.36766097259726 -2.11356886008601
 1  4.66816782698270  5.49060215221522 -2.22428948394839
 1  3.83696170027003  5.69169623952395 -0.50563364656466
 1  5.42425419691969  5.16191264586459 -0.84118586668667
 1  1.29056659515952 -8.33863510601060  1.24823449654965
 1  7.73461474327433  2.87159446574657 -3.70352911511151
 1  6.24853629792979  4.11743931523152 -2.86332922202220

