%nproc=4
%Mem=2GB
# td=(NStates=1) B3LYP/SVP 

TD

0 1
 8 -5.22771813361336  0.37903201820182 -3.30306313911391
 8  2.63842066816682  3.15338106150615  3.50329659405941
 8  3.20652138993899  1.03877888698870  3.36524848604860
 8  1.38561269716972 -7.17571347574757  1.67534794459446
 8  0.61589833923392 -7.01175207920792 -0.46556048724872
 8  1.99778323762376  4.01547451445145  0.02791105550555
 7 -2.30911151385139 -0.95706071267127  0.56342286938694
 7 -4.35294919881988  0.82328657725773 -1.25283721582158
 7  1.89700942804280 -0.70629261026103 -0.59955139323932
 7  2.60562183258326  1.85256370647065 -0.54030150515052
 6 -4.85760800710071  1.19236941634163 -0.00765030853085
 6 -4.38648325372537  0.23100951865187  1.17200926162616
 6 -2.94049750595060  0.08117299969997  1.27875321542154
 6 -1.95971101540154  0.73552569956996  2.07140793899390
 6 -0.72123601110111  0.09645108660866  1.74448321052105
 6 -0.96054042904290 -0.85050015911591  0.68516522482248
 6 -6.39233533093309  1.29030078597860 -0.10239865366537
 6  0.55544902820282  0.28696661976198  2.34522919171917
 6 -6.66448888058806  0.92926523172317 -1.37457831553155
 6 -0.10352609460946 -1.87835313641364  0.19649682538254
 6  1.19709262046205 -1.91674418701870 -0.38447724092409
 6 -5.35565362346235  0.70347004020402 -2.15629507030703
 6  1.95834170407041 -3.03094667066707 -0.85975129172917
 6 -2.28357509870987  1.75560729272927  3.10933957395740
 6 -7.14603659585959  1.88536407240724  1.02532314621462
 6  3.18075360366037 -2.47648967326733 -1.36170732783278
 6  1.02282905550555  1.75925906810681  2.44875009340934
 6  3.09698623962396 -1.04303374277428 -1.26610024102410
 6  1.51934747264726 -4.43489786938694 -0.77563603750375
 6 -8.02410913181318  0.70995555995600 -2.09812453445345
 6  1.62155384548455 -5.08593483588359  0.56700302680268
 6  4.30639835623562 -3.20494175997600 -1.95193719111911
 6  4.07816675887589  0.03757541934193 -1.47119731483148
 6  2.39916253165317  1.90680485478548  3.18090799589959
 6  3.74921944784478  1.38116737303730 -1.03939971067107
 6 -9.21273944694470  0.71326917071707 -1.57275603820382
 6  1.10189749814982 -6.52666139563956  0.47023781648165
 6  4.69206327122712  2.43890594559456 -1.51820554705471
 6  4.12711834633463  3.54597875807581 -1.17323689498950
 6  2.80105886188619  3.24903660506051 -0.46316486348635
 6  6.00418842324232  2.20413228462846 -2.09414094289429
 6  4.53107390079008  5.02897441464146 -1.11838451035104
 6  6.79757730913091  3.22287870927093 -2.65212988108811
 1 -4.53153110381038  2.16913195809581  0.19586912891289
 1 -4.90364879397940 -0.75722071317132  0.98917016531653
 1 -4.86422654185419  0.81575580468047  2.11722385688569
 1 -2.75045245564556 -1.50704756225623 -0.15542793409341
 1 -3.32435812911291  0.88098117431743 -1.62300949824983
 1  0.58947553185319 -0.24204423092309  3.37778311051105
 1  1.49973841784178 -0.24775465946595  1.74561288168817
 1 -0.55543603610361 -2.81572953625363  0.23746356475648
 1 -3.19228138013801  1.64864144944494  3.58575474307431
 1 -1.58376323572357  1.73618224572457  3.90533025762576
 1 -2.02477527682768  2.76899553535354  2.47782993699370
 1 -6.53731762686269  2.50469942204220  1.67701582038204
 1 -7.48223093139314  1.09987631603160  1.61994441704170
 1 -7.96205469676968  2.24542671277128  0.67139613681368
 1  1.24390657195720  2.47093970197020  1.57675768336834
 1  0.36997103720372  2.42756084388439  3.16894724922492
 1  1.71925754405441  0.28020441064106 -0.30548277437744
 1  1.95288354695470 -5.19183470667067 -1.55759382158216
 1  0.35313339373937 -4.33228314171417 -1.03170594029403
 1 -8.23317864286429  0.71147378137814 -3.24352526452645
 1  0.87768070817082 -4.70261456575658  1.36060574817482
 1  2.68754979787979 -5.31733821282128  0.94483842224222
 1  4.05272971677168 -4.30971850035003 -2.08877793039304
 1  5.19351147264727 -3.17045592639264 -1.22507742924292
 1  4.57059415571557 -2.66189824542454 -2.79735005730573
 1  4.91491429852985 -0.38423253205321 -2.01163785198520
 1 -9.25855537773777  0.66043694089409 -0.40469115531553
 1 -10.08643680878088  0.78395277367737 -2.20441018271827
 1  3.64108053945394  3.19850241884188  3.75357353955396
 1  6.44635964156416  1.11407561406141 -2.02405990919092
 1  4.69902091229123  5.47469056105611 -2.22501955695570
 1  3.71092909700970  5.72480955085509 -0.89582266546655
 1  5.44233600510051  5.14700115471547 -0.51922367046705
 1  1.01293883238324 -7.96978822132213  1.84432410551055
 1  7.72141342314231  2.73949125542554 -3.16344510671067
 1  6.53141458575858  4.40829840114011 -2.42874576367637

