%nproc=4
%Mem=2GB
# td=(NStates=1) B3LYP/SVP 

TD

0 1
 8 -5.40199556135614  0.28687280228023 -3.38143097589759
 8  2.83960078617862  3.14774049744975  3.23209947434743
 8  3.41470220802080  0.90082509160916  3.07909987118712
 8  1.66769090499050 -7.31413731813181  1.44844525432543
 8  0.65715246464646 -7.09948085208521 -0.49567349854985
 8  1.75310877017702  4.03488645564557 -0.15799753535354
 7 -2.36740734343434 -0.93175818241824  0.64292081918192
 7 -4.46385028892889  0.82399664826483 -1.31329326142614
 7  1.87540726782678 -0.73573555455546 -0.30007144524452
 7  2.60001127152715  1.89220767086709 -0.53230070507051
 6 -4.81154340064006  1.33198337773777  0.06462691919192
 6 -4.36392099749975  0.36092250995100  1.18796085678568
 6 -2.95113857005701  0.07727260966097  1.29336467656766
 6 -2.01505654995500  0.58606075307531  2.20404120232023
 6 -0.77483137063706 -0.04479303780378  1.93038180038004
 6 -0.99745412041204 -0.99878498759876  0.82955966426643
 6 -6.32326842424242  1.43682543844384 -0.16873528732873
 6  0.62264574787479  0.22935085818582  2.62580724952495
 6 -6.61586401810181  0.99304160936094 -1.46624748244824
 6 -0.25465120712071 -1.98434373547355  0.20934811051105
 6  1.05472838403840 -1.90018253085309 -0.26021481468147
 6 -5.49859791789179  0.75462515571557 -2.24567400820082
 6  1.91408727862786 -2.98721229722972 -0.84686000260026
 6 -2.21107784898490  1.70626235823582  3.10196883688369
 6 -7.23966595879588  1.89211474747475  0.90583119701970
 6  3.16627215551555 -2.43931595589559 -1.15577673477348
 6  1.14873164576458  1.65194833703370  2.60617583598360
 6  3.10378691969197 -1.01112055145515 -0.88389202020202
 6  1.48303384128413 -4.38505288488849 -0.83782225612561
 6 -7.91640836173617  0.99997456185619 -2.14437915991599
 6  1.68432012211221 -5.12876911931193  0.51123745024502
 6  4.40653837023702 -3.01680294609461 -1.77073907130713
 6  4.05744468666867 -0.01319965816582 -1.17943813891389
 6  2.62367498289829  1.80234440874087  3.00065997109711
 6  3.69831435733573  1.38126738303830 -1.04555032573257
 6 -9.18937711071107  0.88769661346135 -1.66950571317132
 6  1.22928023642364 -6.55087381688169  0.46184697739774
 6  4.62574663956396  2.50257231223122 -1.46377010351035
 6  3.93877951245124  3.60512467266727 -1.28861843314331
 6  2.67607636363636  3.25799750115012 -0.60786933393339
 6  6.09530753515352  2.23515538693869 -1.80680220902090
 6  4.37201799519952  5.09858137533753 -1.41148382028203
 6  6.73384093549355  3.10701712311231 -2.64500916901690
 1 -4.43576152685269  2.46828187308731  0.20699024102410
 1 -5.11634006310631 -0.65098008910891  1.05174642294229
 1 -4.75651577077708  0.93729795889589  2.07758989348935
 1 -2.39371678207821 -1.46732358985899 -0.34651704300430
 1 -3.48279397269727  0.82403547974798 -1.57450464776478
 1  0.54208079237924 -0.12267229372937  3.67308264046405
 1  1.41961040504050 -0.51309119311931  2.31476979737974
 1 -0.66385687818782 -2.90189815311531 -0.14862504410441
 1 -3.30795294729473  1.57679426472647  3.69823599119912
 1 -1.18214307370737  1.77845647314731  3.93159288388839
 1 -2.11143394269427  2.81352998879888  2.60612276627663
 1 -6.96812070717072  2.61264021612161  1.59308742754275
 1 -7.70627333563356  0.89037536593659  1.26814923752375
 1 -8.14220271157116  2.35534770487049  0.37449644684468
 1  0.95950813211321  2.06624923292329  1.46263627122712
 1  0.69850389048905  2.34498258605861  3.14669502400240
 1  1.57595321362136  0.34398078827883  0.04265203910391
 1  1.97370562916292 -5.11470699389939 -1.57836589878988
 1  0.45452353275328 -4.49189910331033 -1.24463723342334
 1 -7.83009833483348  1.15690832483248 -3.10897180918092
 1  1.23887682778278 -4.59444374867487  1.42854254185419
 1  2.69226026892689 -5.10505698469847  0.72994693309331
 1  4.38873331713171 -4.06126365486549 -2.12333138573857
 1  5.22725484698470 -2.78738761956196 -1.27107202870287
 1  4.72478957525753 -2.55830788638864 -2.62830315261526
 1  4.94422722982298 -0.21711582038204 -1.56522321052105
 1 -9.31553107530753  0.67681857905791 -0.61977266346635
 1 -9.90485865096510  0.81852623102310 -2.43387312901290
 1  3.81520795219522  3.39941250985099  3.54146232843284
 1  6.78993399899990  1.32890709720972 -1.43731123432343
 1  4.04222523272327  5.55320841284128 -2.49699675467547
 1  3.78810681478148  5.73133020292029 -0.70590367356736
 1  5.52417418891889  5.17122357695770 -1.24367611571157
 1  1.32144968346835 -8.17030827332733  1.30763043614361
 1  7.71864314611461  2.98886619291929 -2.90191895409541
 1  6.03921536583658  4.05324289558956 -2.97935082418242

