%nproc=4
%Mem=2GB
# td=(NStates=1) B3LYP/SVP 

TD

0 1
 8 -5.49256461826183  0.17209132413241 -3.28658149094910
 8  2.79495632173217  3.28401412481248  3.11895816021602
 8  3.21125186298630  1.05799080818082  3.12608456965697
 8  1.60422455835584 -7.27176308070807  1.39897030683068
 8  0.49257600700070 -7.02606351035103 -0.53687761896190
 8  2.07018047734773  4.04692765976598 -0.05063679927993
 7 -2.49414001670167 -0.77680268686869  0.62538906600660
 7 -4.46529043294329  0.55651990059006 -1.26695862796280
 7  1.88575830293029 -0.66850883188319 -0.41129256735674
 7  2.74281555195520  1.87564601470147 -0.57176465146515
 6 -4.91786403270327  1.27453763316332 -0.01013055655566
 6 -4.50523512891289  0.42181859955996  1.21762382308231
 6 -3.03098655485549  0.20004488688869  1.32257759785979
 6 -1.95922096639664  0.73341548854885  2.07102790099010
 6 -0.79185307280728  0.12679412091209  1.81342010421042
 6 -1.06435081008101 -0.82047715681568  0.74401110941094
 6 -6.47310340774077  1.34142589848985 -0.23805221902190
 6  0.52351583488349  0.37741566466647  2.46075074387439
 6 -6.86489892159216  0.82118442364236 -1.36766762446245
 6 -0.27869361136114 -1.84899020012001  0.14979215491549
 6  1.03862677387739 -1.79961247384738 -0.38724751795180
 6 -5.57015507360736  0.38377807100710 -2.10405984678468
 6  1.93650952085209 -2.83095667166717 -0.89486480308031
 6 -2.17551429262926  1.69852158415842  3.16374501450145
 6 -7.19655164736474  1.85888142414241  0.95416603050305
 6  3.16133166146615 -2.31212323662366 -1.17893905100510
 6  0.97513428602860  1.84544768696870  2.41828704710471
 6  3.08939548054805 -0.89084852425243 -0.86677030803080
 6  1.44016955485549 -4.32963734333433 -0.95606408030803
 6 -8.10976769766977  0.64911947634763 -2.03907862986299
 6  1.64362605270527 -5.14392063446345  0.31736806330633
 6  4.27433514991499 -2.99392065786579 -1.85217721512151
 6  4.08732767496750 -0.06886522472247 -1.22722291739174
 6  2.43257587298730  2.04481865616562  2.98434833993399
 6  3.94282880878088  1.31263051935194 -1.11997776847685
 6 -9.31236940994099  0.51174901870187 -1.39291805440544
 6  1.16644395279528 -6.54386311581158  0.33703449614961
 6  4.86789085398540  2.34712676767677 -1.40131385788579
 6  4.32571820632063  3.60126428662866 -1.07699727102710
 6  2.93828258425843  3.18183988538854 -0.53324187118712
 6  6.19816782118212  2.12686455785579 -1.94257578637864
 6  4.72570336373637  5.03138465566557 -1.11890456235624
 6  7.23473102450245  2.85341176257626 -2.32649731783178
 1 -4.41975992669267  2.32768781368137 -0.05720617861786
 1 -5.02341077017702 -0.55388037913791  1.01808305660566
 1 -4.88683880308031  0.75096932603260  2.05835797029703
 1 -3.01998940934093 -1.43961081858186  0.06360396909691
 1 -3.73187888118812  0.70404348054805 -1.71555875317532
 1  0.74460104440444  0.07475744924492  3.42098743094309
 1  1.28311675567557 -0.24156404040404  2.07393571397140
 1 -0.72824331683168 -2.76671463476348 -0.08207838943894
 1 -3.10777292929293  2.01767835313531  3.62600876847685
 1 -1.59028388778878  1.42200082758276  4.00248997359736
 1 -1.57982078137814  2.62663129892989  2.97940009400940
 1 -6.77486138123813  2.61821077317732  1.69440755955596
 1 -7.53411611991199  0.98304463286329  1.68512093469347
 1 -8.22568105940594  2.14644681478148  0.68332732993299
 1  1.13428560986099  2.25716832483248  1.38694870247025
 1  0.37196123622362  2.52040012781278  2.90387074157416
 1  1.68011362966297  0.26624301450145 -0.31806403250325
 1  1.61854011261126 -4.84992051525153 -1.81794985718572
 1  0.29825790619062 -4.15692560596060 -1.16372914261426
 1 -8.06070139513951  0.57977061106111 -2.98913982598260
 1  1.17979091919192 -4.64785909020902  1.26461614921492
 1  2.56599764266427 -5.15995247424742  0.65690962936294
 1  4.25896033983398 -4.16485401390139 -2.00014906750675
 1  5.12937505900590 -2.84481336213621 -1.19414433593359
 1  4.61943904020402 -2.39231128672867 -2.59723004530453
 1  5.04717752485248 -0.45008911771177 -1.61582827102710
 1 -9.38051757395740  0.36720761796180 -0.44907559375938
 1 -10.36671483658366  0.51517589598960 -1.91039078077808
 1  3.69457588898890  3.24158672727273  3.65445362756276
 1  6.43661866746675  1.00667487398740 -1.91157866106611
 1  4.97716872707271  5.58121121312131 -2.23370042504250
 1  3.80104810891089  5.73790085998600 -0.67289037223722
 1  5.69823159465947  5.20686714131413 -0.52252400050005
 1  1.34746228472847 -8.12826406890689  1.39518919201920
 1  8.23139442124212  2.82803010931093 -2.85812457465747
 1  7.17017846214622  3.98106567786779 -2.36688957805781

