%nproc=4
%Mem=2GB
# td=(NStates=1) B3LYP/SVP 

TD

0 1
 8 -5.32413777557756  0.34255837083708 -3.29611244404440
 8  2.69618644474447  3.24155987938794  3.23340960536054
 8  3.30515125292529  1.06049105820582  3.10952291349135
 8  1.40450458635864 -7.24503040744074  1.52191260106011
 8  0.46207295669567 -7.11563246724672 -0.59705363656366
 8  1.97959141844184  4.02020498749875 -0.09760149574957
 7 -2.29306990969097 -0.81407641424142  0.48416494359436
 7 -4.45842974687469  0.68840308890889 -1.20322225432543
 7  1.95562528962896 -0.68227020802080 -0.28085952405241
 7  2.79096036643664  1.87156560666067 -0.55473294829483
 6 -4.94892713901390  1.18403858325833  0.07626808330833
 6 -4.50748535393539  0.23394981268127  1.17506956765677
 6 -2.97675113131313  0.06777165956596  1.24478981908191
 6 -2.00857590189019  0.76765891289129  2.10379117731773
 6 -0.72955684318432  0.13945538703870  1.84681344354435
 6 -0.93137751275128 -0.85050015911591  0.81873858215822
 6 -6.35806190359036  1.29124087998800 -0.13275168896890
 6  0.54738822212221  0.28960688378838  2.56965163396340
 6 -6.76247867956796  0.79138144334433 -1.32495335303530
 6 -0.14814055605561 -1.79526482758276  0.19798697439744
 6  1.13659657085709 -1.77046955955596 -0.28347714091409
 6 -5.44520257835784  0.57963765696570 -2.10670011081108
 6  1.87159302920292 -2.86546012201220 -0.82349766636664
 6 -2.35850259145915  1.73621535353535  3.14090273027303
 6 -7.21692368456846  1.70987652365237  0.99826043994399
 6  3.14958048634863 -2.42863488778878 -1.16715787288729
 6  1.04283105570557  1.74257739993999  2.44789000740074
 6  3.09889643064306 -0.95057449684969 -0.86930056105611
 6  1.39841537943794 -4.39635401500150 -0.93207168106811
 6 -8.04865158605861  0.80861542594259 -2.11945666766677
 6  1.59147083718372 -5.09162540494049  0.43507983448345
 6  4.31390910731073 -3.01385265106511 -1.89106110351035
 6  4.04691363356336  0.04100576237624 -1.29584978007801
 6  2.49207182258226  1.92518669296930  2.97593749884989
 6  3.85659018491849  1.38150740704070 -1.05311108180818
 6 -9.27891606460646  0.53401124492449 -1.62190095269527
 6  1.14974228262826 -6.59180791029103  0.37504829752975
 6  4.76983104800480  2.48680073507351 -1.46495022152215
 6  4.25298093259326  3.61687584778478 -1.16367593889389
 6  2.83547230323032  3.34770647204720 -0.56436498349835
 6  6.17775577997800  2.16476834823482 -1.79409093789379
 6  4.85952674607461  4.95839735693569 -1.11889456135614
 6  6.87914546594659  3.00942736413641 -2.84015868396840
 1 -4.41485943664367  2.16864190909091  0.27744728672867
 1 -5.03908233733373 -0.81990698179818  0.91216246454645
 1 -4.95388550775078  0.66246047514751  2.13264539903990
 1 -2.60854826522652 -1.34255111261126 -0.24016640794079
 1 -3.45972166546655  1.08953202940294 -1.60558775607561
 1  0.47749433373337  0.20984095759576  3.65690102230223
 1  1.31318976297630 -0.40916080008001  2.26560488088809
 1 -0.86674716721672 -2.55226318961896 -0.07700788238824
 1 -3.45355750775077  1.80378696399640  3.37857402500250
 1 -1.62182704210421  1.71768039553955  4.08867859245925
 1 -2.05400820012001  2.71127976377638  2.76301845584558
 1 -6.88369226432643  2.61363031513151  1.54442256105611
 1 -7.58497120542054  0.90185651405141  1.89303172577258
 1 -8.21769026032603  2.00949311941194  0.51566056325633
 1  0.77683986528653  2.24811741974197  1.43498350595059
 1  0.41144518461846  2.35648373617362  3.12055240974097
 1  1.87960357865787  0.15889227942794 -0.06585881198120
 1  1.70490874947495 -4.99929545274528 -1.61422948514852
 1  0.32204028442844 -4.32932284568457 -0.97813058275828
 1 -7.99960528552855  1.00253288728873 -3.13214412641264
 1  1.30722366246625 -4.48270257455746  1.24983467106711
 1  2.68531957485749 -5.05548202720272  0.56216015441544
 1  4.39010345414541 -4.20550807930793 -2.00793984658466
 1  5.22501462296230 -2.59447832863286 -1.39950487198720
 1  4.10916801310131 -2.77871992759276 -2.99137946024602
 1  4.86339914701470 -0.41463557235724 -1.71967865606561
 1 -9.52042156435644  0.40309120632063 -0.54741542774277
 1 -10.13768193329333  0.61867624602460 -2.15732547424742
 1  3.57042347374737  3.35900846944694  3.53155133733373
 1  6.54284929052905  1.11782598909891 -1.34795229842984
 1  4.27298830903090  5.67430052205220 -2.08937599259926
 1  4.50440844494449  5.58362543244325 -0.07560064326433
 1  5.89653142464246  4.96074252885289 -1.01147289538954
 1  0.98606614511451 -8.21102234473447  1.38343801690169
 1  8.03449473127313  2.75121242754275 -2.91906066826683
 1  6.48439988428843  3.78445601690169 -3.34892778187819

