%nproc=4
%Mem=2GB
# td=(NStates=1) B3LYP/SVP 

TD

0 1
 8 -5.39028439023902  0.27531164616462 -3.32773560636064
 8  2.69898672477248  3.27660338373837  3.59275553995400
 8  3.23188392619262  1.14558956805681  3.22755471667167
 8  1.55955009090909 -7.34126003040304  1.38850926072607
 8  0.54895164456446 -6.96468737273727 -0.54427835903590
 8  2.00551401070107  3.87983095009501 -0.08666040164016
 7 -2.31661226392639 -0.90347535413541  0.65503203030303
 7 -4.46520042394239  0.67271151975197 -1.24738667076708
 7  1.89395912301230 -0.79742172317232 -0.44205564366437
 7  2.76575784618462  1.80750920102010 -0.57201467646765
 6 -4.86976922322232  1.27235741514151 -0.02414195769577
 6 -4.48875348074808  0.25712212991299  1.22870493119312
 6 -2.99325278147815  0.05534041644164  1.40517585768577
 6 -2.05241028532853  0.67912005900590  2.15211600980098
 6 -0.77490137763776  0.15239668116812  1.75593435563556
 6 -0.92938731373137 -0.86107121622162  0.75545225352535
 6 -6.34528062546255  1.18646040194019 -0.13948236203620
 6  0.52922640594059  0.34952287538754  2.53333800260026
 6 -6.68659109080908  0.90308261346135 -1.49841069876988
 6 -0.15239098109811 -1.90601590269027  0.22834000970097
 6  1.09674258545855 -1.86657917051705 -0.16178497169717
 6 -5.41029908800880  0.63853354655466 -2.17236667746775
 6  1.87192306220622 -2.93643721972197 -0.70310562716272
 6 -2.30264700590059  1.75773750575058  3.19205784578458
 6 -7.20200219241924  1.67162269826983  0.93983459735974
 6  3.04400992929293 -2.38196022032203 -1.27630878797880
 6  0.98895566816682  1.85473861606161  2.53891911031103
 6  3.07294383538354 -1.02755219461946 -1.01304493549355
 6  1.36750228812881 -4.32760714031403 -0.84213268716872
 6 -7.93411013191319  0.85889045344534 -2.15303002500250
 6  1.66992868296830 -5.11484772717272  0.49132545904590
 6  4.26564428082808 -3.06280754655466 -1.95837783518352
 6  4.02016095829583  0.00982264406441 -1.36772696779678
 6  2.36679929532953  2.05380955525553  3.07133703880388
 6  3.86989151505150  1.38152740904090 -1.17642341304130
 6 -9.17739591259126  0.87248509230923 -1.55070383298330
 6  1.21641895029503 -6.54686341584159  0.36860765346535
 6  4.84493855875588  2.45911796679668 -1.46083981048105
 6  4.16974260876088  3.60693485368537 -1.14913448474848
 6  2.81220997699770  3.17614931633163 -0.54887343434343
 6  6.09462746714672  2.24574644604460 -2.14866639543954
 6  4.62773356675668  5.11437295449545 -1.28878155005501
 6  7.01628918031803  3.02399882128213 -2.73219788788879
 1 -4.42842079277928  2.18766381128113  0.19696923892389
 1 -5.10758918801880 -0.58345333643364  1.12421366966697
 1 -4.62937305650565  0.51606583568357  2.04344647914791
 1 -2.86242365276528 -1.76902375987599  0.23317092579258
 1 -3.35855154845485  0.91941501770177 -1.35620281758176
 1  0.32332891719172  0.06528650215021  3.46173150535053
 1  1.32017046104610 -0.32327221122112  2.11840016041604
 1 -0.53657414991499 -2.95710367366737  0.33874369276928
 1 -3.40058221022102  1.91376796209621  3.60843701130113
 1 -1.55251011041104  1.57181580908091  4.07216694129413
 1 -2.00475327462746  2.63225186098610  2.64243639763976
 1 -6.93846774187419  2.64699365146515  1.42461057985799
 1 -7.51847455575558  0.89965629402940  1.52662508510851
 1 -8.18216670797080  2.11508367846785  0.52422141934193
 1  0.99363154445445  2.25632824082408  1.49672968056806
 1  0.34010805090509  2.73417150495050  3.04915527002700
 1  1.75259087738774  0.05286167636764 -0.01691391749175
 1  1.75321357995800 -4.83727925112511 -1.63743180538054
 1  0.34814289468947 -4.35616552995300 -0.98831160086009
 1 -8.05434075907591  0.54008664266427 -3.18387929992999
 1  0.78325126522652 -4.78561286558656  1.19616930453045
 1  2.54788583148315 -5.08979545854585  0.95486942534253
 1  4.04735917971797 -4.11828935743574 -2.38339739233923
 1  5.19301142264226 -3.27748662946295 -1.06072099359936
 1  4.76953404970497 -2.23924598019802 -2.86411673397340
 1  5.12804561166117 -0.29233334213421 -1.82231892009201
 1 -9.45647516971697  0.86074697189719 -0.41372205840584
 1 -10.31453961906191  0.50928530693069 -2.07865760746075
 1  3.43162959435944  3.31375394399440  4.28656683888389
 1  6.59831483708371  1.17573177967797 -1.92781028422842
 1  4.46094710491049  5.31119421142114 -2.37905496049605
 1  4.03603160726073  5.66875394529453 -0.43927701090109
 1  5.76382815431543  4.99700615521552 -1.01961370947095
 1  1.41240877937794 -8.34010525302530  1.25061473457346
 1  7.94073535533553  2.50512781908191 -2.99813857605761
 1  7.15499694399440  4.11993956525653 -2.90600348944895

