%nproc=4
%Mem=2GB
# td=(NStates=1) B3LYP/SVP 

TD

0 1
 8 -5.26332169396940  0.24784889988999 -3.37438027082708
 8  2.83609043514351  3.03869959335934  3.52351861626163
 8  3.22269300710071  0.80142515161516  3.22785474667467
 8  1.58990312621262 -7.18745464986499  1.54618502830283
 8  0.73392014141414 -6.96420732473247 -0.45643957515752
 8  2.04158761806181  4.00586355335534  0.00967923232323
 7 -2.42021262396240 -0.78967397399740  0.44903143024302
 7 -4.60650455435544  0.55926017461746 -1.24441637373737
 7  1.88766849394940 -0.55673765476548 -0.40445188328833
 7  2.64165543594359  1.80195864596460 -0.62871034603460
 6 -4.90822306860686  1.20281046044604 -0.03509305280528
 6 -4.49074367976798  0.41361777947795  1.24561662236224
 6 -3.01219467566757  0.10120500290029  1.31500684078408
 6 -1.95941098539854  0.75266741374137  2.09912071027103
 6 -0.79760364786479  0.07269871137114  1.71801056325633
 6 -1.04250862586259 -0.86635174427443  0.74453116141614
 6 -6.39589568696870  1.38042979887989 -0.19083749754975
 6  0.50858434173417  0.33232115521552  2.42719738853885
 6 -6.76073850555056  1.05023732893289 -1.46759761746175
 6 -0.19773551555156 -1.82708800990099  0.08998617431743
 6  1.09764267546755 -1.75379789238924 -0.27691648484848
 6 -5.54718277637764  0.65137483068307 -2.20062950375038
 6  1.89509537943794 -2.88824240024002 -0.79804512111211
 6 -2.25160190139014  1.82657438943894  3.21841048104810
 6 -7.20099209140914  1.83422895889589  0.90477109100910
 6  3.09290481878188 -2.43261528582858 -1.26623778087809
 6  1.05331210381038  1.73566670887089  2.58348356675668
 6  3.10074661566157 -0.98214765416542 -1.02709634063406
 6  1.51156669456946 -4.32131651125113 -0.80926940084008
 6 -8.07598431933193  0.73294785918592 -2.05872059405941
 6  1.82729441954195 -5.08428467086709  0.61661798829883
 6  4.26522423882388 -3.11884315011501 -1.83585558295830
 6  3.99406834903490 -0.05869420762076 -1.47514770987099
 6  2.46463907930793  1.78479265356536  3.06603650875088
 6  3.77833235913591  1.32134139043904 -1.17531330203020
 6 -9.31492966596660  0.70720856465647 -1.53427218981898
 6  1.22818012641264 -6.43472220172017  0.51653244594459
 6  4.82740680558056  2.45410746574657 -1.45944967146715
 6  4.18843447794779  3.54132829302930 -1.07523709500950
 6  2.85978473447345  3.14170587198720 -0.41627017401740
 6  6.09669767416742  2.18366023742374 -2.10095162396240
 6  4.56952774617462  5.06205772297230 -1.21500417231723
 6  6.90307785918592  3.05547196859686 -2.72256692479248
 1 -4.37723567426743  2.30883592849285 -0.07098755675568
 1 -4.92005043414342 -0.67694268536854  1.18822007030703
 1 -4.59499961916192  0.92589681878188  2.25268740324032
 1 -2.75474288468847 -1.17395425292529 -0.20414280558056
 1 -3.56751244454445  0.48593166936694 -1.56874407170717
 1  0.50734731903190  0.07529750325032  3.55996132833283
 1  1.26643508750875 -0.17390727472747  1.91936025642564
 1 -0.48465895839584 -2.87097506080608 -0.10114029562956
 1 -3.20908306030603  1.83492007730773  3.34643081068107
 1 -1.78277313671367  1.48721734923492  4.13804352895290
 1 -1.80616341564156  2.79048768456846  2.82771492549255
 1 -6.66437033213321  2.34540349244925  1.65591371017102
 1 -7.63151585988599  0.85923225162516  1.40933335593559
 1 -8.03913240454045  2.54913708380838  0.61728072527253
 1  0.79480166146615  2.26678928692869  1.58877888548855
 1  0.52297633773377  2.08335642344234  3.57032738723872
 1  1.53105872417242  0.35940233043304 -0.49521174727473
 1  1.81213947254725 -4.87303282648265 -1.77195525772577
 1  0.25006308670867 -4.43805371877188 -0.75806857655766
 1 -8.00833615861586  0.23241587558756 -3.17601851385139
 1  1.37692063216322 -4.29026333063306  1.38705839343934
 1  3.00848189108911 -5.13374985398540  0.71232517091709
 1  4.07629207300730 -4.09797732623262 -2.32202125472547
 1  5.15079720122012 -3.28567744854485 -1.08130305180518
 1  4.53990108640864 -2.39868192379238 -2.86370669296930
 1  4.76025883298330 -0.25171928072807 -1.91059774797480
 1 -9.53976349854986  1.08138903610361 -0.49253994019402
 1 -10.09923808890889  0.48773315171517 -2.13886362806281
 1  3.75548197959796  2.99194176277628  3.94770295249525
 1  6.61689669526953  1.18486269276928 -2.27935543874387
 1  4.54671568176818  5.40944403640364 -2.16544359935994
 1  3.94073207730773  5.55066213611361 -0.53774685788579
 1  5.59590136163616  5.25635208980898 -0.76287803590359
 1  1.39096663516352 -8.15600684318432  1.32872254535454
 1  7.87127840964096  2.91421872817282 -3.03531229342934
 1  6.66051749604961  4.04152172347235 -2.68490137923792

