%nproc=4
%Mem=2GB
# td=(NStates=1) B3LYP/SVP 

TD

0 1
 8 -5.14394975677568  0.10527464246425 -3.35302813561356
 8  3.04819164526453  2.87680340374037  3.12016828122812
 8  3.25261599939994  0.66043105220522  3.41746370757076
 8  1.35673980988099 -7.07955385978598  1.71259166896690
 8  0.97052380178018 -7.14668557255726 -0.58998292949295
 8  1.80875433473347  4.10462342934293 -0.19827156275628
 7 -2.41118172087209 -0.79738474507451  0.54218074517452
 7 -4.37019092299230  0.76458070667067 -1.25019695179518
 7  1.85280500760076 -0.65308728972897 -0.36029746784678
 7  2.53288455885589  1.92564101420142 -0.64169164416442
 6 -4.79895214151415  1.22603278267827  0.01456191269127
 6 -4.52344695009501  0.43229964766477  1.24069613031303
 6 -2.92765622182218  0.05929081148115  1.33202854295430
 6 -2.02009705400540  0.64266641364136  2.17230802900290
 6 -0.74535842334233  0.05854729622962  1.81120988318832
 6 -0.97475185018502 -0.90736584568457  0.77307401570157
 6 -6.33087918531853  1.41727348324832 -0.20784919871987
 6  0.53689717301730  0.23128105120512  2.64042871167117
 6 -6.56799923162316  1.00882318751875 -1.48027888558856
 6 -0.24298004000400 -1.89663496459646  0.21408858455846
 6  1.07109002020202 -1.87957046964696 -0.29023781698170
 6 -5.39802786088609  0.61322101530153 -2.23030247104710
 6  1.88181405130513 -2.93894747074707 -0.76050136673667
 6 -2.19518625982598  1.66957868986899  3.30464910491049
 6 -7.22166415861586  1.96784232023202  0.82668328222822
 6  3.07775330363036 -2.43115513981398 -1.12500365746575
 6  1.17505427802780  1.61892503470347  2.49611482988299
 6  3.04013055405541 -0.94323376277628 -0.95576920792079
 6  1.40316585448545 -4.28735311491149 -0.83933240714071
 6 -7.98993571447145  1.01684624902490 -2.17713243524352
 6  1.81236292639264 -5.11563780618062  0.46360268676868
 6  4.23296101250125 -3.23702496829683 -1.71935393279328
 6  3.96977591979198  0.07325898769877 -1.24816501160116
 6  2.58957157255726  1.63861803610361  2.98148805390539
 6  3.76376090199020  1.43729298559856 -1.07161293199320
 6 -9.20771894489449  0.80015785958596 -1.67241600420042
 6  1.36799410781078 -6.54858358785879  0.40911170387039
 6  4.63210727562756  2.50965302030203 -1.48081180768077
 6  3.98197383188319  3.70240440064006 -1.18880845214521
 6  2.64422317831783  3.30421212261226 -0.52887143414341
 6  5.96184418881888  2.25258713011301 -2.12970449924993
 6  4.44200499389939  5.08528004520452 -1.23408608050805
 6  6.65381293269327  3.20888731013101 -2.72491715981598
 1 -4.43420137083708  2.32508755365537  0.39736927892789
 1 -4.91626005510551 -0.59805479657966  1.34016526482648
 1 -4.65567568676868  1.22771700080008  1.95005714021402
 1 -2.97107451785178 -1.45611246874687 -0.26136852815282
 1 -3.30180587388739  0.70248332453245 -1.48885608290829
 1  0.36165274957496 -0.09449947644764  3.73974930713071
 1  1.28789723372337 -0.39814969896990  2.11433975437544
 1 -0.77730822332233 -2.94521248454845  0.09229904830483
 1 -3.29450160216022  1.81802838813881  3.65723189078908
 1 -1.66137099649965  1.21077970547055  4.18985871047105
 1 -1.73005580488049  2.64748338413841  3.04679683368337
 1 -6.61109500460046  2.65747469956996  1.53722184098410
 1 -7.53874658295830  1.19635596399640  1.41553397599760
 1 -7.90231872317232  2.67893006310631  0.33616261346135
 1  1.20019220052005  2.07370997899790  1.46570657825783
 1  0.67038107820782  2.43383147094709  3.15174552905291
 1  1.66370198849885  0.13584997519752 -0.06504873097310
 1  1.61673993259326 -4.81347687088709 -1.86388445064506
 1  0.22274035443544 -4.25806571997200 -0.73330610031003
 1 -7.99648497349735  0.94652728672867 -3.32175308730873
 1  1.36694963506351 -4.58317262156216  1.40975066266627
 1  2.95694673757376 -5.01920839983998  0.64916885528553
 1  4.00155459925993 -4.27513504200420 -1.99203825642564
 1  5.20526264776478 -3.43591247204720 -1.09196411791179
 1  4.56549364566457 -2.59133118871887 -2.63069339163916
 1  4.96249905700570 -0.26708081688169 -1.73010969916992
 1 -9.32544206640664  0.82612350955096 -0.65343602980298
 1 -10.18652681778178  1.01192557095710 -2.18875861756176
 1  3.89196562796280  2.79020158875888  3.64147232943294
 1  6.35088009360936  1.29366357285729 -2.17953545674567
 1  4.16054706490649  5.63795688768877 -2.19585664066407
 1  3.98053605770577  5.77570464036404 -0.55909899309931
 1  5.53515528702870  5.20750720532053 -1.01792354045405
 1  1.25022256075608 -8.03792503500350  1.57922759585959
 1  7.45888717051705  2.73643094939494 -3.19895865806581
 1  6.21925336963696  4.20025759705971 -2.96754964406441

