%nproc=4
%Mem=2GB
# td=(NStates=1) B3LYP/SVP 

TD

0 1
 8 -5.39161452325232  0.45614972997300 -3.40228306110611
 8  2.88631545764576  2.99957568096810  3.29823608800880
 8  3.24171490929093  0.74134914401440  3.18359032023202
 8  1.93833796969697 -7.17094299869987  1.69570998079808
 8  0.69786653605361 -7.21679258325833 -0.22140607180718
 8  1.89388284758476  4.02422538953895 -0.00174190979098
 7 -2.40504110681068 -1.01468647524752  0.46059258635864
 7 -4.42536644054405  0.69017326592659 -1.34716664876488
 7  1.81454118121812 -0.68486046704670 -0.39919135723572
 7  2.62703397379738  1.89735818591859 -0.44787226222622
 6 -4.86689893619362  1.25458563796380 -0.02762230573057
 6 -4.57898250365036  0.23741015871587  1.10218227892789
 6 -3.02832628882888 -0.04669978757876  1.33986932703270
 6 -1.99359440374037  0.59662180918092  2.08898969716972
 6 -0.79108299579958  0.06034747624762  1.69191795399540
 6 -1.06692106710671 -0.97611272037204  0.75112182048205
 6 -6.32031812921292  1.42971472737274 -0.23727214101410
 6  0.44142762606261  0.20015793889389  2.34804947374738
 6 -6.76107853955395  1.05822812801280 -1.40491134883488
 6 -0.19930567256726 -1.98850415151515  0.16692386808681
 6  1.12599551075108 -1.98371088368837 -0.20701949514952
 6 -5.46395445354535  0.77884757795780 -2.23348278907891
 6  1.89991586148615 -2.97752132813281 -0.72081739833983
 6 -2.22988973017302  1.62941467346735  3.27086572657266
 6 -7.19136112831283  2.03085862186219  1.01680229412941
 6  3.03079860816082 -2.44255627992799 -1.18373953105311
 6  1.02437921052105  1.70518366056606  2.55153037143714
 6  3.04580112111211 -0.99931937133713 -0.93428705970597
 6  1.61560709860986 -4.48691307090709 -0.84980345424542
 6 -7.95945266616662  1.18949351375137 -2.16764148614861
 6  1.77734942504250 -5.14486072847285  0.54640096659666
 6  4.28322603900390 -2.95844711051105 -1.78390038743874
 6  4.06012495469547 -0.01499983818382 -1.26768696379638
 6  2.59819243464346  1.69738391269127  2.99352925802580
 6  3.78308283418342  1.40146940324032 -1.07206297699770
 6 -9.15424359735974  1.10054789858986 -1.58556731933193
 6  1.41258856725673 -6.64279300880088  0.56514730743074
 6  4.73344740964096  2.47556961196120 -1.51622534903490
 6  3.99635527002700  3.63601776197620 -1.24433400470047
 6  2.70290904690469  3.26905860726073 -0.54823337033703
 6  6.01676968136814  2.34577644904490 -2.11682321112111
 6  4.42233302670267  5.01787330453045 -1.23372604450445
 6  6.73758130953095  3.28503492489249 -2.74730939903990
 1 -4.33308125882588  2.23420846574657  0.26514605660566
 1 -4.99928835793579 -0.64121911301130  0.69982123042304
 1 -5.01484160336034  0.60693492259226  1.97755989048905
 1 -2.94198160856086 -1.49254611211121 -0.33998638993899
 1 -3.41828752205221  0.43883695989599 -1.57491468876888
 1  0.33149973427343  0.09380935443544  3.41423675587559
 1  1.25297374137414 -0.62736262026203  1.99248756915692
 1 -0.47867836033603 -2.94046200950095  0.07853767216722
 1 -3.35364751675168  1.48065465076508  3.25138130573057
 1 -2.00786564596460  1.31738036553655  4.26959668426843
 1 -1.67080988028803  2.76312494829483  3.08065021902190
 1 -6.54689858495850  2.98189714181418  1.41331945074507
 1 -7.48393110141014  1.26232256065607  1.71058348094810
 1 -8.13389188048805  2.51552372247225  0.60917991519152
 1  1.17179936123612  2.13448605660566  1.43431343894389
 1  0.33134717481748  2.31873996179618  2.97421777627763
 1  1.62393801210121  0.38943533373337 -0.42755498159816
 1  2.16335459405941 -4.92767829102910 -1.75921398359836
 1  0.58276635703570 -4.68009792319232 -1.03436620632063
 1 -7.89586491149115  1.47241987598760 -3.28886979897990
 1  1.53695663576358 -4.51388569286929  1.28832852045205
 1  2.81440248314831 -5.06039251825182  0.77075101350135
 1  4.20790523432343 -4.16941446994699 -1.92044109670967
 1  5.44220634213421 -2.60166904770477 -1.34419934143414
 1  4.42734983128313 -2.62760481608161 -2.84159448174817
 1  4.93517632473247 -0.36645075387539 -1.92381907010701
 1 -9.32732225442544  0.83684458165817 -0.45411609780978
 1 -10.05076324142414  1.31430580898090 -2.33829357105711
 1  3.87878430983098  2.86288885748575  3.43200138233823
 1  6.53706871247125  1.37007121362136 -2.13194069726973
 1  4.24211522172217  5.56467955995600 -2.23037009200920
 1  3.73116112021202  5.62309937983798 -0.46135921912191
 1  5.45113688518852  5.11803825842584 -0.93642539063906
 1  1.50959849834984 -8.09077031953195  1.61990166326633
 1  7.68167944974497  2.96194350065007 -3.46906566876688
 1  6.20836228052805  4.31733930523052 -2.86282917201720

