%nproc=4
%Mem=2GB
# td=(NStates=1) B3LYP/SVP 

TD

0 1
 8 -5.22926828862886  0.31445556055606 -3.33679651245125
 8  2.74892171827183  3.13540926432643  3.29478574297430
 8  3.26293703150315  0.97467247634763  3.07451941314131
 8  1.77403153905391 -7.30934683908391  1.35183559335934
 8  0.45613236263626 -6.91598250225023 -0.45794972617262
 8  2.00686414571457  3.99519248624863 -0.11501323692369
 7 -2.43327393009301 -0.87267227382738  0.55705223232323
 7 -4.44644854875488  0.70899514811481 -1.18871080318032
 7  1.91782150925093 -0.64377635863586 -0.26232767086709
 7  2.72202347274727  1.89901835193519 -0.52528000300030
 6 -4.95983823012301  1.18876905630563  0.14387484398440
 6 -4.52994760016002  0.31100751845185  1.26954901560156
 6 -3.07822127832783  0.08259314171417  1.34371971207121
 6 -2.13673871817182  0.61204335133513  2.17079787798780
 6 -0.85927981548155  0.02505394689469  1.81440020222022
 6 -1.10577495249525 -0.86282139123912  0.82879958825883
 6 -6.43001909930993  1.25279703560356 -0.11018943274327
 6  0.48101158445845  0.24641256435644  2.50209487828783
 6 -6.68162059375938  0.84169647484748 -1.42695355305531
 6 -0.23527926992699 -1.86517181828183  0.15853302900290
 6  1.03521643284328 -1.79420193279328 -0.19386818001800
 6 -5.43711176927693  0.47698739193919 -2.10597003780378
 6  1.85554142404240 -2.93441701770177 -0.76048136473647
 6 -2.25290203140314  1.74363609560956  3.20641928192819
 6 -7.22069406160616  1.89194473047305  0.87199781368137
 6  3.05762129042904 -2.42775479977998 -1.11093225032503
 6  1.04192096469647  1.68905204740474  2.52441766016602
 6  3.12875941694169 -0.99948938833883 -0.80575420642064
 6  1.38312385028503 -4.29363374297430 -0.87883635753575
 6 -7.93593031393139  0.88224278867887 -2.17093181518152
 6  1.74289597969797 -5.07477371977198  0.42276860336034
 6  4.43337105350535 -3.07988925472547 -1.59843184058406
 6  4.02467140934093 -0.04866320452045 -1.27018721382138
 6  2.41116373177318  1.81374554885489  3.02334223932393
 6  3.80664519041904  1.40401965826583 -1.14677044774477
 6 -9.22549072207221  0.85879372317232 -1.64355311791179
 6  1.27770507890789 -6.48915764526453  0.31484227692769
 6  4.77311137603760  2.39658171317132 -1.58936266276628
 6  4.19753538803880  3.55149931013101 -1.16523609490949
 6  2.93924268026803  3.23082478387839 -0.57626617361736
 6  6.11990999539954  2.26284815621562 -2.08774030283028
 6  4.65882667606761  4.96366788398840 -1.20350302220222
 6  6.89832738413841  3.15018143954395 -2.82447711581158
 1 -4.51216916761676  2.24834987988799  0.40537007900790
 1 -5.11300973007301 -0.77251224232423  1.15307655595560
 1 -4.83047316651665  0.76341057015702  2.26843897839784
 1 -2.93207061746175 -1.20026688418842 -0.18705109640964
 1 -3.43131882518252  0.73307638383838 -1.31024822212221
 1  0.32780936523652 -0.06488651515151  3.60020535273527
 1  1.35661410541054 -0.38185806980698  2.12187050745075
 1 -0.78915940844084 -2.66331429472947 -0.01035121672167
 1 -3.37726987898790  1.97631421672167  3.47746391399140
 1 -1.66904176357636  1.64418304580458  4.11852157675768
 1 -1.89296209550955  2.81809044484448  2.58425057905791
 1 -6.94484837993800  2.69340829292929  1.45769388818882
 1 -7.49438214651465  1.20142647104710  1.58713113571357
 1 -8.12991148244824  2.14054622472247  0.41263026022602
 1  1.05941812311231  1.97738034603460  1.38942895049505
 1  0.20689472957296  2.39562765056506  3.16361671617162
 1  1.63411903020302  0.18841523172317 -0.17888011411141
 1  1.86194445304530 -4.78197372057206 -1.78245630783078
 1  0.27569564996500 -4.46952686608661 -0.96753952365237
 1 -7.93700902590259  1.04639727372737 -3.09008992099210
 1  1.33345628572857 -4.49732403670367  1.38891857945795
 1  2.75714675757576 -4.93401988098810  0.53700763916392
 1  4.32090653445344 -4.06152368086809 -1.90418947154715
 1  5.36733885538554 -2.86292517331733 -1.08961388288829
 1  4.74532162846285 -2.64327638323832 -2.58334865716572
 1  5.03779658675867 -0.59055316411641 -1.76811349954996
 1 -9.42628215041504  0.93273417061706 -0.63715440164016
 1 -10.02965113021302  0.81114549294930 -2.32001174287429
 1  3.68621505290529  3.15352792139214  3.87213539573957
 1  6.49102410801080  1.24400860736074 -2.20923842704270
 1  4.53850486068607  5.36084917691769 -2.28342539753975
 1  3.94494249834984  5.71785885578558 -0.60104318751875
 1  5.64208598009801  5.06632308690869 -0.81517326542654
 1  1.47248478697870 -8.20839208170817  1.12843251635164
 1  7.76119740154015  2.81870917721772 -3.15965472767277
 1  6.53122456675668  4.10901847314731 -3.53476636573657

