%nproc=4
%Mem=2GB
# td=(NStates=1) B3LYP/SVP 

TD

0 1
 8 -5.22773813561356  0.27948206320632 -3.31105393819382
 8  2.97297412351235  2.91504722812281  3.11131739613961
 8  3.16941767956796  0.69623463256326  3.19532149334934
 8  1.77713184908491 -7.06676258065807  1.57942835263526
 8  0.53373012241224 -6.98248915291529 -0.37834176537654
 8  2.00908436773677  4.07537050405041 -0.05377711331133
 7 -2.49175977867787 -0.87197220382038  0.51304783188319
 7 -4.36887079097910  0.72083633223322 -1.16331826392639
 7  1.77257698479848 -0.68024000500050 -0.31189262736274
 7  2.63244451485149  1.81581003110311 -0.49582705770577
 6 -4.90543278957896  1.16845702510251  0.07523798029803
 6 -4.56492109750975  0.22292871057106  1.30866292699270
 6 -3.09647310351035 -0.00806592419242  1.41024636473647
 6 -2.06608165246525  0.61916406340634  2.20538133633363
 6 -0.87593148064806 -0.02515107360736  1.77659642184218
 6 -1.05639001400140 -0.84705981508151  0.78204491279128
 6 -6.36587268466847  1.41081283718372 -0.22580099389939
 6  0.46216970027003  0.15216313941394  2.51820648944895
 6 -6.63147557925793  0.91815412061206 -1.45973683138314
 6 -0.26435217721772 -1.97628292939294  0.22554973067307
 6  1.04708761996200 -1.84414692729273 -0.23440223342334
 6 -5.32110016811681  0.58398809200920 -2.17589703050305
 6  2.02209807970797 -2.95061863786379 -0.75255057165717
 6 -2.22396913811381  1.78961069306931  3.13359199919992
 6 -7.27829982218222  1.99033456945695  0.84597521142114
 6  3.05425095339534 -2.26895892019202 -1.15386654375438
 6  1.10512728532853  1.56594973717372  2.47561277967797
 6  2.92637917891789 -0.86983642304230 -0.87072070307031
 6  1.41614715261526 -4.37071145074508 -0.82943141704170
 6 -7.92831955285529  0.88042260666067 -2.17485220722072
 6  1.79817150725073 -5.05608185058506  0.41272759925993
 6  4.34078179457946 -3.00555182098210 -1.73976597399740
 6  3.99427837003700  0.00709237103710 -1.31328152325233
 6  2.50162277767777  1.62988716301630  2.92986289138914
 6  3.83202772867287  1.37074633093309 -1.03234900560056
 6 -9.11911008400840  0.92860070387039 -1.58936769936994
 6  1.32183949234923 -6.52647137663766  0.36725751845185
 6  4.78537260216022  2.51562361736174 -1.54311803830383
 6  4.10301593609361  3.67713187338734 -1.19647921922192
 6  2.75341409740974  3.26036773817382 -0.52212075907591
 6  6.08830683508351  2.35701757315732 -2.09744127292729
 6  4.55626642004200  5.07763928112811 -1.35160783268327
 6  6.86570412181218  3.18516493789379 -2.71099576767677
 1 -4.29997794849485  2.05498054295430  0.38129767176718
 1 -5.08105653475348 -0.52931792289229  0.90863211151115
 1 -4.96019613881388  0.75587981708171  2.30131226572657
 1 -2.86877428782878 -1.63575043254325 -0.17335972727273
 1 -3.34014970827083  0.55967904410441 -1.49489668696870
 1  0.12427901220122 -0.21482150865087  3.40758609080908
 1  1.29856830083008 -0.59667955195520  2.04236255665567
 1 -0.82016250875087 -2.94210217351735  0.01328114651465
 1 -3.19078123012301  1.98601518681868  3.47407357495750
 1 -1.49183404280428  1.54970359785979  4.10033975857586
 1 -1.84970777007701  2.71358999479948  2.95330748474847
 1 -6.84075797089709  2.52459141124112  1.56946506530653
 1 -7.88859156745675  1.15961228962896  1.44509693229323
 1 -8.18907739903990  2.58665083518352  0.41145014221422
 1  1.04730691199120  1.94044665266527  1.46462647024702
 1  0.45740978107811  2.33836192399240  3.06384673917392
 1  1.37886350465046  0.25085147534753 -0.10359258535854
 1  1.88365662426243 -4.94992051525153 -1.63342140434043
 1  0.19263734413441 -4.20639055245525 -0.89059182888289
 1 -7.79386471147115  0.68836147014701 -3.49662057405741
 1  1.11936487658766 -4.64853915821582  1.30125981358136
 1  2.81263230613061 -4.94519099809981  0.67126106450645
 1  3.86110055385539 -3.84330185868587 -1.98729778237824
 1  5.07075919741974 -3.21622050285029 -0.82310723222322
 1  4.76910400670067 -2.42372442804280 -2.56794711701170
 1  4.99411221832183 -0.29750385918592 -1.76416310451045
 1 -9.39919944214421  1.01537243444344 -0.60669135533553
 1 -9.91549971507151  1.12150652905291 -2.40832057375738
 1  3.90031646304630  3.05217778637864  3.22599078127813
 1  6.46926193179318  1.13827803430343 -2.01093859705971
 1  4.40397140734073  5.36675976797680 -2.54007106210621
 1  3.76082408650865  5.62906997689769 -0.87595067826783
 1  5.45616738823882  5.24852130673067 -0.97954970307031
 1  1.55196273477348 -8.03140438293829  1.74067374047405
 1  7.72699398119812  2.76940424672467 -3.10753951615162
 1  6.63162460676068  4.23215078637864 -2.86464935403540

