%nproc=4
%Mem=2GB
# td=(NStates=1) B3LYP/SVP 

TD

0 1
 8 -5.22233759555956  0.39747386238624 -3.37664049684969
 8  2.97910473657366  2.96551227462746  3.07997426182618
 8  3.37397813561356  0.77477248634863  3.00561252245225
 8  1.45548968486849 -7.33318922332233  1.54132454225423
 8  0.38493524292429 -6.78380928492849 -0.39289322052205
 8  1.92110556985699  4.07711067806781 -0.21809354495450
 7 -2.40397099979998 -0.83971897849785  0.49995652275228
 7 -4.40587449134914  0.63095734433443 -1.28240017211721
 7  1.89680940804080 -0.69811179217922 -0.24707614571457
 7  2.65011628202820  1.90775922602260 -0.42044951995200
 6 -4.87572981928193  1.20311049044904  0.05515597209721
 6 -4.51934654005401  0.25698211591159  1.23571563226323
 6 -3.06972042824282 -0.00406552415242  1.38472381248125
 6 -2.06634167846785  0.61796394339434  2.18324912311231
 6 -0.81587547504750  0.05882732423242  1.86015477767777
 6 -1.02826720172017 -0.85741085018502  0.74830153845385
 6 -6.47903400080008  1.28104986088609 -0.17272568636864
 6  0.53741722502250  0.34186210931093  2.56029069786979
 6 -6.72865529722972  0.90119242444244 -1.44160501820182
 6 -0.29334507650765 -1.81995729682968  0.20520769646965
 6  1.06216912811281 -1.77846035863586 -0.22651144434443
 6 -5.38060611871187  0.58651834503450 -2.18900834163416
 6  1.91831770167017 -2.94830840684068 -0.86202151875188
 6 -2.27013375457546  1.59783151515152  3.33590223022302
 6 -7.19933192539254  1.77858339433943  0.94731534543454
 6  3.17258278657866 -2.43294531883188 -1.17594875197520
 6  1.13652042464246  1.63465660786079  2.51764698309831
 6  3.13209975097510 -0.92484192359236 -0.91602523352335
 6  1.47405294319432 -4.36024040364036 -0.86946542044204
 6 -7.93013973487349  0.81743630803080 -2.25921064306431
 6  1.85030672077208 -5.13137938033803  0.43627995449545
 6  4.37432514891489 -2.99713097889789 -1.67873987138714
 6  4.05792473467347  0.03410507230723 -1.15246544164416
 6  2.56528914431443  1.66956113041304  2.92264216931693
 6  3.80272479837984  1.39655891219122 -0.91623739443944
 6 -9.15015318831883  0.86936478027803 -1.64020278287829
 6  1.18110541894189 -6.46546527602760  0.53015380808081
 6  4.79857392229223  2.54732678767877 -1.38569229572957
 6  4.12321795629563  3.64037819801980 -1.17354692599260
 6  2.75426418241824  3.26091779317932 -0.54478302530253
 6  5.99085709010901  2.31465333673367 -2.12782431123112
 6  4.45761655505551  5.10494201140114 -1.42042471437144
 6  6.79081663306331  3.12066848824883 -2.69500416851685
 1 -4.37721567226723  1.99356440134013  0.32103164516452
 1 -4.95783421252125 -0.71249624072407  1.11008225652565
 1 -4.95752587178718  0.57694192329233  2.10225235973597
 1 -2.82583999439944 -1.20254711221122 -0.29653204450445
 1 -3.47702339563956  0.78848192439244 -1.55608280558056
 1  0.21096768106811  0.11495146864687  3.62744807700770
 1  1.35949439343934 -0.42857274127413  2.10543886428643
 1 -0.83382387488749 -2.83049101240124 -0.17114729632963
 1 -3.32254440644064  1.59542612791279  3.76602276987699
 1 -1.55269012841284  1.43302192969297  4.33676340094009
 1 -2.06756955625563  2.62345098089809  2.95087724172417
 1 -6.72720661576158  2.37250620272027  1.71158927772777
 1 -7.82768547684768  0.97283361176118  1.57124954755476
 1 -8.00743923522352  2.34616678677868  0.85677467466747
 1  1.02570475177518  2.24419702770277  1.53825383298330
 1  0.70801484158416  2.35811389918992  3.20589094359436
 1  1.84705032333233  0.35907229742974 -0.22183440954095
 1  1.82864112271227 -4.84407993119312 -1.79638770097010
 1  0.41345942634263 -4.33917383078308 -1.06428919861986
 1 -7.79428475347535  0.74797743174317 -3.42078299029903
 1  1.51779471957196 -4.51046535083508  1.24933462106211
 1  2.88390943384338 -5.22934941394139  0.75826976537654
 1  4.24307875167517 -4.04025155365537 -2.33025207780778
 1  5.50460258175818 -2.98596747754775 -1.17188210971097
 1  4.81891898819882 -2.41470352595260 -2.56602692499250
 1  5.07963077017702 -0.25685979477948 -1.53181987018702
 1 -9.26774629682968  1.20994189138914 -0.72520320652065
 1 -9.95554371947195  0.77885226362636 -2.34280402210221
 1  3.87632406380638  3.08359092769277  3.42710089228923
 1  6.45771077667767  1.25937014351435 -1.92203970717072
 1  4.22397340754075  5.25906899889989 -2.58464551955196
 1  3.69371737583758  5.71582865276528 -0.94522760596060
 1  5.57382915441544  5.29839629422942 -1.08147989608961
 1  0.93005054355436 -8.13688493099310  1.46863653675368
 1  7.81661294309431  2.86893419971997 -2.90526928912891
 1  6.56961840614061  4.09954752605261 -2.69227211631163

