%nproc=4
%Mem=2GB
# td=(NStates=1) B3LYP/SVP 

TD

0 1
 8 -5.32872823462346  0.03522763776378 -3.39049188198820
 8  2.96815364146415  3.09226494989499  3.10279654405441
 8  3.26106684448445  0.89292430153015  3.03135509670967
 8  1.55067920382038 -7.24606051045104  1.41688209800980
 8  0.27451420082008 -6.91697260126013 -0.37003093429343
 8  2.02794625392539  4.01962492949295  0.08255652005201
 7 -2.39730033273327 -1.01237624422442  0.64083061016102
 7 -4.43076698059806  0.54414866346635 -1.25348728082808
 7  1.94972469956996 -0.58212019301930 -0.41154259235924
 7  2.68091936233623  1.85315376547655 -0.46662413741374
 6 -4.81966421272127  1.10541072047205 -0.05698524202420
 6 -4.49931453685369  0.33444986268627  1.19531159185919
 6 -3.01508496469647  0.03058794119412  1.39935527562756
 6 -2.02859790409041  0.68632077907791  2.18976977517752
 6 -0.79884377187719  0.08098954045405  1.87636639883988
 6 -0.98600297529753 -0.84126923602360  0.81031774007401
 6 -6.35584168156816  1.36093784968497 -0.27513592739274
 6  0.49317280058006  0.34644256735674  2.59504417321732
 6 -6.71528396009601  0.94369667486749 -1.45219607730773
 6 -0.20189593159316 -1.86975227632763  0.20659783548355
 6  1.17942085328533 -1.76400891349135 -0.21689048224822
 6 -5.46041409950995  0.38978867206721 -2.22460190099010
 6  1.94570043994399 -2.91310488648865 -0.80381569816982
 6 -2.26467320852085  1.70788252025203  3.17462610261026
 6 -7.15959795199520  1.92249778577858  0.84237485138514
 6  3.16381190949095 -2.39673169746975 -1.16410756785679
 6  1.10070684328433  1.82892603480348  2.47003222162216
 6  3.03245978697870 -0.91719115851585 -0.95379901090109
 6  1.51651718961896 -4.29592397199720 -0.84893336723672
 6 -8.03425014591459  0.85133969836984 -2.13611833383338
 6  1.76179786988699 -5.15092133453345  0.44573089958996
 6  4.28550626702670 -3.03940520632063 -1.83779577697770
 6  3.96488543074307 -0.01238957715772 -1.33105330043004
 6  2.50453306870687  1.81388556285629  2.89740964606461
 6  3.79944447034703  1.36153540984098 -1.12991876257626
 6 -9.27386555955596  0.92382022582258 -1.50623938653865
 6  1.10862817121712 -6.52380110961096  0.44616540924092
 6  4.81123518841884  2.43811586658666 -1.44017774427443
 6  4.10410604510451  3.58192235243524 -1.10417998929893
 6  2.83578233423342  3.20536223762376 -0.46255480248025
 6  6.06696470087009  2.30321219261926 -2.13311484028403
 6  4.58014880828083  5.02595411261126 -1.00914358625863
 6  6.80888844024402  3.30303672507251 -2.63126779487949
 1 -4.36898484918492  2.21099614451445  0.33850339233923
 1 -4.98423685278528 -0.76273126422642  1.20131137943794
 1 -4.83954407360736  0.83520774987499  2.09278141264126
 1 -2.95510292069207 -1.36845370287029 -0.17901029232923
 1 -3.57008270157016  0.64345742194219 -1.72556975427543
 1  0.48858544284428  0.03484345784579  3.55905123732373
 1  1.16387483148315 -0.37060694469447  2.20293861426143
 1 -0.66767726022602 -2.87663562686269  0.06298611701170
 1 -3.22790494249425  1.63422000730073  3.68209437703770
 1 -1.57055191459146  1.66713534103410  3.98585831043104
 1 -2.20312311161116  2.57871650745074  2.73572572657266
 1 -6.64021791689169  2.89232818491849  1.43430154895490
 1 -7.02608531683168  1.19337566596660  1.86963938653865
 1 -8.34553304460446  2.06242841294129  0.50500949814982
 1  0.97757993929393  2.11208381638164  1.44456446404640
 1  0.65794983508351  2.66700478827883  2.80597095159516
 1  1.82731835013501  0.37013340354035 -0.04651687778778
 1  2.07015527412741 -4.99474499769977 -1.73161122332233
 1  0.52765084548455 -4.47397731113111 -1.16572934263426
 1 -8.07742306730673  0.76930956495650 -3.24320523252325
 1  1.28845178527853 -4.69157346164616  1.18589827742774
 1  2.87482852575257 -5.32278875787579  0.80027396579658
 1  4.09146359015902 -4.21883941244124 -1.73105215781578
 1  5.39694181568157 -2.85981486228623 -1.37801272277228
 1  4.50094719101910 -2.91503355895590 -2.94160448274827
 1  5.01493430053005 -0.38020212901290 -1.50928761696170
 1 -9.30201972417242  1.09322021922192 -0.33567425362536
 1 -10.10436860196020  0.86020039843984 -2.32980272197220
 1  4.08669510091009  3.15749831843184  3.16351453365337
 1  6.65267027262726  1.42101630813081 -2.15004250745074
 1  4.63075408560856  5.29199229122912 -2.07237429242924
 1  3.85595359945995  5.68841591149115 -0.59176225942594
 1  5.60188195969597  5.22118857345735 -0.53937568566857
 1  0.95379291779178 -8.03323456595659  1.50019969306931
 1  7.97210849264926  2.97046435273527 -2.92135089728973
 1  6.52756420072007  4.41926949824983 -2.56104899399940

