%nproc=4
%Mem=2GB
# td=(NStates=1) B3LYP/SVP 

TD

0 1
 8 -5.43411877367737  0.02315643064306 -3.31580441324132
 8  2.85578240434043  3.15653137653765  3.31700796519652
 8  3.14330506830683  0.85757076617662  3.37409937113711
 8  1.30064420032003 -7.03686959135914  1.49513992379238
 8  0.56429317871787 -6.83653455745575 -0.67588151935193
 8  1.94959841914191  4.08502146914692 -0.21758349394939
 7 -2.33480408310831 -0.77422242884288  0.52622915001500
 7 -4.43527743164316  0.61555580418042 -1.25802773487349
 7  2.05319504660466 -0.80175215621562 -0.34799623772377
 7  2.72701397179718  1.78151660176018 -0.59763723872387
 6 -4.86756900320032  1.17382756215622  0.06767722422242
 6 -4.43632823822382  0.36225264296430  1.20257231793179
 6 -3.00696415261526  0.10752563496350  1.26265160526053
 6 -1.93356840114011  0.70126227322732  2.07991879007901
 6 -0.79381326882688  0.04181562306231  1.85671443364336
 6 -1.01750612561256 -0.85591070017002  0.77650435873587
 6 -6.38995509290929  1.30875263116312 -0.14327274107411
 6  0.58363184648465  0.30057798089809  2.50768543734373
 6 -6.70262269396940  0.78768107330733 -1.36613747144714
 6 -0.18539428142814 -1.90694599569957  0.12764994069407
 6  1.16804971617162 -1.74607712031203 -0.24920371357136
 6 -5.51325938403840  0.35069476267627 -2.11423086388639
 6  1.93113898379838 -2.88379195519552 -0.76702201880188
 6 -2.31773851505151  1.72395412741274  3.08438707870787
 6 -7.26816880908091  2.06294183018302  0.89950056395640
 6  3.14668019631963 -2.39458148244824 -1.18003916101610
 6  1.14033080568057  1.72917605980598  2.46003122152215
 6  3.14068060906091 -0.96740618001800 -0.92471610261026
 6  1.50456599449945 -4.32417679727973 -0.87374584848485
 6 -8.06876359725973  0.69957452185219 -1.97866258825883
 6  1.68343003310331 -4.97829407180718  0.34433075957596
 6  4.23605132153215 -3.14390565636564 -1.85174717211721
 6  4.12151109330933 -0.06302464066407 -1.25593578867887
 6  2.50377299269927  1.83267744204420  3.11949185428543
 6  3.83293781968197  1.29177843414341 -1.09011478217822
 6 -9.25698387138714  0.66896474027403 -1.43380214281428
 6  1.10356766516652 -6.37923665316532  0.30593138583858
 6  4.88191225612561  2.49367142214221 -1.45873960046005
 6  4.13360899539954  3.63800796099610 -1.13987355865587
 6  2.76490524652465  3.20279198059806 -0.60099864686469
 6  6.13010101450145  2.25622749414942 -2.00342187098710
 6  4.56821761516152  4.99783130033003 -1.36463913581358
 6  7.03234078547855  3.17691411281128 -2.38780344844484
 1 -4.77575552625263  2.35231027592759  0.12380192219222
 1 -5.01765019411941 -0.59293428452845  1.30263151145115
 1 -4.63709382858286  1.02838706780678  2.16750888538854
 1 -3.05114252465246 -1.40462732023202 -0.13802619391939
 1 -3.53736943024302  0.70059313551355 -1.56509370667067
 1  0.23905048934893 -0.02437246374637  3.52107743994399
 1  1.20936938093809 -0.43410329432943  2.40753907430743
 1 -0.80338083058306 -2.76218418171817 -0.20652083368337
 1 -3.43146529852985  1.58752533783378  3.46711287888789
 1 -1.59387424682468  1.72383101060106  3.99798952355236
 1 -2.08933173247325  2.83467210301030  2.41891404540454
 1 -6.67352124722472  2.72304125622562  1.37815593439344
 1 -7.70118282658266  1.43199952835284  1.79202162476248
 1 -7.98706719801980  2.55478764886489  0.28004700190019
 1  0.91912409370937  2.21158376637664  1.46313632123212
 1  0.55341938203820  2.36724481228123  3.09876023052305
 1  1.75309092739274  0.22921931213121 -0.40858308440844
 1  1.81171943054305 -4.96754227742774 -1.68378644084408
 1  0.34026210661066 -4.50095000840084 -0.97315008470847
 1 -8.10412573757376  0.46992962696270 -3.14343525552555
 1  1.29409234933493 -4.19273357765777  1.23373306090609
 1  2.92067311021102 -5.00188666766677  0.69355329372937
 1  3.86828127192719 -4.20250777927793 -1.93824287688769
 1  5.22441456295630 -3.20339922072207 -1.53010793229323
 1  4.33764086038604 -2.94757681328133 -3.03313363566357
 1  5.10465327242724 -0.45016912571257 -1.59629631783178
 1 -9.79362888508851  1.04237513471347 -0.51183186938694
 1 -10.09319748484848  0.63434781318132 -2.22910265196520
 1  3.63350978237824  3.23469603820382  3.85271345354536
 1  6.47853285888589  1.25855006150615 -1.79062656585658
 1  4.91216222642264  5.27825091709171 -2.36910396539654
 1  3.79504750885088  5.86784385428543 -1.07991107430743
 1  5.57884965646565  5.53104955955596 -0.87035878397840
 1  1.17550508900890 -7.92654389688969  1.38182785588559
 1  8.20413169496950  2.85892319861986 -2.66837559975998
 1  6.76140758505851  4.03607117841784 -2.43747663676368

