%nproc=4
%Mem=2GB
# td=(NStates=1) B3LYP/SVP 

TD

0 1
 8 -5.21312667446745  0.11329544454445 -3.35476830963096
 8  2.85290211631163  3.00364608800880  3.38013427782778
 8  3.29897063486349  0.76102111121112  2.80713267446745
 8  1.88095223112311 -7.15579148354835  1.52524293409341
 8  0.88726547594760 -7.14746565056506 -0.49274320552055
 8  1.93337679697970  4.02169513651365  0.00291855625563
 7 -2.52236283898390 -0.92268727532753  0.79119564666467
 7 -4.39995389928993  0.71667591619162 -1.32715464756476
 7  1.85120484758476 -0.69514149514952 -0.27221865996600
 7  2.62915418581858  1.85894434453445 -0.40021749674968
 6 -4.74986723302330  1.31738191759176 -0.09180872437244
 6 -4.47939254465447  0.42985940364036  1.23782584328433
 6 -3.09025248144814  0.13652853525353  1.49105444554455
 6 -2.01297634193419  0.77119926692669  2.17877867606761
 6 -0.79483337083708  0.05547698919892  1.85253401560156
 6 -1.12669704470447 -0.96138124722472  0.89080578887889
 6 -6.22445854325433  1.46655841174117 -0.27921633543354
 6  0.53729721302130  0.32559048214821  2.55758042684268
 6 -6.51652408410841  1.01024332953295 -1.48120897859786
 6 -0.25231097309731 -1.88732403350335  0.26790396609661
 6  1.03737664886489 -1.89575208780878 -0.30023881708171
 6 -5.36758481658166  0.49457915111511 -2.21055049584958
 6  1.80003587348735 -2.88456203220322 -0.91678699529953
 6 -2.14372111331133  1.86388812081208  3.19478811881188
 6 -7.15709770197020  2.12812834883488  0.72564317821782
 6  2.94728025632563 -2.39913193749375 -1.31533269036904
 6  1.09059583218322  1.77682082428243  2.67959317771777
 6  2.95887242824282 -0.92923236263626 -0.97268089908991
 6  1.27419295719572 -4.39550392999300 -0.84463293719372
 6 -7.77740446134614  0.71893645804580 -2.14936965896590
 6  1.63068475857586 -5.07584382678268  0.51549787628763
 6  4.03021073747375 -3.12907417321732 -2.03004500190019
 6  3.93138208040804  0.07100876267627 -1.37455765086509
 6  2.47156977237724  1.77460163446345  2.99310921602160
 6  3.70551507740774  1.39239849614962 -0.98579435013501
 6 -9.11946011901190  0.70586843064306 -1.67362612521252
 6  1.36344365276528 -6.53385211471147  0.45494628732873
 6  4.71242530743074  2.43084513951395 -1.41407513401340
 6  4.13782941744174  3.62985714591459 -1.00741031233123
 6  2.75884464046405  3.26008771017102 -0.35725427242724
 6  5.94482248664867  2.19162103350335 -2.07972950175018
 6  4.63136392979298  5.06007752495250 -1.19039171107111
 6  6.61519907130713  3.08857527892789 -2.77610227832783
 1 -4.30238818951895  2.30659570447045  0.22113165516552
 1 -4.96302473157316 -0.48941393249325  1.29948119641964
 1 -5.00187030623062  0.89604383348335  2.18181031553155
 1 -2.93609101950195 -1.73110996849685  0.29862747144714
 1 -3.44727042034203  0.39650272647265 -1.68555575287529
 1  0.36205278957896  0.07184715821582  3.71227655985599
 1  1.34070251425143 -0.15032491649165  2.07840616101610
 1 -0.89423991649165 -2.81506947024702 -0.07982816441644
 1 -3.21269342134213  2.13989057435744  3.31400756835684
 1 -1.63696855625563  1.40423905140514  4.21874159875988
 1 -1.76339913921392  2.83844248004800  2.69035118911891
 1 -6.42867676277628  3.05449440154015  1.27815593439344
 1 -7.50743345164516  1.47611393979398  1.56892931553155
 1 -8.11724021532153  2.39127129722972  0.29012801000100
 1  0.83716589788979  2.30114272227223  1.79041904950495
 1  0.41566560666067  2.35375346314631  3.27393774827483
 1  1.66422204050405  0.24292068226823 -0.04658688478848
 1  1.66363462206221 -4.98663418661866 -1.76062412461246
 1  0.29549763016302 -4.44220413381338 -1.18302107180718
 1 -7.70078540354035  0.42995562956296 -3.22283319531953
 1  1.10645358545855 -4.49091339563956  1.10408009560956
 1  2.69783082598260 -5.04907138613861  0.78182212061206
 1  3.69105354915491 -4.23903143164316 -2.38461751435143
 1  5.21872399389939 -3.26776565736574 -1.63129805130513
 1  4.15677277357736 -2.48622067766777 -3.03669399169917
 1  4.80346315341534 -0.28264237303730 -1.78463515171517
 1 -9.51672119431943  0.81028192539254 -0.72734342054205
 1 -10.02958112321232  0.74533891229123 -2.37053679537954
 1  3.64107053845385  2.92199476807681  3.57761594379438
 1  6.22938794439444  1.18601280778078 -1.99871737493749
 1  4.39919092929293  5.27738083008301 -2.08729578457846
 1  4.14141214531453  5.69795686558656 -0.75554863806381
 1  5.76069784128413  5.13485994059406 -0.92230397849785
 1  1.82803034153415 -8.21057229972997  1.53697337043704
 1  7.64318560036004  2.85165247154715 -3.22321108330833
 1  6.19935137943794  4.16393396469647 -3.01983487258726

