%nproc=4
%Mem=2GB
# td=(NStates=1) B3LYP/SVP 

TD

0 1
 8 -5.29197455925592  0.03429754475448 -3.28982181498150
 8  2.71567839393939  3.24202992639264  3.45403166756676
 8  3.16087682548255  0.98291330043004  3.12115407660766
 8  1.50414455035504 -7.18964486888689  1.49218962876288
 8  0.50209695909591 -6.94953585758576 -0.52517644884488
 8  1.96348980828083  4.03995696269627 -0.13710544614461
 7 -2.24989559225923 -0.93512851945195  0.51350787788779
 7 -4.38331223512351  0.73121737033703 -1.30886281838184
 7  1.88794852195220 -0.74530651165117 -0.32395383348335
 7  2.70015128552855  1.83162161226123 -0.58405588058806
 6 -4.85066731303130  1.28324850425042  0.01237169366937
 6 -4.39213381878188  0.39435585328533  1.22938499919992
 6 -2.95033849004900 -0.04135925352535  1.31743708380838
 6 -2.01422646694669  0.66043819081908  2.10015081328133
 6 -0.73135702320232  0.13607504900490  1.65151391359136
 6 -0.95387976297630 -0.93817892699270  0.72586929522952
 6 -6.29986608400840  1.31931368726873 -0.14622303610361
 6  0.53189667296730  0.38872679577958  2.50435510431043
 6 -6.66809924162416  0.82766507170717 -1.36575743344334
 6 -0.22511825382538 -1.94205950705071  0.16941411711171
 6  1.05420833203320 -1.80499301190119 -0.29692848604860
 6 -5.46950500860086  0.45879557275728 -2.13579302010201
 6  1.86083195309531 -2.89937351335133 -0.82142745934593
 6 -2.22379912111211  1.82574430643064  3.05795443544354
 6 -7.29389138133813  1.88493402940294  0.93809442334233
 6  3.07168269656966 -2.40001202550255 -1.30510166726673
 6  1.05674244684468  1.88264140634063  2.57384260266027
 6  3.09666620762076 -1.04246368576858 -0.99639327032703
 6  1.49355489338934 -4.31240562016202 -0.88304677857786
 6 -8.02776949784979  0.82119668406841 -2.03154787678768
 6  1.66865855595560 -5.11431767416742  0.42244857135714
 6  4.20970868726873 -3.13772503830383 -1.89621161856186
 6  3.99289823202320  0.04013567536754 -1.33185338043804
 6  2.37885050045005  1.90893506780678  3.06862676777678
 6  3.85793031893189  1.34743399969997 -1.04769053975398
 6 -9.15089326232623  0.72277012081208 -1.40477924052405
 6  1.13713102150215 -6.45863459295930  0.38924971767177
 6  4.79997406230623  2.41439349434943 -1.40090381688169
 6  4.16284191869187  3.54740890109011 -1.10486005730573
 6  2.84102285828583  3.24445614701470 -0.47388593559356
 6  6.15750375477548  2.17147901930193 -2.05371690049005
 6  4.58429922332233  5.03705522272227 -1.17539021092109
 6  7.01971952335234  3.11991841324132 -2.57607227532753
 1 -4.39426737743774  2.21987703260326  0.04436397839784
 1 -4.99611804090409 -0.44794978607861  1.07369861816182
 1 -4.74783490269027  0.79653388248825  2.24555669016902
 1 -2.78812622302230 -1.51006786428643 -0.28040043134313
 1 -3.52979867316732  0.70671374757476 -1.75633283058306
 1  0.18183476777678 -0.08732875937594  3.47433276547655
 1  1.25719416341634 -0.24975485948595  2.25717403780378
 1 -0.66553704620462 -2.86007397069707 -0.07665784738474
 1 -3.39971212321232  2.13945053035304  2.83216938453845
 1 -2.14268912831283  1.11571019851985  4.22578230283028
 1 -1.59078187748775  2.83321195699570  2.94973712771277
 1 -6.67608150325033  2.54975392749275  1.47383550235023
 1 -7.61464417271727  1.29103543194319  1.64258668126813
 1 -8.12888137943794  2.41195336543654  0.45119411661166
 1  1.07581976327633  2.49079168716872  1.77176718431843
 1  0.34237827792779  2.38631671947195  3.11135148964896
 1  1.74452007030703  0.26818320852085 -0.22224445054505
 1  2.13703196179618 -4.76429195239524 -1.48605666786679
 1  0.34647272767277 -4.35284519791979 -1.17767053675368
 1 -7.85734105910591  0.72591522552255 -3.03041395339534
 1  1.08541148124812 -4.27285158945895  1.11862154975497
 1  2.76653769666967 -5.14142062106211  0.71727566596660
 1  3.97572201600160 -4.20222775127513 -2.39448850145014
 1  5.13270539203920 -3.33978285908591 -1.26899182068207
 1  4.54390148644864 -2.31825388098810 -2.66539686198620
 1  5.00037284438444 -0.42011612041204 -1.67795448364836
 1 -9.26042556475648  0.81636253345335 -0.29511019721972
 1 -10.02232039713971  0.36911128952895 -2.12254199589959
 1  3.48510494189419  3.22150471907191  4.00125830803080
 1  6.41651665726573  1.06794100060006 -2.11228873207321
 1  4.55091610181018  5.28316140814081 -2.20984803980398
 1  3.90940894499450  5.49437650755076 -0.53877696089609
 1  5.66810858235824  5.16256271087109 -0.87073882198220
 1  1.01326886538654 -7.96973821632163  1.35583525662566
 1  7.67905918771877  2.84682198849885 -3.06196495869587
 1  6.82550399469947  4.31755932723272 -2.55717860696070

