%nproc=4
%Mem=2GB
# td=(NStates=1) B3LYP/SVP 

TD

0 1
 8 -5.33667902970297  0.31903601860186 -3.34045687848785
 8  2.82765959205921  3.17797352075208  3.31239750415042
 8  3.03400413821382  0.91298630773077  3.58570053125313
 8  1.62091622752275 -7.15649155355536  1.49000941074107
 8  0.57861461086109 -6.96374727872787 -0.35552948414841
 8  1.96006946624662  3.88330129712971 -0.09471120672067
 7 -2.41093169586959 -0.90270527712771  0.49538606570657
 7 -4.45882978687869  0.83798804740474 -1.28342027412741
 7  1.86465619271927 -0.73725570657066 -0.53030446854685
 7  2.63905517591759  1.72849129922992 -0.68408588358836
 6 -4.88795104140414  1.27266744614461 -0.01412095559556
 6 -4.46652125752575  0.32275869356936  1.20199225992599
 6 -3.01556501270127  0.04128901130113  1.28325366546655
 6 -2.00151519581958  0.63316546354635  2.04934573277328
 6 -0.77429131663166  0.06436787828783  1.76712547474747
 6 -1.00942531753175 -0.90344545364536  0.80179688798880
 6 -6.43600969836984  1.33090484638464 -0.18857727152715
 6  0.60665414871487  0.33830175327533  2.48492316111611
 6 -6.69232166386639  1.09385169036904 -1.48232909060906
 6 -0.13539928192819 -2.00929623072307  0.22915009070907
 6  1.10660357155716 -1.88062057465747 -0.35745453865387
 6 -5.44197225532553  0.76282597579758 -2.14125356615662
 6  1.97566343624362 -3.00487406340634 -0.84972028862886
 6 -2.21793853505351  1.68495022702270  3.15319395939594
 6 -7.31461345354535  1.75373090909091  0.93287390129013
 6  3.14820034833483 -2.44984700900090 -1.17871902900290
 6  1.06619339193919  1.75038818101810  2.35271048944895
 6  3.15517205820582 -0.98514795419542 -0.99723335433543
 6  1.55646118401840 -4.40675505510551 -0.89979845374537
 6 -8.07298401930193  0.94710927532753 -2.06166088808881
 6  1.72291398149815 -5.04194043644364  0.56540286678668
 6  4.29281699809981 -3.14970623642364 -1.86203820122012
 6  4.12654159635964 -0.01788012621262 -1.44002419751975
 6  2.43026564196420  1.94854902920292  3.12825273037304
 6  3.79133365926593  1.37181643794379 -1.16541231193119
 6 -9.23187136013601  0.68688653245325 -1.35816457905791
 6  1.27350465886589 -6.43409213871387  0.44973576627663
 6  4.79956402130213  2.46931898689869 -1.50218394489449
 6  4.16272190669067  3.59787394759476 -1.12039161046105
 6  2.76728548454845  3.18107980938094 -0.52304085108511
 6  6.13484148854886  2.22077394879488 -2.02856438523852
 6  4.55803659705971  4.99490100730073 -1.17669034093409
 6  6.86687423882388  3.20708713011301 -2.62795746384638
 1 -4.52297024772477  2.22047709260926  0.31361090309031
 1 -4.87248567766777 -0.55245023612361  0.77264851315132
 1 -4.80780089928993  0.88468269736974  2.06115825032503
 1 -2.82168957935794 -1.54471132863286 -0.02956534783478
 1 -3.41805749904991  0.82883595979598 -1.48545574287429
 1  0.43912049634964 -0.04417444394439  3.57898323052305
 1  1.48930737473747 -0.37197708170817  2.25372369276928
 1 -0.68651914441444 -3.06215417871787  0.07154697309731
 1 -3.28616076807681  1.74404098939894  3.17870403800380
 1 -1.83074793419342  1.38363699119912  4.12460218481848
 1 -1.70963376267627  2.68091672747275  2.84889704370437
 1 -6.81941583668367  2.40248920102010  1.64207232603260
 1 -7.76516922522252  1.02110843924392  1.47023944654465
 1 -8.18583707500750  2.43287545764576  0.48289728692869
 1  1.03191537283728  2.30475308330833  1.45386539413941
 1  0.50775481558156  2.48374646244624  2.97961831633163
 1  1.60944656295630  0.34193058325833 -0.49238146424642
 1  2.27445570417042 -5.01621714491449 -1.59859792199220
 1  0.51265934633463 -4.30852076547655 -1.19213198289829
 1 -8.32446777177718  1.00312294629463 -3.32672358435844
 1  0.96250919101910 -4.54687899219922  1.33954364196420
 1  2.76986802970297 -5.08079455845585  1.01790572897290
 1  4.05301974577458 -4.27624515301530 -2.08984803740374
 1  5.26329845134513 -3.34821370217022 -1.17904282578258
 1  4.74376147244724 -2.72585464106411 -2.82002232453245
 1  5.07767057415742 -0.41455556435644 -1.92201889008901
 1 -9.49649917211721  0.55166606380638 -0.24160484668467
 1 -10.04079224432443  0.71226560496050 -2.06768651035104
 1  3.81459789118912  3.10380294889489  3.82047022922292
 1  6.62916792239224  1.18019222572257 -2.15066256945695
 1  4.50241125132513  5.54496758875888 -2.22457951295129
 1  3.96062406650665  5.87946501640164 -0.61617470067007
 1  5.52680445194519  5.19633608820882 -0.68804055215522
 1  1.35823336183618 -8.13740498299830  1.46638631173117
 1  7.79832111391139  3.01246855315532 -3.18520728292829
 1  6.59979142344234  4.27446501780178 -2.72703559265927

