%nproc=4
%Mem=2GB
# td=(NStates=1) B3LYP/SVP 

TD

0 1
 8 -5.23715907770777  0.27483159815982 -3.33896672947295
 8  2.90186701280128  3.01875759915992  3.11617788218822
 8  3.31882262006201  0.81830683978398  3.00440240144014
 8  1.61376551245125 -7.14931083548355  1.45617602740274
 8  0.12649939933993 -6.83100400440044 -0.22658658985899
 8  1.81821528082808  3.99105207220722 -0.20600233583358
 7 -2.34353495619562 -0.92999800640064  0.52682921002100
 7 -4.28706261016102  0.63466771537154 -1.14558649074908
 7  1.80047977507751 -0.60348232923292 -0.52738417651765
 7  2.55631690209021  1.86680513061306 -0.56571404640464
 6 -4.80154240054005  1.22102228162816  0.00288074457446
 6 -4.41709631503150  0.30189660736074  1.24673673437344
 6 -2.89859331553155 -0.00208532613261  1.41353669376938
 6 -1.97791283558356  0.62328447544754  2.20621141934193
 6 -0.75762965046505 -0.02458101660166  1.89978874107411
 6 -1.00043441844184 -0.82192730183018  0.77657436573657
 6 -6.32567866526653  1.31328308420842 -0.20554896869687
 6  0.57734121742174  0.25249317241724  2.66232090089009
 6 -6.63684611631163  0.93750605580558 -1.45069592729273
 6 -0.22318806080608 -1.87081238233823  0.11193836953695
 6  1.06666957815782 -1.76533904650465 -0.30984977817782
 6 -5.36485454355435  0.52127182038204 -2.18786822762276
 6  1.91417728762876 -2.88911248724872 -0.84265958255826
 6 -2.12398914011401  1.66366809880988  3.25053369336934
 6 -7.24043603580358  1.81537707370737  0.85463607750775
 6  3.09319484778478 -2.42810483478348 -1.13140429752975
 6  1.03744051665167  1.67274041624162  2.52308752715272
 6  3.06996353735374 -0.92533197259726 -0.92448607960796
 6  1.32695823372337 -4.34620900050005 -0.87300577447745
 6 -7.90781750265027  0.73221778617862 -2.14424914691469
 6  1.72170386048605 -4.96870311271127  0.38230455695570
 6  4.30304802120212 -3.01207247304730 -1.72431442884288
 6  4.04300324252425  0.01873353515352 -1.17615781088109
 6  2.60489310471047  1.78186236053605  2.92150205530553
 6  3.83180770667067  1.42354161046105 -0.98567433813381
 6 -9.09065723872387  0.66759460326033 -1.68278704130413
 6  1.01363867226723 -6.34851358085809  0.43776456915692
 6  4.77522158705871  2.50708276327633 -1.38458218471847
 6  4.10975661016102  3.61389554975498 -1.08209778107811
 6  2.73102185818582  3.20779248064806 -0.59519806680668
 6  6.05842384678468  2.27211908330833 -1.94143567236724
 6  4.56119691309131  5.06019753695370 -1.20556322822282
 6  6.80752830423042  3.12684910631063 -2.66120078817882
 1 -4.28124607530753  2.01126617151715  0.55527506950695
 1 -5.02975140424042 -0.76305129622962  1.26454770307031
 1 -4.81572169136914  0.73016724582458  2.13439557405741
 1 -2.76787419781978 -1.20990784828483 -0.42401479277928
 1 -3.44125981928193  0.98600167636764 -1.77317451475148
 1  0.42749933423342  0.02706267976798  3.68381371357136
 1  1.28637708170817 -0.56077596159616  2.24390271067107
 1 -0.72502299479948 -2.72604056735674 -0.04452463406341
 1 -3.21961411341134  1.31781836713671  3.51776794439444
 1 -1.56175103450345  1.47631625912591  4.16263598819882
 1 -2.12044484378438  2.69539817561756  3.00887304130413
 1 -6.90379427452745  2.66799575167517  1.50108822762276
 1 -7.78803151145114  1.11569789818982  1.72608503110311
 1 -8.12111060236024  2.14113628372837  0.19462846004601
 1  1.04948713001300  2.09014162216222  1.63478348594860
 1  0.63907794789479  2.34411249904990  3.35470582508251
 1  1.47451306960696  0.30747713791379 -0.50398262436244
 1  1.81627988658866 -4.69351487468747 -1.78376643884388
 1  0.30354843524352 -4.49216913031303 -1.18105087478748
 1 -7.74907023202320  0.72997563156316 -3.23782469446945
 1  1.31273421352135 -4.54908921322132  1.16371605920592
 1  2.90661170407041 -5.08493497249725  0.43287722612261
 1  4.01706615041504 -3.98975650415041 -2.20700975357536
 1  5.21500362186219 -3.03317219801980 -1.03349827132713
 1  4.62877997429743 -2.46736879247925 -2.65071539383938
 1  5.21885469256926 -0.18657276607661 -1.36925361356136
 1 -9.14589411161116  0.51653255045505 -0.64938562476248
 1 -10.01876004110411  0.65015939433943 -2.37751749344935
 1  3.89580601200120  3.05619818841884  3.27087526972697
 1  6.33863886948695  1.15708991549155 -2.16051355455546
 1  4.56256726692669  5.68108120012001 -2.31253830883088
 1  3.79569757385739  5.64588165806581 -0.55246833003300
 1  5.59839161066107  5.09254570917092 -0.63758550665066
 1  1.05797333583358 -7.84605584808481  1.32887256035604
 1  7.85228651045105  2.97552485878588 -3.05360412261226
 1  6.67166861116112  4.26508407970797 -2.77108999809981

