%nproc=4
%Mem=2GB
# td=(NStates=1) B3LYP/SVP 

TD

0 1
 8 -5.37351271307131  0.09730384538454 -3.32817565036504
 8  2.85754258035804  2.97657338073807  3.40377664206421
 8  3.11939267706771  0.75429043814381  3.37391935313531
 8  1.59804394029403 -7.07858376277628  1.50811122092209
 8  0.48827557695770 -6.87505840984098 -0.45094902610261
 8  1.87799125842584  4.03664663166317 -0.10406214181418
 7 -2.40543114581458 -0.83888889548955  0.57173370047005
 7 -4.43859776367637  0.58393264186419 -1.30903283538354
 7  1.89403913101310 -0.72923490449045 -0.33581501960196
 7  2.68881015141514  1.83548199829983 -0.50091756675668
 6 -4.78521076737674  1.29198937833783 -0.13249279277928
 6 -4.45945055045505  0.44620103780378  1.22204426512651
 6 -3.00186364256426  0.02561744414441  1.41058639873987
 6 -1.91965701000100  0.76697884488449  2.08684948314832
 6 -0.73332722022202  0.07981942344234  1.74738350055005
 6 -0.97922229722972 -0.92636774587459  0.86474318261826
 6 -6.24793089048905  1.46623837973797 -0.21502991679168
 6  0.65920940424042  0.25832375547555  2.56159082788279
 6 -6.72539497119712  0.88235054025403 -1.41037189488949
 6 -0.18686442844284 -1.87166246734673  0.18235541124112
 6  1.09058196939694 -1.89681219381938 -0.33900269346935
 6 -5.46807486558656  0.50114980818082 -2.23043248404840
 6  1.89047491739174 -2.96524010001000 -0.97207252385239
 6 -2.14897163836384  1.78477020902090  3.14241288128813
 6 -7.08772076427643  2.12523805980598  0.83172378627863
 6  3.19854538283828 -2.44767679197920 -1.26382753985399
 6  1.15053182578258  1.67956109830983  2.44441966036604
 6  3.06973351435144 -1.01996143554355 -0.90285391639164
 6  1.44435997389739 -4.36095047464747 -0.92531100500050
 6 -7.96663338423842  0.79924448884888 -2.09727444944494
 6  1.70938262836284 -5.03683992639264  0.39411573807381
 6  4.26950466686669 -3.14074534033403 -1.93409540694069
 6  4.02689163136314  0.00432209400940 -1.20332052715271
 6  2.51932454785479  1.78642281658166  3.08120802590259
 6  3.77618214411441  1.32512176847685 -1.05019078977898
 6 -9.17603577657766  0.59546739053905 -1.48813757635764
 6  1.21724903330333 -6.41694042354235  0.46310710341034
 6  4.72483654855486  2.51490354535454 -1.47346107260726
 6  4.08706434093409  3.70605476567657 -1.14303387468747
 6  2.78495725172517  3.28392009340934 -0.46465501250125
 6  6.02973097749775  2.24665653705371 -2.03151468026803
 6  4.34384517791779  5.09717123432343 -1.39314198609861
 6  6.88609616101610  3.12454887628763 -2.51201586968697
 1 -4.40529848054805  2.27115216011601  0.15901544354435
 1 -5.03021145024502 -0.58107309840984  1.29464071237124
 1 -4.86004612381238  1.07419164826483  2.04496663116312
 1 -3.00288769916992 -1.65721257875788  0.13074068276828
 1 -3.50856654995500  0.58290136633663 -1.53704090139014
 1  0.38949553385339  0.04251422492249  3.47820315251525
 1  1.34665310931093 -0.54303418741874  2.13478179857986
 1 -0.81780227272727 -2.84396235953595 -0.04281446304631
 1 -3.21384353635364  2.30351693699370  3.11508767636764
 1 -1.65671053045304  1.30164879237924  4.20711043564356
 1 -1.67872067136714  2.80044868066807  2.84436659065907
 1 -6.66436033113311  3.20194914701470  1.08476659545955
 1 -7.10837354565457  1.51294762316232  1.70583300590059
 1 -8.15293378467847  2.24000617071707  0.18102709990999
 1  1.07747992929293  1.95783839183918  1.45902591019102
 1  0.44654869496950  2.61431951975197  2.71493184768477
 1  1.48376399469947  0.24004039423942 -0.21837406350635
 1  1.73034129272927 -4.98715423862386 -1.69494755695570
 1  0.29526760716072 -4.29124903830383 -0.89469223892389
 1 -7.81040636563656  0.93676631063106 -3.19907081908191
 1  1.36014895499550 -4.44038834313431  1.43348303590359
 1  2.95537658055806 -5.10492697169717  0.46251018941894
 1  4.26438088188819 -4.24051157965797 -2.09101815441544
 1  5.18119024052405 -3.22908178897890 -1.36512143364337
 1  4.31770886718672 -2.51097315291529 -2.93249357165717
 1  4.81020382748275 -0.37269137793779 -1.64100078827883
 1 -9.27485700790079  0.59567046424642 -0.33965465166517
 1 -10.16603476857686  0.27775215361536 -1.93922366406641
 1  3.87468389978998  3.16418898749875  3.64811299349935
 1  6.20649565516552  1.22760696719672 -2.19304680788079
 1  4.36871788198820  5.30601369336934 -2.51436849184919
 1  3.33501150525052  5.56048311821182 -0.92086516971697
 1  5.23960573207321  5.45831228582858 -0.83900564866487
 1  1.00924846334634 -7.95581682418242  1.32771244434443
 1  7.84005528732873  2.65629293559356 -3.00860962316232
 1  6.90452189648965  4.19154672597260 -2.52244513361336

