%nproc=4
%Mem=2GB
# td=(NStates=1) B3LYP/SVP 

TD

0 1
 8 -5.24237959975998  0.26123023802380 -3.34820765356536
 8  2.99313613971397  3.06254197759776  3.14066033043304
 8  3.23809454725473  0.83761877097710  3.24033599479948
 8  1.53115725162516 -7.18228413281328  1.50611102090209
 8  0.53374012341234 -6.97761866586659 -0.46726065726573
 8  1.87801126042604  4.06445941294129 -0.19617135273527
 7 -2.46215681838184 -1.00634564116412  0.79149567666767
 7 -4.31131503540354  0.71681593019302 -1.23706563866387
 7  1.85862558965897 -0.72630461146115 -0.52582402050205
 7  2.67136840724072  1.86097454755476 -0.49987746274627
 6 -4.80025227152715  1.16996717611761  0.05497595409541
 6 -4.44040864626463  0.30350676837684  1.23204526522652
 6 -2.96812026822682  0.03490837323732  1.43490883098310
 6 -2.02641768606861  0.67493964096410  2.15870666886689
 6 -0.74924881238124  0.09772121362136  1.87589635183518
 6 -0.99119349434943 -0.92334744384438  1.01019772807281
 6 -6.31914801220122  1.38923067896790 -0.25026344014401
 6  0.57071055435544  0.26575449854985  2.53461813061306
 6 -6.61598403010301  0.95180748594859 -1.43778463616362
 6 -0.20925666766677 -1.96696199729973  0.29586676237624
 6  1.07840075127513 -1.79333184578458 -0.38725751895190
 6 -5.42257031513151  0.53097279047905 -2.20829026982698
 6  1.91861773167317 -3.00580415641564 -0.77181249784978
 6 -2.27913465466547  1.82804453645365  3.05663430343034
 6 -7.33564555675568  1.78510404640464  0.81615222912291
 6  3.12494802310231 -2.45843786808681 -1.18378953605361
 6  1.08618539113911  1.68591173337334  2.56650186858686
 6  3.01364790579058 -0.97660710011001 -0.99880351135114
 6  1.47115265316532 -4.30944532413241 -0.82286075997600
 6 -7.94397111801180  0.87071163556356 -2.15085980798080
 6  1.81138282838284 -5.11061730413041  0.41467779427943
 6  4.21302901930193 -3.09867113291329 -1.86166816421642
 6  3.98643758595860  0.01118278007801 -1.27865806090609
 6  2.51833444884488  1.83360753505351  3.02862276737674
 6  3.77327185308531  1.43479273557356 -1.10611638233823
 6 -9.17084525752575  0.85516336013601 -1.65061382398240
 6  1.16669397779778 -6.47720645014502  0.38114890759076
 6  4.75406947184718  2.54628668366837 -1.44056778327833
 6  4.01142677717772  3.67556171637164 -1.04723429472947
 6  2.69973872987299  3.25155685708571 -0.55291383838384
 6  6.11329933433343  2.31200307170717 -1.98449997879788
 6  4.56125691909191  5.01868338553855 -1.22366503840384
 6  6.79133668506851  3.16321274267427 -2.71390605870587
 1 -4.30514846554656  2.21687673257326  0.15469501150115
 1 -5.09350777987799 -0.48976396749675  1.22124337263726
 1 -4.76702682188219  0.72964719381938  2.28979111361136
 1 -2.81154856525653 -1.26192304980498 -0.07224961626163
 1 -3.23779947324732  1.25273835003500 -1.52992018931893
 1  0.30996758105811  0.16968694219422  3.65623095529553
 1  1.40337878187819 -0.20171005500550  2.21874019441944
 1 -0.75157565006501 -3.17378534183418  0.43942376077608
 1 -3.29736188818882  1.80182676797680  3.38806497409741
 1 -1.87591245064506  1.61091971947195  4.11268099269927
 1 -1.92921572087209  2.69882851865187  2.57874002800280
 1 -6.92944683978398  2.39183813591359  1.80017813661366
 1 -8.01383409170917  0.76520284868487  1.14195661826183
 1 -8.16255474677468  2.40574274437444  0.39805880308031
 1  1.30860304160416  2.05343795179518  1.62206221382138
 1  0.48181222132213  2.33731181898190  3.09229958445845
 1  1.59005462376238  0.36470286048605 -0.30045227132713
 1  1.93918217681768 -4.94926044924493 -1.62432049424942
 1  0.56196427682768 -4.59206912031203 -1.16660943064306
 1 -7.76537186218622  0.71743437743774 -3.21538245024502
 1  1.52169510961096 -4.61625592989299  1.36194588218822
 1  2.91557260016002 -5.26361284028403  0.66262020042004
 1  4.11067551135113 -4.11162869136914 -2.14338339093909
 1  5.25387750925093 -3.17685656645665 -1.22508743024302
 1  4.68956605290529 -2.54836689228923 -2.78513883618362
 1  4.82913572067207 -0.25915002380238 -1.79084577277728
 1 -9.27341686388639  1.23712460966097 -0.60487117331733
 1 -10.01341950705071  0.71648602700270 -2.22387212891289
 1  3.98325475687569  3.04771734033403  3.24826300850085
 1  6.27552255785579  1.28485269176918 -1.66904440764076
 1  4.24598560876088  5.55177826982698 -2.16272332733273
 1  4.10927893199320  5.53848091799180 -0.32583566676668
 1  5.73578535003500  4.91946840144014 -1.13454520262026
 1  0.86098363686369 -7.86845808830883  1.35590526362636
 1  7.80630191199120  2.74200150645064 -3.00126888908891
 1  6.52309375367537  4.24981255255526 -3.04021691079108

