%nproc=4
%Mem=2GB
# td=(NStates=1) B3LYP/SVP 

TD

0 1
 8 -5.54810017181718  0.35148926392639 -3.43818665146515
 8  2.86684351045104  3.14829055245525  3.33865012941294
 8  3.20977171497150  0.96795180428043  3.10279224042404
 8  1.37338147404740 -7.22161806620662  1.67889829962996
 8  0.88269501890189 -7.08689959395940 -0.64268820002000
 8  1.98883234253425  3.96747971497150 -0.04216595219522
 7 -2.40518112081208 -0.89950495709571  0.54518104520452
 7 -4.59312321622162  0.70051430003000 -1.28933086518652
 7  1.99335906300630 -0.75569755075508 -0.31857329542954
 7  2.75217648804881  1.79242769286929 -0.45417289228923
 6 -4.96792903920392  1.22013219261926 -0.01268081158116
 6 -4.55378998439844  0.20828724642464  1.23878593929393
 6 -2.96456991319132  0.09007388978898  1.27956329642964
 6 -1.99659470377038  0.70032217921792  2.08179897809781
 6 -0.74721860936094  0.15219666116612  1.71309007120712
 6 -0.93891826682668 -0.83143825292529  0.76451315961596
 6 -6.46473257065707  1.31755351125113 -0.20906932073207
 6  0.54563804710471  0.37789571267127  2.44630929972997
 6 -6.77144957665767  0.88633093829383 -1.40067092479248
 6 -0.18846458845885 -1.87842314341434  0.15445262096210
 6  1.20754366556656 -1.83423593619362 -0.25367416061606
 6 -5.59710776887689  0.69256895009501 -2.25642508330833
 6  1.92271814171417 -2.93274685068507 -0.84403972057206
 6 -2.33976071727173  1.80574230623062  3.11854049404941
 6 -7.35578757095710  1.74573010901090  0.99621023492349
 6  3.14704023232323 -2.50560258455846 -1.18116927402740
 6  1.14650142274227  1.81853499569957  2.39433465186519
 6  3.21871841284128 -1.04414385378538 -0.89489312031203
 6  1.46229176707671 -4.36556093569357 -0.80712918681868
 6 -8.11833855475548  0.85963052745275 -1.98495321732173
 6  1.71850354045405 -5.13484972737274  0.50120644714471
 6  4.32669038543854 -3.08445971177118 -1.98930092749275
 6  4.15435437763776 -0.01775011321132 -1.22630282538254
 6  2.51376399179918  1.93435761006101  3.06717662276228
 6  3.83717824372437  1.31826108240824 -1.01164693539354
 6 -9.37779595259526  0.92720056385639 -1.52675143774377
 6  1.27690499889989 -6.56261499099910  0.42820361306131
 6  4.84947901280128  2.44009606460646 -1.42147587408741
 6  4.19285491999200  3.59263342354235 -1.11966153745375
 6  2.86589534553455  3.16582828422842 -0.46454500150015
 6  6.14410241464146  2.27038891029103 -2.07760928972897
 6  4.49191998539854  5.07812933013301 -1.25332800470047
 6  7.00875842724272  3.15551197259726 -2.61509617771777
 1 -4.61615956665667  2.26296134103410  0.25103464546455
 1 -5.14156258535854 -0.71943693479348  1.29075032333233
 1 -5.10103022222222  0.42620684978498  2.22053418791879
 1 -2.89964737513751 -1.79347620512051  0.15664327302730
 1 -3.51668736203620  0.82201527772777 -1.69484668196820
 1  0.43140972527253  0.36785675917592  3.50004533673367
 1  1.43695213921392 -0.37055693969397  2.07529584998500
 1 -0.57277777027703 -2.83184114741474  0.08812863126313
 1 -3.37647979998000  2.11229781508151  3.20708687628763
 1 -1.76375123452345  1.41878050555055  4.04597432203220
 1 -1.83064586388639  2.81733036883688  2.91025317931793
 1 -6.73907780288029  2.36366531863186  1.68884700350035
 1 -7.71291399969997  0.90502683108311  1.53229565216522
 1 -8.27168565986599  2.28605077517752  0.61558055525553
 1  1.18917109840984  2.27264987298730  1.24626463406341
 1  0.57086112621262  2.50691877967797  2.83394374887489
 1  1.78071368966897  0.19360575077508 -0.11085331143114
 1  2.07164542314231 -4.94075959915992 -1.65837389958996
 1  0.22858093849385 -4.31398131153115 -0.69526229592959
 1 -8.20731605660566  0.65963859785979 -3.03410432243224
 1  1.27596053615362 -4.56319062336234  1.19581926952695
 1  2.72210325322532 -5.16954343334333  0.83629756815682
 1  4.18898334213421 -4.24508203670367 -2.04549360196020
 1  5.30726284778478 -2.82015089588959 -1.53457837933793
 1  4.28308540484048 -2.64943699929993 -3.03125344764476
 1  5.24388719581958 -0.45141925072507 -1.61436812501250
 1 -9.70787030923092  1.14997589478948 -0.48865955215522
 1 -10.20865903100310  1.14542892129213 -2.12665240694069
 1  3.82525895729573  2.98655122372237  3.68166634883488
 1  6.36305131073107  1.18860306680668 -2.19782728592859
 1  4.52321333153315  5.36430952295230 -2.35721277627763
 1  3.86369437353735  5.81221829172917 -0.82082516571657
 1  5.65400717221722  5.14529098369837 -0.85263701180118
 1  1.23789132763276 -8.20443168566857  1.51842151525153
 1  8.00059134093409  2.93540084638464 -2.84201296349635
 1  6.73277472177218  4.32868043934393 -2.68382127122712

