%nproc=4
%Mem=2GB
# td=(NStates=1) B3LYP/SVP 

TD

0 1
 8 -5.24422978477848  0.28609272427243 -3.34742757555756
 8  3.00786761286129  2.99882560596060  3.18965522992299
 8  3.12803354115412  0.80603561266127  3.19684164536454
 8  1.41473560946095 -7.22647855225522  1.43028343814381
 8  0.25643239263926 -6.69193009700970 -0.49633356455646
 8  1.88808226752675  4.04186715371537 -0.26236797239724
 7 -2.33443404610461 -1.00133514011401  0.61975850295029
 7 -4.35326923082308  0.64886913551355 -1.21846377847785
 7  1.96974670177018 -0.67613959495950 -0.32256369446945
 7  2.66242751315132  1.91572002210221 -0.50126760176018
 6 -4.85298754505451  1.15140531993199  0.07655811231123
 6 -4.53599820522052  0.05096151385138  1.15973803450345
 6 -2.99284274047405 -0.08347346494649  1.34135947604760
 6 -2.08490353465347  0.56196834383438  2.22411320952095
 6 -0.74013790129013 -0.00049860836084  1.89238800100010
 6 -0.90135451045105 -0.97121223032303  0.93454016231623
 6 -6.37378347574758  1.35538729462946 -0.16547496129613
 6  0.50398388168817  0.37999592269227  2.66294096289629
 6 -6.61338377007701  0.96615892109211 -1.45340619831983
 6 -0.17671341334133 -1.98369367046705  0.26721389708971
 6  1.17248015921592 -1.79274178677868 -0.20344913811381
 6 -5.32649070717072  0.65243493669367 -2.16935637643764
 6  1.97392326222622 -2.88478205420542 -0.75675099169917
 6 -2.35813255445545  1.71243297529753  3.18258689868987
 6 -7.23202519471947  1.87901343734373  0.91633224712471
 6  3.17666319461946 -2.42000402470247 -1.07817897499750
 6  1.05564233683368  1.77183032523252  2.57968318671867
 6  3.14534107510751 -0.91943138253825 -0.91353498449845
 6  1.43126866476648 -4.41620600020002 -0.93596207010701
 6 -7.87831455235524  1.00348491289129 -2.24097881988199
 6  1.89241093119312 -5.06536277867787  0.37929425592559
 6  4.35962367876788 -3.13051431723172 -1.60194219161916
 6  4.07055599779978  0.00220188198820 -1.25091528662866
 6  2.48023063846385  1.78613278757876  3.03535344044404
 6  3.76594112001200  1.42072132843284 -1.00451622232223
 6 -9.11931010401040  0.85769361316132 -1.60279904250425
 6  1.12458976737674 -6.42265099459946  0.39086987968797
 6  4.72173623852385  2.50129218421842 -1.38957268376838
 6  4.02047768226823  3.62280644084408 -1.25553512481248
 6  2.71817057305731  3.23515521692169 -0.56177472447245
 6  6.03123112751275  2.29872174357436 -2.02435396419642
 6  4.43274406780678  5.16878839603960 -1.56816948884888
 6  6.82813036443644  3.15341176257626 -2.80959562766277
 1 -4.51233918461846  2.06232127702770  0.29592913491349
 1 -4.91270970007001 -0.94651964306431  0.85526677497750
 1 -4.76369648884889  0.50792502160216  2.26255839033903
 1 -2.75964337473747 -1.49744660216022 -0.19204159545955
 1 -3.37037273057306  0.55786886308631 -1.41880907820782
 1  0.31772835713571  0.01204117761776  3.68428376057606
 1  1.47561600560056 -0.14421430543054  2.34731305170517
 1 -0.46299679217922 -3.00905886918692 -0.12525270687069
 1 -3.38079023102310  1.81697828312831  3.50929709730973
 1 -1.86796165556556  1.44476310381038  4.15374509910991
 1 -2.05744854415442  2.71033966976698  2.83048520252025
 1 -6.63786768186819  2.42230118221822  1.74184230303030
 1 -7.55892860116012  0.88290461886189  1.49229165176518
 1 -8.05883437473747  2.30508267836784  0.47664666186619
 1  1.11952413371337  2.31071367936794  1.57749775737574
 1  0.16319035913591  2.41039912771277  3.10302065656566
 1  1.38227384568457  0.25569195939594 -0.31990421652165
 1  2.10305856445645 -4.82034755795580 -1.69794785698570
 1  0.31405948634864 -4.36763667706771 -1.22457522722272
 1 -7.73781910691069  1.12324495849585 -3.33543445544554
 1  1.62992593269327 -4.64448875317532  1.27230691829183
 1  2.91438248114811 -5.36968344734473  0.50433437183718
 1  4.38911335513551 -4.20151768026803 -1.51588064066407
 1  5.27746986848685 -2.90434931573157 -1.00614553605361
 1  4.58462555885589 -3.15869792539254 -2.77708803110311
 1  5.14496730383038 -0.14816892569257 -1.68210489868987
 1 -9.12609213141314  0.88365926312631 -0.56169685588559
 1 -10.17893605870587  0.96143052145215 -2.16025576727673
 1  3.83851028242824  2.92355492409241  3.48021620382038
 1  6.57397240284028  1.35233944044404 -2.12290979417942
 1  4.18269928012801  5.26782987498750 -2.60138719371937
 1  3.76654465856586  5.96663373327333 -0.76205928912891
 1  5.62143391489149  5.28358481308131 -1.45434718281828
 1  1.06404394289429 -8.18074931743174  1.15147482058206
 1  7.70773205500550  2.96308361466147 -3.31376013821382
 1  6.75918736303630  4.20780835213521 -3.16606949604961

