%nproc=4
%Mem=2GB
# td=(NStates=1) B3LYP/SVP 

TD

0 1
 8 -5.37372273407341  0.18236235123512 -3.38115094789479
 8  2.90602742884288  2.99623534693469  3.42847911231123
 8  3.28777951575158  0.76145115421542  3.09154111531153
 8  1.52298643454345 -7.16062196659666  1.47542795259526
 8  0.38047479687969 -7.00232113611361 -0.38302223342334
 8  1.82507596689669  3.97370033703370 -0.08577031263126
 7 -2.30853145584558 -0.82508751535154  0.69037556465647
 7 -4.37678158205821  0.73237748634864 -1.31488342044204
 7  1.90263999109911 -0.70678265926593 -0.41134257235724
 7  2.71996326672667  1.79006745684568 -0.51791926692669
 6 -4.85435768206821  1.35322550195020  0.05854631113111
 6 -4.48410301570157  0.38289470717072  1.24525658635864
 6 -2.99288274447445  0.04561944434443  1.38800414051405
 6 -2.04044908920892  0.71414356135614  2.18504930313031
 6 -0.74203809130913  0.08384982648265  1.85717447964796
 6 -0.96687106210621 -0.87373248234823  0.82744945324532
 6 -6.31008710611061  1.48231998789879 -0.18004641844184
 6  0.54358784208421  0.34758268136814  2.61869653845385
 6 -6.62646507820782  0.94381668686869 -1.50413127082708
 6 -0.22728847084709 -1.88853415451545  0.19237641334133
 6  1.04762767396740 -1.86932944554455 -0.38091688488849
 6 -5.43387144524452  0.50381007420742 -2.22692213301330
 6  1.92482835273527 -3.00262383838384 -0.83522883948395
 6 -2.28119486068607  1.70946267826783  3.28405704570457
 6 -7.14297628982898  2.05206074207421  0.88708932283228
 6  3.13564909320932 -2.42707473177318 -1.25658681578158
 6  1.15649242184218  1.78044118631863  2.44952017041704
 6  3.13230977197720 -0.95206464586459 -0.96743037403740
 6  1.56908244614461 -4.35668004760476 -0.96807528142814
 6 -7.91357807870787  0.69124368876888 -2.22545726772677
 6  1.62633432353235 -5.03504974737474  0.46898322482248
 6  4.29983770017002 -3.16769803560356 -1.76200819821982
 6  4.08258720092009 -0.02162050025003 -1.23439363446345
 6  2.51280389578958  1.76255042934293  3.08417832293229
 6  3.81851637753775  1.39208846514651 -1.08422419311931
 6 -9.09005717871787  0.53070091389139 -1.61358012061206
 6  1.08392570097010 -6.45778450795080  0.42818361106111
 6  4.77768183308331  2.48777083208321 -1.54518824532453
 6  4.07404303880388  3.68107226742674 -1.19327889918992
 6  2.73494225022502  3.19020072147215 -0.48559710671067
 6  6.08202620702070  2.28075994739474 -2.07360888968897
 6  4.34179497289729  5.09022053925393 -1.23989666156616
 6  6.77791534293429  3.25041146254625 -2.69151381948195
 1 -4.23038098879888  2.27747279217922  0.16614615661566
 1 -5.06552498159816 -0.55550054115412  1.09180042834283
 1 -4.98588870807081  0.83798802790279  2.10485261976198
 1 -2.86909431983198 -1.41578843634363 -0.12760515181518
 1 -3.31476717001700  1.03773684988499 -1.55273247054705
 1  0.43114969926993  0.21522149564957  3.60355568776878
 1  1.61900034403440 -0.37713759775978  2.38720704110411
 1 -0.78857935043504 -2.77222518581858  0.15339515791579
 1 -3.44101625362536  1.80459704500450  3.41806797439744
 1 -1.88196305570557  1.39147777527753  4.26263598819882
 1 -1.81958475777578  2.67665630143014  2.90916307030703
 1 -6.44323821892189  2.86399535163516  1.49665778457846
 1 -7.41236394469447  1.14740106850685  1.56216863946395
 1 -8.05818430973097  2.59892206230623  0.55116411361136
 1  1.42797497879788  2.01017362536254  1.36506651425143
 1  0.63095713581358  2.76872496029603  2.74152450695069
 1  1.76770238853885  0.26406279647965 -0.12392461856186
 1  2.22268052665267 -4.91228675187519 -1.76421448364836
 1  0.59128720912091 -4.59275918931893 -1.44584735443544
 1 -7.86341166616662  0.43084571857186 -3.26209712171217
 1  1.37678061816182 -4.24070837513751  1.25863555115512
 1  2.66807785068507 -5.16058253725373  0.67870180858086
 1  3.98645308910891 -4.20126765526553 -1.94120317291729
 1  5.00951307280728 -3.14485336613661 -1.03967888938894
 1  4.74419151545155 -2.82441449704971 -2.79890021232123
 1  4.97717052415241 -0.35385949474948 -1.87349403760376
 1 -9.12546206840684  0.76136703390339 -0.56273695989599
 1 -10.06033419851985  0.26822120052005 -2.14024376607661
 1  3.79557598899890  2.77100966956696  3.86338452065206
 1  6.52503750935093  1.21365557205721 -1.91572907610761
 1  4.47619863006301  5.55311840384038 -2.36056311131113
 1  3.33292129622962  5.45687275717572 -0.84500758395840
 1  5.25350712221222  5.35481193579358 -0.69681142924292
 1  1.36358389688969 -7.97760900340034  1.26188586168617
 1  7.85758704050405  3.05465277157716 -2.93186194839484
 1  6.46023746804681  4.40417798909891 -2.95454834393439

