%nproc=4
%Mem=2GB
# td=(NStates=1) B3LYP/SVP 

TD

0 1
 8 -5.41173653545354  0.06090020502050 -3.37735056785679
 8  3.02824965106511  3.08068379177918  3.29341560596060
 8  3.19525026282628  0.82708771787179  3.56857881908191
 8  1.74751888778878 -7.31092699709971  1.26556696649665
 8  0.26843359275928 -6.93063396739674 -0.38678260946095
 8  1.94571803110311  3.93114608160816  0.09932819721972
 7 -2.37913851655165 -0.89977498409841  0.62354888198820
 7 -4.33636754065407  0.60364461306131 -1.29224115621562
 7  1.83815354245425 -0.59679166016602 -0.19447088518852
 7  2.70578184858486  1.81898034813481 -0.40327780278028
 6 -4.72506475277528  1.24879505890589 -0.07059660316032
 6 -4.41531613701370  0.38782520022002  1.17080914161416
 6 -2.95098855505551  0.12432731513151  1.32174751485149
 6 -2.05149019331933  0.76378852585259  2.11170196839684
 6 -0.74695858335834  0.11804324582458  1.82939170137014
 6 -1.06602097709771 -0.90181529062906  0.85849255755576
 6 -6.26607270467047  1.40823257915792 -0.27598601240124
 6  0.52105558885889  0.26411433453345  2.64321899069907
 6 -6.60638307000700  0.97838014321432 -1.47979883758376
 6 -0.12442818481848 -1.94721002210221  0.30614779047905
 6  1.10713362456246 -1.80594310691069 -0.28547734093409
 6 -5.37386544464446  0.41978167136714 -2.18616805760576
 6  1.86894276417642 -2.94122769876988 -0.84827014361436
 6 -2.17422416361636  1.83332506450645  3.10450909090909
 6 -7.15265725792579  1.81705724172417  0.80013062696270
 6  3.11626715501550 -2.39951197549755 -1.18780993809381
 6  1.17987476007601  1.73659680188019  2.66499171757176
 6  3.03906044704470 -0.88031747114711 -0.88176180718072
 6  1.43821935983598 -4.35599997959796 -0.80979945384538
 6 -7.90098681958196  0.82952751715172 -2.15527024902490
 6  1.67619931003100 -5.11349759215922  0.45402172867287
 6  4.23486120252025 -3.02891415721572 -1.96576857425743
 6  4.03333227542754 -0.00506884508451 -1.22154234933493
 6  2.53555617101710  1.84039821412141  3.11422132723272
 6  3.71064559045905  1.43388264456446 -1.01984775547555
 6 -9.15203337633763  0.78108595239524 -1.63639240184018
 6  1.15906321472147 -6.50996972647265  0.36054684738474
 6  4.58722278717872  2.48915097009701 -1.61264499099910
 6  4.02609824432443  3.67371153135314 -1.29505907720772
 6  2.71904066006601  3.24598630003000 -0.50353890089009
 6  5.93220122452245  2.23710558195820 -2.31124265306531
 6  4.44411520492049  5.11508302550255 -1.37835050695070
 6  6.88425597699770  3.15262168356836 -2.71733640174017
 1 -4.27170512121212  2.36664170907091 -0.05273573157316
 1 -4.98533696279628 -0.56879187028703  1.31127237553755
 1 -4.86906702590259  0.92808703780378  2.15481761626163
 1 -2.70036744714471 -1.39067592509251 -0.15462785408541
 1 -3.38778447174717  1.00795387158716 -1.72458965626563
 1  0.35915249954995 -0.31065109160916  3.62484781698170
 1  1.37193563756376 -0.50366025002500  1.99532785318532
 1 -0.68259875237524 -2.83080104340434  0.10577039543954
 1 -3.36411856385639  2.26634321962196  3.31983815141514
 1 -1.64585944534453  1.77038566606661  4.05044476907691
 1 -1.66981978127813  2.89753838963896  2.79054120812081
 1 -6.53291718681868  2.68283723582358  1.38397651645165
 1 -7.41026373467347  1.00408673707371  1.55611803440344
 1 -8.21565005630563  2.02161433153315  0.40512951015102
 1  1.02669485078508  2.47498010601060  1.69228923652365
 1  0.46021006110611  2.22565065286529  3.36636699119912
 1  1.75573119141914  0.38771516171617 -0.22023424952495
 1  1.95089334793479 -5.05151067426743 -1.75611367356736
 1  0.32331041144114 -4.46014592799280 -1.00751352105211
 1 -7.68722404740474  0.65951858585859 -3.18137904990499
 1  1.28543148324832 -4.57223152745275  1.28650833843384
 1  2.79872091499150 -5.00431691069107  0.73373731213121
 1  4.05869031283128 -4.13373090159016 -2.19465851845185
 1  5.03677579907991 -2.99280816161616 -1.20851577307731
 1  4.54020111641164 -2.48533058865887 -2.80716103840384
 1  4.91645445254525 -0.42623673247325 -1.77498418661866
 1 -9.34399392159216  0.85046594379438 -0.74164485068507
 1 -9.97823598869887  0.62666704510451 -2.17819756145615
 1  3.74263069446945  2.93918648724873  3.80631881408141
 1  6.27913291889189  1.09487369386939 -2.61786929012901
 1  4.34907591779178  5.34997808980898 -2.41356841184118
 1  3.77729573367337  5.65705277517752 -0.75137822102210
 1  5.38584035553555  5.15119157375738 -0.87462921102110
 1  0.96274381288129 -8.07191843434343  1.21824149724973
 1  7.72524380618062  2.52686999329933 -3.21497025922592
 1  6.73444488878888  4.32089966126613 -2.72019490859086

