%nproc=4
%Mem=2GB
# td=(NStates=1) B3LYP/SVP 

TD

0 1
 8 -5.48286364816482  0.12282639763976 -3.43454628742874
 8  2.70859768586859  3.15807153055305  3.51480774517452
 8  3.35009574737474  0.99975498459846  3.18086004720472
 8  1.18594273017302 -7.14829073347335  1.51419182898290
 8  0.61939868926893 -6.94883578757876 -0.72369630083008
 8  2.15567902720272  4.09456242324232 -0.09576131173117
 7 -2.35318592129213 -0.81652665926593  0.62768929602960
 7 -4.52116602050205  0.49564381298130 -1.37074900700070
 7  1.80624035113511 -0.58020000100010 -0.38770020812081
 7  2.80962223262326  1.88835728582858 -0.42112958795880
 6 -4.86963921022102  1.21435161456146 -0.15797534103410
 6 -4.36475108050805  0.51399781748175  1.21357341804180
 6 -2.95964942114211  0.19865474787479  1.41980732083208
 6 -1.96346139043904  0.68634078107811  2.15302610081008
 6 -0.66370025752575  0.12468390989099  1.77730649284928
 6 -1.03222759775978 -0.91332644174417  0.86310301860186
 6 -6.40427652505251  1.16780853675368 -0.19966838063806
 6  0.58094157745775  0.29254717781778  2.56248091689169
 6 -6.79349178087809  0.80150245544554 -1.45398625632563
 6 -0.17858360036004 -1.88978427952795  0.23992116781678
 6  1.08159107030703 -1.84943745634563 -0.32583137633763
 6 -5.60126818491849  0.30450014321432 -2.17620706150615
 6  1.78839470937094 -2.83721729772977 -0.86865218181818
 6 -2.11576831803180  1.79424115611561  3.10868950895090
 6 -7.11916390859086  1.76886242224222  0.90701131503150
 6  3.03734926322632 -2.29139116341634 -1.18405956305631
 6  1.06117288988899  1.75943908610861  2.55375059345935
 6  3.06499304030403 -0.91857129652965 -0.95914954595460
 6  1.31272681058106 -4.33659803940394 -0.88287676157616
 6 -8.14696141704171  0.63318788318832 -2.02873759575958
 6  1.69115080518052 -5.05851209360936  0.40152647914791
 6  4.26359407580758 -3.05677694349435 -1.73222521992199
 6  4.05139408160816 -0.01449978817882 -1.25987618271827
 6  2.48903151855186  1.87822199649965  3.13800370547055
 6  3.86812133803380  1.36238549484949 -1.07629340004000
 6 -9.30640881388139  0.58539638343834 -1.46171493409341
 6  1.17108441684168 -6.50329905940594  0.26550734343434
 6  4.91431549644965  2.50218227322732 -1.51580530703070
 6  4.33650928542854  3.61970613081308 -1.08835840714071
 6  2.93085184118412  3.31387308870887 -0.54197274427443
 6  6.09387739213921  2.13077494889489 -2.16224775357536
 6  4.70032082548255  5.04174569176918 -1.33410608250825
 6  7.04963251465147  3.09304572597260 -2.55491015911591
 1 -4.53116106680668  2.33040808570857 -0.06608706670667
 1 -5.15049347844784 -0.48671366246625  1.45462671097110
 1 -4.82717283648365  1.28272250135013  1.94157629212921
 1 -3.01080849124912 -1.67956481398140  0.15288289698970
 1 -3.67255294859486  0.19351242744274 -1.68544574187419
 1  0.50080666496650  0.03267324082408  3.66588192039204
 1  1.37891633563356 -0.29931981598160  2.32055037543754
 1 -0.54933542604260 -2.86636459975998  0.21555137353735
 1 -3.22149430143014  2.02606919221922  3.48251441904190
 1 -1.53073793319332  1.73460208770877  4.07197692229223
 1 -1.73213601290129  2.79307794359436  2.72423457745775
 1 -6.67970186528653  2.63651260336034  1.37809592839284
 1 -7.62498520682068  1.18978530693069  1.67091951455146
 1 -7.97155564686469  2.31338350845084  0.61648064526453
 1  0.98916109740974  2.43197580558056  1.49770977857786
 1  0.43975801590159  2.49416750455045  3.19343969846985
 1  1.56280189848985  0.39722611281128 -0.20327255335534
 1  1.85937419601960 -4.82703822702270 -1.74279234143414
 1  0.33843192359236 -4.53437335073507 -1.14853762346235
 1 -7.93926925192519  0.34045667966797 -2.94275518751875
 1  1.37192013211321 -4.71433573787379  1.41534122172217
 1  2.81877292019202 -5.09881636063606  0.48704264266427
 1  3.79966441024102 -4.05865339383938 -2.32563161576158
 1  5.16434855635564 -3.14514339513951 -0.93762868436844
 1  4.88564566086609 -2.39318137373737 -2.52846316861686
 1  5.01522432953295 -0.43119722852285 -1.68461514971497
 1 -9.57357687988799  0.63579447664766 -0.36879756595660
 1 -10.05879404450445  0.72466684508451 -2.31385112681268
 1  3.62936936833683  3.17551011961196  3.72138032023202
 1  6.16378138373837  0.84749895639564 -2.54105160836084
 1  4.64416542674268  5.33838693069307 -2.19750680568057
 1  4.09799780388039  5.68696576647665 -0.76540962416242
 1  5.76007777927793  5.14816127072707 -0.94566631473147
 1  0.71986952545255 -7.97433867636764  1.42475214831483
 1  7.88003928572857  2.81564887118712 -2.98208697089709
 1  6.80674211851185  4.31251882318232 -2.37844073317332

