%nproc=4
%Mem=2GB
# td=(NStates=1) B3LYP/SVP 

TD

0 1
 8 -5.36969233103310  0.28398251325133 -3.41829466226623
 8  2.84917174327433  3.03329905330533  3.32027829222922
 8  3.12226296409641  0.78493350245024  3.29107106830683
 8  1.39419355525553 -7.12312821722172  1.63577398719872
 8  0.80622737213721 -7.05025592959296 -0.62771670287029
 8  2.12033549284928  4.03639660666067 -0.01374310991099
 7 -2.42945354805481 -0.92141714831483  0.67661418851885
 7 -4.39802370627063  0.61182543114311 -1.39184111621162
 7  1.93311303840384 -0.66033801480148 -0.28328976707671
 7  2.74636590699070  1.85972442254225 -0.56761423642364
 6 -4.78290053635364  1.16016619601960  0.03503395989599
 6 -4.52987759315932  0.28358477617762  1.14288634933493
 6 -3.09532298849885  0.00225510791079  1.37833317341734
 6 -2.06119116341634  0.69764191119112  2.14331512971297
 6 -0.77155104260426  0.16580802230223  1.75125388758876
 6 -1.13116749174918 -0.94523963306331  0.75593230153015
 6 -6.27183328072807  1.38310006590659 -0.22390080388039
 6  0.50453393669367  0.31270919401940  2.51746641544154
 6 -6.67241967366737  0.95352765796580 -1.36745760346035
 6 -0.22564830683068 -1.81894719581958  0.23634080978098
 6  1.08190110131013 -1.76321883448345 -0.22530132333233
 6 -5.41390944904490  0.62200189338934 -2.19212865366537
 6  1.90532640254025 -2.85945952195219 -0.63960927752775
 6 -2.20254699589959  1.79787151915192  3.10747938793879
 6 -7.17996998919892  1.79575511151115  0.91454206810681
 6  3.14134966326633 -2.34655667996800 -1.07909906700670
 6  1.06648342094209  1.73095623782378  2.43840905930593
 6  3.10547708870887 -0.93381282068207 -0.80465409640964
 6  1.42902844074407 -4.27000137973797 -0.82413088698870
 6 -8.00688740964096  0.95212977737774 -2.14154887688769
 6  1.74409609970997 -5.08959520192019  0.41405773227323
 6  4.22484020042004 -3.11272253805381 -1.92518451585159
 6  4.03406234843484 -0.01965030323032 -1.21041123622362
 6  2.42832544794479  1.74513868816882  3.05052495759576
 6  3.82878740464046  1.40934019031903 -1.16998276897690
 6 -9.16473464646465  0.67920576437644 -1.45490425302530
 6  1.25122243064306 -6.52418114761476  0.42917371007101
 6  4.76271033593359  2.48435049004900 -1.66582030853085
 6  4.11523715821582  3.65708986918692 -1.17945751705171
 6  2.88314707070707  3.24145584698470 -0.47337588458846
 6  6.03783178757876  2.18188005940594 -2.16051758055806
 6  4.59263005640564  4.99881139833983 -1.22885555745575
 6  6.77392494389439  3.17519394079408 -2.77434210231023
 1 -4.08888683938394  2.04756980188019  0.18058760076008
 1 -5.15882431153115 -0.73654864596460  1.10285153345335
 1 -4.97823794299430  0.59094332343234  2.11900403490349
 1 -2.80403781418142 -1.65360221772177  0.20111772047205
 1 -3.35895158845885  0.71539461566157 -1.67386458375838
 1  0.47641422572257  0.15194516801680  3.55718105030503
 1  1.24612305630563 -0.43974385838584  2.16713503390339
 1 -0.75253574607461 -2.83960192349235  0.14737455585559
 1 -3.31067321932193  2.10115670097010  3.39936610421042
 1 -1.64183904330433  1.58641726922692  4.18241796639664
 1 -1.67559035833583  2.59676831263126  2.92962511651165
 1 -6.75838973407341  2.79959891199120  1.42217033583358
 1 -7.32214492279228  0.98134446284628  1.69839226182618
 1 -8.03705219651965  2.19775194529453  0.54149314651465
 1  1.17631981328133  1.71088369636964  1.09750975857586
 1  0.42474651475148  2.58805689348935  2.70786114061406
 1  1.83048866716672  0.35214160436044 -0.04226645274528
 1  1.85791405000500 -4.81759728292829 -1.63391145334533
 1  0.40877895829583 -4.34449436283628 -1.19815258495850
 1 -7.92785811081108  1.18604123812381 -3.19042995499550
 1  1.06077901800180 -4.60589489378938  1.24388407600760
 1  2.92730377327733 -5.23182966196620  0.60982492089209
 1  3.86388083188319 -4.17445497399740 -1.85909496209621
 1  5.18844096559656 -2.94197307810781 -1.47105202670267
 1  4.11063816011601 -2.84034609020902 -3.07849817211721
 1  4.82494530163016 -0.22274638343834 -1.64919160736074
 1 -9.10863038523853  0.36888778597860 -0.42763344954495
 1 -10.17778594369437  0.67195157355736 -2.02739248094809
 1  3.73667009840984  3.18617118571857  3.69486766896690
 1  6.49815482108211  1.05604981148115 -2.17615511871187
 1  4.64218522872287  5.53262635463546 -2.20120717571757
 1  3.90853885798580  5.75615268516852 -0.62914599779978
 1  5.56373814531453  4.82220867546755 -0.53131487958796
 1  1.13440097859786 -8.08503974647465  1.30361003410341
 1  7.70303158495850  3.01773908020802 -3.28618738093809
 1  6.28944038833883  4.16833440474047 -3.06017890699070

