%nproc=4
%Mem=2GB
# td=(NStates=1) B3LYP/SVP 

TD

0 1
 8 -5.32909827162716  0.38478259325933 -3.39398223102310
 8  2.70429725582558  3.02118784218422  3.47128339273927
 8  3.24345508330833  0.77118212731273  3.15487744894489
 8  1.70896503240324 -7.21512741714171  1.65097550735074
 8  0.27203395279528 -7.03759466346635 -0.14865879707971
 8  2.03611707100710  4.06337930493049 -0.00091182678268
 7 -2.38700930363036 -1.04210921752175  0.55741226832683
 7 -4.41582548644864  0.53932818141814 -1.19133106520652
 7  1.88521824892489 -0.74153613461346 -0.37273871197120
 7  2.55961723212321  1.92033048314831 -0.63662113711371
 6 -4.85831807810781  1.14663484288429  0.07648810531053
 6 -4.45844044944494  0.23957037473747  1.18481054175418
 6 -2.93136659285929 -0.02954807240724  1.35941128122812
 6 -2.03731877617762  0.56342848984898  2.13431422962296
 6 -0.71151503900390  0.06714815631563  1.77553631583158
 6 -1.00567494249425 -0.92403751285129  0.74520122842284
 6 -6.38386448384839  1.31147290319032 -0.17271568536854
 6  0.51371485478548  0.17321524462446  2.54922959175918
 6 -6.68445087678768  0.87460976617662 -1.42754361206121
 6 -0.18863460546055 -1.89462476357636  0.27500467616762
 6  1.10624353555356 -1.79643215581558 -0.37841663486349
 6 -5.41824988308831  0.62243193639364 -2.21823126392639
 6  1.96659252915292 -2.94492806880688 -0.79755507210721
 6 -2.16600334153415  1.72794452645265  3.17708634863486
 6 -7.28807079927993  1.98836437243724  0.81089170307031
 6  3.14380990929093 -2.40207223152315 -1.20712186928693
 6  1.06926369896990  1.66675981818182  2.51049626802680
 6  3.05805234623462 -0.93258269766977 -1.04054768576858
 6  1.51384692259226 -4.41787616721672 -0.87814628852885
 6 -7.97583430433043  0.99846441084108 -2.13194791679168
 6  1.83643533363336 -5.07438368076808  0.44955128162816
 6  4.31753947034703 -2.99641090689069 -1.83132512991299
 6  3.91579052125213  0.02086374817482 -1.38444863996400
 6  2.50871348674868  1.75490966526653  3.11019092419242
 6  3.76662118801880  1.45136439273927 -1.27240301100110
 6 -9.24932310531053  1.03121096489649 -1.66612537513751
 6  1.21930923932393 -6.53511224072407  0.53999479217922
 6  4.69277334223422  2.50439249424943 -1.62615634213421
 6  4.19367500200020  3.65315947614761 -1.17601717301730
 6  2.84512326832683  3.25916761816182 -0.47201574857486
 6  6.06761476587659  2.32694456585659 -2.17087861666167
 6  4.57303809720972  5.10107162436244 -1.16029870177018
 6  6.91686923832383  3.26778319971997 -2.65980064816482
 1 -4.31787973867387  2.17280232513251  0.36784632663266
 1 -5.05124355345535 -0.80287527862786  1.23914516281628
 1 -4.80988110731073  0.50229445854585  2.17552968746875
 1 -2.71661907230723 -1.35970282778278 -0.24519691099110
 1 -3.44673036633663  0.49798287448745 -1.72786998429843
 1  0.50250683498350 -0.02461248774877  3.71544687688769
 1  1.16496494049405 -0.40472035603560  2.10788910931093
 1 -0.83663415591559 -2.92868083138314  0.19254907330733
 1 -3.26503865586559  1.69354593989399  3.67149331693169
 1 -1.50979583898390  1.94150277777778  3.87986771137114
 1 -2.06384918421842  2.64894353015302  2.62243439743974
 1 -6.54008790389039  2.57557650975098  1.51328944774477
 1 -7.75236794509451  1.34190051845185  1.51140356295630
 1 -7.97018550985098  2.68150032013201  0.39227822502250
 1  0.84790697199720  1.90766337433743  1.38651865946595
 1  0.50558459855986  2.39268735653565  3.01391174567457
 1  1.64004962326233  0.26760315051505 -0.32697492359236
 1  2.03062132073207 -4.94293981718172 -1.71762982518252
 1  0.48680676107611 -4.74164407780778 -1.10876364606461
 1 -7.75453077807781  0.78307094109411 -3.21722263426343
 1  1.45772871297130 -4.38408271257126  1.19430911851185
 1  2.92029307220722 -5.18545502450245  0.58284222262226
 1  4.42837728152815 -4.01586911541154 -1.76197525012501
 1  5.31221334283428 -2.41356023682368 -1.50990591209121
 1  4.20247734403440 -2.86112816841684 -3.02526284858486
 1  4.73163597069707 -0.29433354215422 -2.03128981718172
 1 -9.53107262946295  0.79541043824382 -0.53605429162916
 1 -10.27150531563156  1.14728910731073 -2.34433417511751
 1  3.58281471287129  2.97735030363036  3.85586376857686
 1  6.33805881148115  1.37179138563856 -2.26846434963496
 1  4.49018002820282  5.60282337433743 -2.14212126712671
 1  3.94876288038804  5.58755582548255 -0.45848893209321
 1  5.55404717621762  5.24899135373537 -0.87167891599160
 1  1.28063560206021 -8.05564680718072  1.62665233833383
 1  7.92476375817582  2.95552285858586 -3.43861262346235
 1  6.54642608690869  4.31955952725272 -2.48185107420742

