%nproc=4
%Mem=2GB
# td=(NStates=1) B3LYP/SVP 

TD

0 1
 8 -5.22216757855786  0.16331044604460 -3.32565539833983
 8  3.00596742284228  3.04240996439644  3.14639090349035
 8  3.19526026382638  0.81969697879788  3.24449641084108
 8  1.64975911181118 -7.15741164556456  1.40521093089309
 8  0.30427717711771 -6.94311521552155 -0.27773170437044
 8  1.99130258955896  4.00115308230823 -0.03779551515152
 7 -2.45738634133413 -0.91816682328233  0.65737226432643
 7 -4.43186709060906  0.63837808640864 -1.25804773687369
 7  1.91345107220722 -0.67516949794979 -0.27702914101410
 7  2.77103837423742  1.89719816991699 -0.55905338033803
 6 -4.87454970127013  1.15007518691869  0.01784224072407
 6 -4.42630723612361  0.32692911061106  1.31044310501050
 6 -2.97663111931193  0.08425330773077  1.38778411851185
 6 -1.97095213951395  0.78877102410241  2.12388318651865
 6 -0.78927281478148  0.04773621512151  1.86168493069307
 6 -1.10881525652565 -0.93807891699170  0.88636534483448
 6 -6.32290838823882  1.17260901680168 -0.24088250205021
 6  0.58004148744874  0.35670359345935  2.60455512431243
 6 -6.72172460416042  0.73290559575958 -1.47173803150315
 6 -0.30359610161016 -1.94206950805081  0.19075625132513
 6  1.03644655585559 -1.78447095969597 -0.33289208240824
 6 -5.44211226932693  0.46994668786879 -2.18466790759076
 6  1.81441731163116 -2.86156973297330 -0.80081539813981
 6 -2.26941368256826  1.78982071407141  3.16603524352435
 6 -7.21295328752875  1.90632616861686  0.78489910381038
 6  3.08947447574758 -2.34078610291029 -1.18764992209221
 6  1.09297607020702  1.70253339553955  2.61953717211721
 6  3.09371591259126 -0.81177061646165 -0.89517314831483
 6  1.46669220712071 -4.34848922852285 -0.96236471037104
 6 -7.93547026792679  0.87537210161016 -2.15494021602160
 6  1.69448113821382 -5.06975321772177  0.35340166666667
 6  4.18092580898090 -3.00386165196520 -1.84899689708971
 6  4.07476641884188  0.03075473727373 -1.36282647774777
 6  2.46532914831483  1.72376655095510  3.07312721782178
 6  3.80477500340034  1.45029428572857 -1.16162193289329
 6 -9.23567174017402  0.70113795759576 -1.56778554115412
 6  1.09869717811781 -6.46266499599960  0.36614740744074
 6  4.79744380928093  2.46643869886989 -1.56817054355436
 6  4.20575621012101  3.61131529172917 -1.12956252755276
 6  2.82350110611061  3.20912261366137 -0.51933048004800
 6  6.13318132253225  2.20196206760676 -2.09433096189619
 6  4.49998079147915  5.13319483668367 -1.13916658855886
 6  6.95494304570457  3.13722014341434 -2.69547421552155
 1 -4.62422037273727  2.18329337423742  0.11263080508051
 1 -4.73013144224423 -0.64940993209321  1.11125237353735
 1 -4.78412853205321  0.78269249834984  2.15027716221622
 1 -3.08090550095010 -1.56499335683568 -0.06971936323632
 1 -3.40179587288729  0.60976405260526 -1.61138833613361
 1  0.37251383568357 -0.06681670817082  3.65980131233123
 1  1.50754919891989 -0.24610449444944  2.08306662706271
 1 -0.71705219771977 -2.88742670597060 -0.00021020262026
 1 -3.36077822982298  2.07691427672767  3.16115228282828
 1 -1.85522038143814  1.44794342184218  4.11676140074007
 1 -1.90217301660166  2.75457409320932  2.91501365536554
 1 -6.80944483958396  2.67377632973297  1.34376249504950
 1 -7.39255196349635  1.11781811021102  1.62612503510351
 1 -8.27667615891589  2.37115928602860  0.28470746794679
 1  1.12697487878788  2.23735634363436  1.59842985058506
 1  0.52624666476648  2.44131221902190  3.17519787428743
 1  1.64819043734373  0.30061645184518 -0.00622284838484
 1  2.00138839743974 -4.99473499669967 -1.67138520072007
 1  0.39934801520152 -4.26356627002700 -1.34118688838884
 1 -7.99680500550055  1.15573820782078 -3.20034094609461
 1  1.28695163526353 -4.37027133143314  1.23887357495750
 1  2.57817886078608 -4.80061654065407  0.79883382178218
 1  4.00581502530253 -4.13434096259626 -1.84891394399440
 1  4.99862198369837 -2.79353823462346 -1.16670159165917
 1  4.31023812011201 -2.75855791139114 -2.96150647294730
 1  5.02720552765277 -0.12374648344834 -1.73837052525253
 1 -9.42631215341534  0.60442133933393 -0.53270395659566
 1 -9.80604876997700  0.91267564596460 -2.36404614631463
 1  3.90765719711971  2.75841841044104  3.26925510771077
 1  6.47625263086309  1.17960216671667 -2.02244974817482
 1  4.59995100530053  5.56876996899690 -2.25968302330233
 1  3.81338934303430  5.53626069596960 -0.61415449864986
 1  5.55652742424242  5.09013546814681 -0.66425817391739
 1  1.25961349984998 -7.89373061556156  1.54497417051705
 1  7.89177045884589  2.77467477377738 -3.07489625182518
 1  6.74371581588159  4.25893346464647 -2.52925581468147

