%nproc=4
%Mem=2GB
# td=(NStates=1) B3LYP/SVP 

TD

0 1
 8 -5.27768313011301  0.23780789578958 -3.24155698849885
 8  2.74441126722672  3.31394711811181  3.17120338473847
 8  3.31454219201920  1.12137714681468  3.43124508570857
 8  1.43836797269727 -7.31008691309131  1.35668607840784
 8  0.19627637703770 -6.85771667566757 -0.44426835803580
 8  1.87695115441544  4.07133010001000 -0.22040377597760
 7 -2.35610621332133 -0.89665467206721  0.56379290639064
 7 -4.29230313421342  0.82090633923392 -1.25277720982098
 7  1.91844157125713 -0.77506948794879 -0.43138457655766
 7  2.66660793119312  1.95505395549555 -0.69130660566057
 6 -4.91434368066807  1.31027120652065  0.01369182568257
 6 -4.43198780418042  0.34527094479448  1.18240030073007
 6 -2.91613506970697  0.06690157255726  1.26125146524652
 6 -1.97052209650965  0.68962110911091  2.06856765496550
 6 -0.72726661416142  0.11983342484248  1.76763552575258
 6 -0.95150952595260 -0.88235334443444  0.82651936023602
 6 -6.44423052045205  1.20746250215021 -0.12309072287229
 6  0.62981646494649  0.24996291939194  2.43394806360636
 6 -6.70403283498350  0.88433073827383 -1.37618847654765
 6 -0.14521026302630 -1.94069937103710  0.20489766546655
 6  1.12315522672267 -1.86830934353435 -0.26513530673067
 6 -5.35885394349435  0.54332402560256 -2.03190263106311
 6  1.90312618251825 -3.00672424842484 -0.81698701530153
 6 -2.13571031223122  1.70188192019202  3.18898753875388
 6 -7.23238523072307  1.73964950095010  1.00714132803280
 6  3.16957248554855 -2.47112913721372 -1.20155131223122
 6  1.08282505510551  1.70590373257326  2.50537575597560
 6  3.13531007200720 -0.97699713911391 -0.95411904290429
 6  1.44233977187719 -4.41548592819282 -0.93427190109011
 6 -7.95483220412041  0.71396596099610 -2.09791451345135
 6  1.67695938603860 -5.20134637703770  0.30497682418242
 6  4.40535825222522 -3.21165243104310 -1.67694969236924
 6  4.02253119531953  0.04052571437144 -1.21646184128413
 6  2.44703731913191  1.97019119341934  3.08653855895590
 6  3.73053757965797  1.44307356365637 -1.10843661436144
 6 -9.16674484748475  0.64297214101410 -1.60866962956296
 6  1.01649895829583 -6.54272300180018  0.31169196189619
 6  4.72195626052605  2.43766582158216 -1.51951567806781
 6  4.13585922042204  3.68199235943594 -1.23591316261626
 6  2.74942369836984  3.30884258565857 -0.64547309430943
 6  6.06896490089009  2.21095296669667 -1.92896442524252
 6  4.54015480888089  5.08639015621562 -1.16866953885389
 6  6.93031058245825  3.06808322972297 -2.44531920002000
 1 -4.49607755845585  2.19364440934093  0.35655519751975
 1 -5.04998342744274 -0.55226021712171  1.18217946624662
 1 -4.62689280848085  0.86473070217022  2.10247238173817
 1 -2.72875028542854 -1.51819867736774 -0.20128251955196
 1 -3.29638533183318  1.09804288048805 -1.49733693099310
 1  0.57186377067707  0.03442341584158  3.52899823202320
 1  1.35044348834884 -0.38815869986999  1.99075739613961
 1 -0.44609510201020 -2.85163312661266  0.13020283868387
 1 -3.14260641264126  1.46030261556156  3.77826399399940
 1 -1.08700355975598  1.53844247174717  3.85465519011901
 1 -2.20786358565857  2.73110174597460  2.76700885488549
 1 -6.78516241134113  2.44022297439744  1.72844096289629
 1 -7.65652836113611  0.78636496489649  1.56899932253225
 1 -8.09965845714571  2.33058522862286  0.47785678287829
 1  1.10431261256126  2.21294390239024  1.52953296089609
 1  0.32380642074207  2.31285937373737  3.00326068056806
 1  1.71315693399340  0.20050644084408 -0.06108833493349
 1  1.90177843644364 -5.03251877507751 -1.73599166136614
 1  0.41597967836784 -4.57956787018702 -1.10592336203620
 1 -7.65468079307931  0.62779541354135 -3.18128904090409
 1  1.24963790389039 -4.47079138343834  1.23660334793479
 1  2.67965900880088 -5.24341082008201  0.42434637303730
 1  4.29864430823082 -4.37891542004200 -1.49088814141414
 1  5.40429255075508 -2.72294117491749 -1.08668358985899
 1  4.58207530383038 -3.06289834543454 -2.86318664096410
 1  4.93767657475748 -0.28756286508651 -1.79634632283228
 1 -9.57837735993599  0.77238813601360 -0.56901758795880
 1 -9.94472263736374  0.70648502690269 -2.30492023372337
 1  3.66185261666167  3.32798536713671  3.64511269346935
 1  6.49340434603460  1.18486269276928 -1.66284378757876
 1  4.71070208040804  5.53236632863286 -1.98216527152715
 1  3.82220022412241  5.78971604150415 -0.74436751995200
 1  5.45820759225923  5.49119557415742 -0.89628137623762
 1  0.81988952745275 -8.04080532303230  1.29416909000900
 1  7.92109339113911  2.80124743104310 -2.88911767396740
 1  6.57777922222222  3.97519509080908 -2.51753464256426

