%nproc=4
%Mem=2GB
# td=(NStates=1) B3LYP/SVP 

TD

0 1
 8 -5.35198055985598  0.32621673667367 -3.28658149094909
 8  2.89165599169917  3.02053777717772  3.26666293069307
 8  3.19376011381138  0.84579958905891  3.21280324152415
 8  1.47764190009001 -7.21118702310231  1.56525693549355
 8  0.47305405480548 -6.95055595959596 -0.46160009120912
 8  2.08290174947495  4.04441740874087 -0.10871260686069
 7 -2.35592619531953 -0.80085509210921  0.54369089618962
 7 -4.43963786768677  0.71442569116912 -1.19278121022102
 7  1.91392111921192 -0.73604558555856 -0.33524496259626
 7  2.75884715511551  1.84335278537854 -0.44902237723772
 6 -4.96593884018402  1.26549672907291  0.01794225072507
 6 -4.58450305570557  0.34465088278828  1.21053311401140
 6 -2.98980243644364  0.09288417081708  1.30084542464246
 6 -2.00893593789379  0.71766391339134  2.08518931713171
 6 -0.79609349684969  0.12261370287029  1.82283104530453
 6 -0.96540091509151 -0.82025713481348  0.77807451575158
 6 -6.43891998939894  1.29793154905491 -0.15531394519452
 6  0.56396988028803  0.30230815391539  2.53218788758876
 6 -6.70938337003700  0.95247755295530 -1.44388524622462
 6 -0.15354109610961 -1.90218551965197  0.17415459115912
 6  1.12245515671567 -1.76696920952095 -0.17965675887589
 6 -5.39083714181418  0.63747344054405 -2.17023646444644
 6  1.94165003490349 -2.87181075707571 -0.74743005960596
 6 -2.41345808700870  1.76083781578158  3.07873651365137
 6 -7.33891588378838  1.62690822682268  0.89909052295230
 6  3.14985051335134 -2.34833685798580 -1.06466762386239
 6  1.09292606520652  1.71449459165917  2.48344356275628
 6  3.11805834683468 -0.99117855725573 -0.91867549854986
 6  1.55634117201720 -4.35337971757176 -0.83659213311331
 6 -7.97397411831183  0.77382194659466 -2.11899662166217
 6  1.74034572467247 -5.15255149754976  0.40865719221922
 6  4.34018173457346 -3.15133639943994 -1.86204820222022
 6  4.04980392259226 -0.02299063726373 -1.24753494859486
 6  2.51688430383038  1.74071824612461  2.97786769186919
 6  3.83293781968197  1.40826008230823 -0.98601437213721
 6 -9.21168934193419  0.75665350915092 -1.59998876147615
 6  1.12876018441844 -6.52294102360236  0.39294008670867
 6  4.73305737063706  2.54013606860686 -1.51992571907191
 6  4.14027966246625  3.69484364456446 -1.04822439373937
 6  2.89154791079108  3.23887558895890 -0.50242878987899
 6  5.99973797819782  2.25034690609061 -2.22769429822982
 6  4.60320111351135  5.08584010121012 -1.22873554545455
 6  6.82919047044704  3.10935735713571 -2.85584025212521
 1 -4.47159511021102  2.23763880878088  0.51798134013401
 1 -4.90783921302130 -0.72278726982698  1.10128137643764
 1 -4.97006712591259  0.56411064016402  2.13216535103510
 1 -2.67439484988499 -1.26321317881788 -0.27310970227023
 1 -3.40824651795180  0.90214329052905 -1.48381557885789
 1  0.48846543084308 -0.03609363586359  3.55855118731873
 1  1.28597704170417 -0.48683856785679  2.10598891929193
 1 -0.69791028352835 -2.78921688498850  0.00420023842384
 1 -3.56484863686369  1.65360194549455  3.20269643724372
 1 -1.95233009240924  1.48066669416942  4.00962068666867
 1 -1.83887668696870  2.70089872567257  2.55812796679668
 1 -6.96050994609461  2.56772572467247  1.62896101490149
 1 -7.69518222652265  0.67554388278828  1.49430185278528
 1 -8.31856034733473  1.80828299839984  0.71785078227823
 1  1.03622580388039  2.26982959095910  1.38366837443744
 1  0.62763680378038  2.41485957375738  3.27142749724972
 1  1.72746836513651  0.21031742194219 -0.20824305040504
 1  2.09142740134013 -4.78248377157716 -1.48007606980698
 1  0.46212429282928 -4.31758167156716 -1.39971274097410
 1 -7.86822214721472  0.52255488948895 -3.23699461146115
 1  1.52423536363636 -4.63674797909791  1.37393708130813
 1  2.81173221612161 -5.08566504550455  0.56676061446145
 1  3.92610705450545 -4.22074960346035 -2.05368442104210
 1  5.26775889738974 -3.06705558635864 -1.23871879337934
 1  4.69718681498150 -2.62660471607161 -2.76772709500950
 1  5.02178498559856 -0.41845595439544 -1.72934962316232
 1 -9.44568409060906  1.08736963416342 -0.63726441264126
 1 -10.01352951805181  0.69165354375438 -2.41763150485048
 1  3.78605503690369  2.82210477907791  3.60117830003000
 1  6.30386539213921  1.23502770927093 -2.05936343954395
 1  4.40617162736274  5.60142323432343 -2.24058111311131
 1  4.06512451655165  5.78679574947495 -0.56627971117112
 1  5.71813358485849  5.07850430503050 -0.98630037813781
 1  1.10192773127313 -8.06683792629263  1.47366703980398
 1  7.80667194899490  2.84119142544254 -3.17154591679168
 1  6.47316876117612  4.16876444774477 -3.14247713681368

