%nproc=4
%Mem=2GB
# td=(NStates=1) B3LYP/SVP 

TD

0 1
 8 -5.35549091089109  0.15588970397040 -3.27793062586259
 8  2.97361418751875  3.05583130653065  3.07549381378138
 8  3.28849958775878  0.77731274037404  3.54626658785879
 8  1.64155829172917 -7.15560146454645  1.53851426122612
 8  0.32839958935894 -6.91760266426643 -0.22369630083008
 8  2.03371683098310  4.01666463346335 -0.00481221682168
 7 -2.37732833553355 -0.95968097469747  0.64378090519052
 7 -4.44462836673667  0.51031528012801 -1.23248518061806
 7  1.78338806590659 -0.63472545354535 -0.42782422052205
 7  2.73453472387239  1.78005645574557 -0.60386786178618
 6 -4.89695194149415  1.10195037443744 -0.01378092159216
 6 -4.42366697209721  0.20583700140014  1.14625668636864
 6 -3.04066752295230  0.06949183158316  1.34574991509151
 6 -1.99662470677068  0.63266541354135  2.09088988718872
 6 -0.81364525202520  0.10643208470847  1.73242200440044
 6 -1.02524689968997 -0.83298840794079  0.83451015931593
 6 -6.35583168056806  1.34564632053205 -0.14015242904290
 6  0.50002348564857  0.38640656375638  2.47112178097810
 6 -6.67895032673267  0.90551285648565 -1.44533539123912
 6 -0.27863360536054 -1.84208951005101  0.09252642834283
 6  1.02450536173617 -1.79189170177018 -0.31046984018402
 6 -5.47007506560656  0.44131382458246 -2.14075351615161
 6  1.90001587148715 -2.96107968396840 -0.84694001060106
 6 -2.12261900310031  1.87714944694469  3.11523016301630
 6 -7.15024701690169  1.89463499949995  0.83619423332333
 6  3.10369589788979 -2.46447847214721 -1.29913107020702
 6  1.05616238883888  1.75883902610261  2.53461868026803
 6  2.99932647364736 -0.93495293469347 -1.06577020802080
 6  1.51381691959196 -4.33648802840284 -0.87172564646465
 6 -7.88978569946995  0.92280684508451 -2.12267698969897
 6  1.79724141424142 -5.11615785818582  0.37064339083908
 6  4.28546626302630 -3.05739700550055 -1.95613761116112
 6  3.94978392059206  0.01548321012101 -1.31563175827583
 6  2.52708532393239  1.66159033333333  3.01828173327333
 6  3.82917744364436  1.34500375667567 -1.13295906660666
 6 -9.19438761176118  0.80227807160716 -1.57542630523052
 6  1.16157346574657 -6.51378010751075  0.46519731243124
 6  4.76009007390739  2.57254930993099 -1.43454718121812
 6  4.08843447794779  3.66931109130913 -1.09111868316832
 6  2.71981073707371  3.20394209560956 -0.55048359535954
 6  6.06057406180618  2.34119599099910 -2.19050057885789
 6  4.46911770517052  5.01390290749075 -1.23613628552855
 6  7.08985653705370  3.31952837423742 -2.33078774687469
 1 -4.63280123082308  1.98047309220922  0.25397493949395
 1 -5.08728715781578 -0.68890388148815  0.92766401470147
 1 -4.71951207040704  0.80901513061306  2.04369650415042
 1 -3.01126853725373 -1.29765662316232 -0.34356674797480
 1 -3.54611030433043  0.31152422862286 -1.53931112841284
 1  0.16848343264326  0.11890186368637  3.60027535973597
 1  1.22931137513751 -0.42937282128213  2.27066538693869
 1 -0.79724021652165 -2.92409037233723 -0.13137331893189
 1 -3.11045319731973  2.02361894719472  3.55444161176118
 1 -1.52740760016002  1.75616424392439  3.98631835643564
 1 -1.77740053935394  2.84453308910891  2.69420157415742
 1 -6.54157805290529  2.40998995109511  1.70420853965397
 1 -7.63241594989499  1.19001532993299  1.66389881248125
 1 -7.97881637293729  2.55484765486549  0.40652965016502
 1  1.12852503380338  2.08583119111911  1.49120912851285
 1  0.58880292039204  2.45525361316132  3.03620397489749
 1  1.54997061536154  0.24880127032703 -0.28982120822082
 1  1.69237749634964 -5.05124064726473 -1.77206526872687
 1  0.30175825622562 -4.28596851025103 -1.09739250895090
 1 -7.86200152515252  1.14118675267527 -3.27826873887389
 1  1.26324926502650 -4.61100540484049  1.20359004660466
 1  2.82105314821482 -4.95206168516852  0.75344928332833
 1  4.24111855565557 -4.25899342784278 -1.92668172077208
 1  5.10040216171617 -2.82845172597260 -1.12754767626763
 1  4.47621471777178 -2.59415147074707 -2.87566788908891
 1  4.91534434153415 -0.44676878567857 -1.83486017421742
 1 -9.41119064126413  0.65452634983498 -0.51100178637864
 1 -10.01572973807381  0.83379775817582 -2.33102284398440
 1  3.92438887028703  3.05989855845585  3.68000618281828
 1  6.21836684228423  1.37268147464746 -2.50009751295129
 1  5.19300031023102  5.31852494449445 -2.21758881388139
 1  3.68984698879888  5.77785485538554 -1.05358844204420
 1  5.20694246574657  5.24272072667267 -0.48508025612561
 1  1.00480801930193 -7.89786102860286  1.63448312141214
 1  7.90344162596260  3.01199850615061 -3.15619438163816
 1  7.25274671897190  4.46461403270327 -1.76926981608161

