%nproc=4
%Mem=2GB
# td=(NStates=1) B3LYP/SVP 

TD

0 1
 8 -5.43495885768577  0.09272338733873 -3.33374620742074
 8  2.90131695779578  3.15207093049305  3.33301956635664
 8  3.11768250605061  0.93433844294429  3.43465542674267
 8  1.69607374327433 -7.17318322272227  1.47828823862386
 8  0.60822757215722 -7.02887379137914 -0.47823175437544
 8  1.99476293559356  4.06017898489849 -0.15355709130913
 7 -2.46797740044004 -0.88243324992499  0.58367489458946
 7 -4.48031193509351  0.72684693329333 -1.20761269336934
 7  1.85942566966697 -0.69047102810281 -0.34828626672667
 7  2.72409367976798  1.90183863396340 -0.55303277827783
 6 -4.82255450175017  1.29213939333933 -0.05362490599060
 6 -4.47429203460346  0.39784620232023  1.22501456215622
 6 -3.01790524672467  0.13777866026603  1.25576091619162
 6 -1.97366241054105  0.72133428042804  2.08860965916592
 6 -0.77230111761176  0.12124356585659  1.74297305950595
 6 -1.07999237423742 -0.89059416851685  0.75164187248725
 6 -6.34367046444645  1.38480023592359 -0.19509792359236
 6  0.52848633193319  0.24984290739074  2.52312698149815
 6 -6.69900233193319  0.81198350355035 -1.36852771047105
 6 -0.24397013901390 -1.78764406550655  0.05262243794379
 6  1.07558046924692 -1.77623013561356 -0.34818361156116
 6 -5.44492255035504  0.46083577677768 -2.15071451225123
 6  1.87886375627563 -2.89945352135214 -0.89450476707671
 6 -2.33834057525753  1.69394112611261  3.06508514851485
 6 -7.26359835203520  1.98304384038404  0.91112172607261
 6  3.12870839913991 -2.40480250455045 -1.17180833793379
 6  0.97968474107411  1.74746788898890  2.52111733013301
 6  3.04904144514451 -0.99564900430043 -0.85689932093209
 6  1.29767530543054 -4.31164554415442 -0.89506798069807
 6 -8.07849457035704  0.66028059245925 -1.99018374037404
 6  1.71656334643464 -5.09396563896390  0.39177550405041
 6  4.30287800420042 -3.06235750155016 -1.95130712811281
 6  4.10930987318732 -0.09823816201620 -1.25294548964896
 6  2.49793240864086  1.83497767206721  3.09946985208521
 6  3.87165169106911  1.44006326262626 -1.04600037073707
 6 -9.35125329832983  0.76375421922192 -1.45699446204620
 6  1.24783209160916 -6.50176890639064  0.40800159285929
 6  4.87658172307231  2.42384443944394 -1.37422114861486
 6  4.19387502200220  3.58669282948295 -1.10025959725973
 6  2.84308306430643  3.31088278967897 -0.53589213621362
 6  6.08645665006501  2.22480435183518 -2.13738526732673
 6  4.74568536193619  4.98502001920192 -1.29349202110211
 6  7.06944449584959  3.12162858425843 -2.56264093219322
 1 -4.36008395909591  2.18113315821582  0.32441198319832
 1 -5.04157258635864 -0.52617760886089  1.09995124342434
 1 -4.74972509170917  0.81070529962996  2.22982511701170
 1 -2.89214662506251 -1.19235609310931 -0.47080947224722
 1 -3.41618731203120  0.69189226542654 -1.39939713701370
 1  0.34094067836784 -0.05489551605160  3.54649998219822
 1  1.37890633463346 -0.38768865286529  1.98027634803480
 1 -0.56686717921792 -2.87589555285529  0.06220603900390
 1 -3.35175732773277  1.64341092639264  3.37875404300430
 1 -1.83344820422042  1.77596622412241  4.03248297289729
 1 -2.17464026332633  2.71375001080108  2.39225137913791
 1 -6.75445934103410  2.87312626472647  1.40428854765477
 1 -7.84256696499650  1.29386571497150  1.46128855145515
 1 -8.16798528982898  2.45652782288229  0.36460545774577
 1  0.94290647194719  1.98223083108311  1.53176318391839
 1  0.35069911001100  2.27957604540454  3.11915226972697
 1  1.73670928922892  0.38515490569057 -0.08575080118012
 1  1.59873813241324 -4.93625914911491 -1.98992705490549
 1  0.19306738713871 -4.51791170457046 -0.88521129082908
 1 -7.92612793779378  0.11305393939394 -3.02781369336934
 1  1.61418435853585 -4.58279258355836  1.37660734833483
 1  2.78119916281628 -5.15708218721872  0.53534747314731
 1  3.96208065186519 -4.03619114761476 -2.42006105870587
 1  5.15645776727673 -3.28907778857886 -1.23574849634963
 1  4.49705680198020 -2.44681673727373 -2.81842216451645
 1  5.07032984008401 -0.61768587738774 -1.65429211741174
 1 -9.66941646384639  1.11760265746575 -0.53806449264926
 1 -10.00794895999600  0.48908328672867 -2.20245998769877
 1  3.68509494089409  2.92702527112711  3.61172935513551
 1  6.28244324992499  1.26945115161516 -2.25339284248425
 1  4.75806681688169  5.20677376937694 -2.36277333233323
 1  3.94913291739174  5.70667773767377 -0.86907999119912
 1  5.86647841934193  5.16638309290929 -0.96089783788379
 1  1.59590712921292 -8.26576781928193  1.26806647974797
 1  7.69085036683668  2.57461476777678 -3.22045080728073
 1  6.93883532783278  4.12464003530353 -2.32117500660066

