%nproc=4
%Mem=2GB
# td=(NStates=1) B3LYP/SVP 

TD

0 1
 8 -5.22027738953895  0.19055317031703 -3.41980481328133
 8  2.83097992409241  3.18868459185919  3.10763702810281
 8  3.21184192199220  0.92298730783078  3.52017397859786
 8  1.43922805870587 -7.20035593999400  1.36729713951395
 8  0.31269801920192 -6.86623752775278 -0.61203513471347
 8  1.83500695999600  4.04048701570157 -0.27966970257026
 7 -2.32561316401640 -0.97578258485849  0.62093862096210
 7 -4.29816372027203  0.64417866646665 -1.30271220332033
 7  1.98163789088909 -0.66099808080808 -0.22270370847085
 7  2.58668993939394  1.88208665876588 -0.63222069706971
 6 -4.84231647794779  1.14728490789079 -0.01203074657466
 6 -4.38062266766677  0.28946536423642  1.23957601830183
 6 -2.99042249844985 -0.03268838643864  1.46707204730473
 6 -1.98792383668367  0.62565471247125  2.19354015221522
 6 -0.65352924042404  0.05302674417442  1.88859762196220
 6 -0.96702107710771 -0.94331944104410  0.84235094339434
 6 -6.29125522292229  1.31124288018802 -0.19716813061306
 6  0.62304578787879  0.26910483358336  2.59014368316832
 6 -6.55658809050905  0.93846615181518 -1.45140599829983
 6 -0.14338008000800 -1.90757605870587  0.21014819051905
 6  1.09396230743074 -1.78539105170517 -0.22031082428243
 6 -5.38204626272627  0.46704639783978 -2.22247168796880
 6  1.93360923082308 -2.95632920892089 -0.81459677627763
 6 -2.37317405860586  1.55046677867787  3.29742838283828
 6 -7.13171516371637  1.88080361636164  0.79538015191519
 6  3.17243277157716 -2.37212923722372 -1.09172032913291
 6  1.12658943154315  1.72588573077308  2.48544376277628
 6  3.16380292129213 -1.00067950735074 -0.76982061306131
 6  1.46397193509351 -4.31477585718572 -0.86733520742074
 6 -7.88617533843384  0.81799636403640 -2.07615233723372
 6  1.67476916701670 -5.10003624602460  0.38870519701970
 6  4.33717143354335 -3.13047431323132 -1.67577957535754
 6  4.17174611681168  0.00166182798280 -1.19485968106811
 6  2.57783039843984  1.89181335563556  3.07876778187819
 6  3.76953147904790  1.38358761506151 -1.12095786648665
 6 -9.16710488348835  1.05889373317332 -1.49477824042404
 6  1.01904921332133 -6.47615634513451  0.35661645434543
 6  4.67602166706671  2.47858991399140 -1.42629635613561
 6  4.04465009950995  3.62204636483648 -1.21267083838384
 6  2.65190394639464  3.19405110651065 -0.65902444944494
 6  5.99533753815381  2.31480335173517 -2.01681321012101
 6  4.43153394679468  5.02169368656866 -1.31786445834583
 6  6.65728327972797  3.17146356775678 -2.82808747684768
 1 -4.44547249794980  2.29028407330733  0.16724626662666
 1 -4.98836726582658 -0.54334932603260  1.55004625292529
 1 -4.70055017421742  0.96361059015902  2.07796993149315
 1 -2.80207761816182 -1.54234109160916  0.04534214291429
 1 -3.35135082838284  0.75362843904390 -1.76973417071707
 1  0.30152673697370  0.05790576407641  3.51268660086009
 1  1.35141358535854 -0.39415929992999  2.28006632703270
 1 -0.57299779227923 -2.92999096239624 -0.18407858945895
 1 -3.33019517151715  1.67093367866787  3.82831899949995
 1 -1.69453431283128  1.31127975547555  4.24829455405541
 1 -2.24637743704370  2.32240087588759  3.05719787378738
 1 -6.68449234433443  2.70093904600460  1.48968708750875
 1 -7.56903961226123  1.04460078847885  1.31775419801980
 1 -8.01099959125913  2.61242341244124  0.26139513671367
 1  1.16458864016402  2.16794940294029  1.36413642124212
 1  0.45064910501050  2.21761984978498  3.08838919341934
 1  1.62865848414841  0.37197358755876 -0.24311653775378
 1  2.05465372397240 -4.80487601080108 -1.80374843704370
 1  0.44796287668767 -4.20709062246225 -1.10680345004500
 1 -7.87004232923292  0.69729236323632 -3.17668858085809
 1  1.00746368646865 -4.45503980828083  1.16299598719872
 1  2.53934497739774 -5.00935741474147  0.74837877627763
 1  4.19892433623362 -4.10162769126913 -1.88109716231623
 1  5.41068318981898 -3.11383026382638 -1.04537945944594
 1  4.66699379567957 -2.55431748734873 -2.65740606290629
 1  5.07666047314731 -0.35206931573157 -1.75910259845985
 1 -9.30288981118112  1.05412630983098 -0.61596228242824
 1 -10.00231839693969  0.98398277667767 -2.31191093279328
 1  3.72599903130313  3.12867543614361  3.69824800700070
 1  6.56960196579658  1.44457866436644 -2.02684018721872
 1  4.26397740794079  5.41685477747775 -2.39950700570057
 1  3.83075107920792  5.56277334723472 -0.60716379957996
 1  5.56450822232223  5.02830928552855 -1.08788053615362
 1  1.00155769426943 -8.18064930743074  1.13773344644464
 1  7.63531481328133  2.95603290959096 -3.31214997719772
 1  6.24845628992899  4.29321689298930 -3.15045793489349

